MODEL 1
REMARK VINA RESULT:      -7.3      0.000      0.000
REMARK  Name = 
REMARK  7 active torsions:
REMARK  status: ('A' for Active; 'I' for Inactive)
REMARK    1  A    between atoms: C_1  and  C_2
REMARK    2  A    between atoms: C_2  and  C_3
REMARK    3  A    between atoms: C_2  and  C_4
REMARK    4  A    between atoms: C_4  and  N_5
REMARK    5  A    between atoms: C_4  and  C_13
REMARK    6  A    between atoms: C_6  and  C_8
REMARK    7  A    between atoms: N_15  and  C_16
REMARK                            x       y       z     vdW  Elec       q    Type
REMARK                         _______ _______ _______ _____ _____    ______ ____
ROOT
ATOM      1  C   UNL     1       5.766   5.429  17.761  0.00  0.00    +0.000 C 
ENDROOT
BRANCH   1   2
ATOM      2  N   UNL     1       6.061   4.845  16.451  0.00  0.00    +0.000 N 
ATOM      3  C   UNL     1       5.718   5.457  15.262  0.00  0.00    +0.000 C 
ATOM      4  O   UNL     1       5.209   6.572  15.230  0.00  0.00    +0.000 OA
ATOM      5  H   UNL     1       6.369   3.886  16.398  0.00  0.00    +0.000 HD
BRANCH   3   6
ATOM      6  C   UNL     1       6.027   4.692  14.062  0.00  0.00    +0.000 A 
ATOM      7  C   UNL     1       5.231   3.740  13.445  0.00  0.00    +0.000 A 
ATOM      8  C   UNL     1       5.824   3.212  12.261  0.00  0.00    +0.000 A 
ATOM      9  C   UNL     1       7.064   3.757  12.019  0.00  0.00    +0.000 A 
ATOM     10  S   UNL     1       7.506   4.897  13.210  0.00  0.00    +0.000 S 
ENDBRANCH   3   6
ENDBRANCH   1   2
BRANCH   1  11
ATOM     11  C   UNL     1       5.151   4.308  18.639  0.00  0.00    +0.000 C 
ATOM     12  O   UNL     1       5.723   3.880  19.638  0.00  0.00    +0.000 OA
ATOM     13  N   UNL     1       3.959   3.773  18.171  0.00  0.00    +0.000 N 
ATOM     14  H   UNL     1       3.529   4.171  17.347  0.00  0.00    +0.000 HD
BRANCH  13  15
ATOM     15  C   UNL     1       3.358   2.586  18.777  0.00  0.00    +0.000 C 
ATOM     16  C   UNL     1       3.218   2.715  20.297  0.00  0.00    +0.000 C 
ATOM     17  C   UNL     1       2.114   3.677  20.729  0.00  0.00    +0.000 C 
ATOM     18  C   UNL     1       0.782   3.458  20.015  0.00  0.00    +0.000 C 
ATOM     19  C   UNL     1       0.909   3.249  18.509  0.00  0.00    +0.000 C 
ATOM     20  C   UNL     1       2.005   2.254  18.139  0.00  0.00    +0.000 C 
ENDBRANCH  13  15
ENDBRANCH   1  11
BRANCH   1  22
ATOM     21  C   UNL     1       8.210   5.054  18.466  0.00  0.00    +0.000 C 
ATOM     22  C   UNL     1       7.028   6.030  18.433  0.00  0.00    +0.000 C 
ATOM     23  C   UNL     1       7.473   7.314  17.720  0.00  0.00    +0.000 C 
ENDBRANCH   1  22
TORSDOF 5
ENDMDL
MODEL 2
REMARK VINA RESULT:      -7.2      1.562      2.149
REMARK  Name = 
REMARK  7 active torsions:
REMARK  status: ('A' for Active; 'I' for Inactive)
REMARK    1  A    between atoms: C_1  and  C_2
REMARK    2  A    between atoms: C_2  and  C_3
REMARK    3  A    between atoms: C_2  and  C_4
REMARK    4  A    between atoms: C_4  and  N_5
REMARK    5  A    between atoms: C_4  and  C_13
REMARK    6  A    between atoms: C_6  and  C_8
REMARK    7  A    between atoms: N_15  and  C_16
REMARK                            x       y       z     vdW  Elec       q    Type
REMARK                         _______ _______ _______ _____ _____    ______ ____
ROOT
ATOM      1  C   UNL     1       5.299   6.038  17.822  0.00  0.00    +0.000 C 
ENDROOT
BRANCH   1   2
ATOM      2  N   UNL     1       5.497   5.348  16.546  0.00  0.00    +0.000 N 
ATOM      3  C   UNL     1       6.573   5.597  15.717  0.00  0.00    +0.000 C 
ATOM      4  O   UNL     1       7.475   6.363  16.038  0.00  0.00    +0.000 OA
ATOM      5  H   UNL     1       4.745   4.795  16.163  0.00  0.00    +0.000 HD
BRANCH   3   6
ATOM      6  C   UNL     1       6.563   4.867  14.457  0.00  0.00    +0.000 A 
ATOM      7  C   UNL     1       5.638   3.923  14.041  0.00  0.00    +0.000 A 
ATOM      8  C   UNL     1       5.906   3.432  12.730  0.00  0.00    +0.000 A 
ATOM      9  C   UNL     1       7.039   3.996  12.190  0.00  0.00    +0.000 A 
ATOM     10  S   UNL     1       7.770   5.110  13.257  0.00  0.00    +0.000 S 
ENDBRANCH   3   6
ENDBRANCH   1   2
BRANCH   1  11
ATOM     11  C   UNL     1       3.770   6.135  18.063  0.00  0.00    +0.000 C 
ATOM     12  O   UNL     1       3.160   7.195  17.945  0.00  0.00    +0.000 OA
ATOM     13  N   UNL     1       3.162   4.966  18.498  0.00  0.00    +0.000 N 
ATOM     14  H   UNL     1       3.712   4.120  18.569  0.00  0.00    +0.000 HD
BRANCH  13  15
ATOM     15  C   UNL     1       1.772   4.943  18.951  0.00  0.00    +0.000 C 
ATOM     16  C   UNL     1       1.056   3.645  18.569  0.00  0.00    +0.000 C 
ATOM     17  C   UNL     1       1.498   2.437  19.392  0.00  0.00    +0.000 C 
ATOM     18  C   UNL     1       1.533   2.690  20.898  0.00  0.00    +0.000 C 
ATOM     19  C   UNL     1       2.174   4.016  21.293  0.00  0.00    +0.000 C 
ATOM     20  C   UNL     1       1.670   5.190  20.460  0.00  0.00    +0.000 C 
ENDBRANCH  13  15
ENDBRANCH   1  11
BRANCH   1  22
ATOM     21  C   UNL     1       5.979   3.784  18.855  0.00  0.00    +0.000 C 
ATOM     22  C   UNL     1       6.001   5.311  18.998  0.00  0.00    +0.000 C 
ATOM     23  C   UNL     1       7.458   5.769  19.138  0.00  0.00    +0.000 C 
ENDBRANCH   1  22
TORSDOF 5
ENDMDL
MODEL 3
REMARK VINA RESULT:      -7.1      3.594      5.097
REMARK  Name = 
REMARK  7 active torsions:
REMARK  status: ('A' for Active; 'I' for Inactive)
REMARK    1  A    between atoms: C_1  and  C_2
REMARK    2  A    between atoms: C_2  and  C_3
REMARK    3  A    between atoms: C_2  and  C_4
REMARK    4  A    between atoms: C_4  and  N_5
REMARK    5  A    between atoms: C_4  and  C_13
REMARK    6  A    between atoms: C_6  and  C_8
REMARK    7  A    between atoms: N_15  and  C_16
REMARK                            x       y       z     vdW  Elec       q    Type
REMARK                         _______ _______ _______ _____ _____    ______ ____
ROOT
ATOM      1  C   UNL     1       4.640   5.139  17.312  0.00  0.00    +0.000 C 
ENDROOT
BRANCH   1   2
ATOM      2  N   UNL     1       3.784   6.302  17.555  0.00  0.00    +0.000 N 
ATOM      3  C   UNL     1       3.245   6.591  18.792  0.00  0.00    +0.000 C 
ATOM      4  O   UNL     1       3.513   5.928  19.788  0.00  0.00    +0.000 OA
ATOM      5  H   UNL     1       3.427   6.823  16.769  0.00  0.00    +0.000 HD
BRANCH   3   6
ATOM      6  C   UNL     1       2.361   7.748  18.826  0.00  0.00    +0.000 A 
ATOM      7  C   UNL     1       2.017   8.572  17.766  0.00  0.00    +0.000 A 
ATOM      8  C   UNL     1       1.094   9.592  18.141  0.00  0.00    +0.000 A 
ATOM      9  C   UNL     1       0.777   9.534  19.478  0.00  0.00    +0.000 A 
ATOM     10  S   UNL     1       1.585   8.258  20.273  0.00  0.00    +0.000 S 
ENDBRANCH   3   6
ENDBRANCH   1   2
BRANCH   1  11
ATOM     11  C   UNL     1       3.755   3.874  17.468  0.00  0.00    +0.000 C 
ATOM     12  O   UNL     1       3.039   3.467  16.556  0.00  0.00    +0.000 OA
ATOM     13  N   UNL     1       3.768   3.291  18.727  0.00  0.00    +0.000 N 
ATOM     14  H   UNL     1       4.384   3.664  19.437  0.00  0.00    +0.000 HD
BRANCH  13  15
ATOM     15  C   UNL     1       2.846   2.215  19.087  0.00  0.00    +0.000 C 
ATOM     16  C   UNL     1       3.068   1.711  20.516  0.00  0.00    +0.000 C 
ATOM     17  C   UNL     1       2.584   2.685  21.589  0.00  0.00    +0.000 C 
ATOM     18  C   UNL     1       1.177   3.226  21.349  0.00  0.00    +0.000 C 
ATOM     19  C   UNL     1       0.913   3.661  19.911  0.00  0.00    +0.000 C 
ATOM     20  C   UNL     1       1.387   2.635  18.885  0.00  0.00    +0.000 C 
ENDBRANCH  13  15
ENDBRANCH   1  11
BRANCH   1  22
ATOM     21  C   UNL     1       5.260   6.573  15.270  0.00  0.00    +0.000 C 
ATOM     22  C   UNL     1       5.304   5.181  15.912  0.00  0.00    +0.000 C 
ATOM     23  C   UNL     1       6.766   4.720  15.981  0.00  0.00    +0.000 C 
ENDBRANCH   1  22
TORSDOF 5
ENDMDL
MODEL 4
REMARK VINA RESULT:      -7.0      1.644      2.158
REMARK  Name = 
REMARK  7 active torsions:
REMARK  status: ('A' for Active; 'I' for Inactive)
REMARK    1  A    between atoms: C_1  and  C_2
REMARK    2  A    between atoms: C_2  and  C_3
REMARK    3  A    between atoms: C_2  and  C_4
REMARK    4  A    between atoms: C_4  and  N_5
REMARK    5  A    between atoms: C_4  and  C_13
REMARK    6  A    between atoms: C_6  and  C_8
REMARK    7  A    between atoms: N_15  and  C_16
REMARK                            x       y       z     vdW  Elec       q    Type
REMARK                         _______ _______ _______ _____ _____    ______ ____
ROOT
ATOM      1  C   UNL     1       5.711   5.495  16.906  0.00  0.00    +0.000 C 
ENDROOT
BRANCH   1   2
ATOM      2  N   UNL     1       5.615   4.726  15.663  0.00  0.00    +0.000 N 
ATOM      3  C   UNL     1       6.494   4.886  14.612  0.00  0.00    +0.000 C 
ATOM      4  O   UNL     1       7.463   5.635  14.684  0.00  0.00    +0.000 OA
ATOM      5  H   UNL     1       4.786   4.180  15.485  0.00  0.00    +0.000 HD
BRANCH   3   6
ATOM      6  C   UNL     1       6.198   4.086  13.432  0.00  0.00    +0.000 A 
ATOM      7  C   UNL     1       4.978   3.533  13.078  0.00  0.00    +0.000 A 
ATOM      8  C   UNL     1       5.031   2.839  11.833  0.00  0.00    +0.000 A 
ATOM      9  C   UNL     1       6.291   2.862  11.282  0.00  0.00    +0.000 A 
ATOM     10  S   UNL     1       7.400   3.716  12.260  0.00  0.00    +0.000 S 
ENDBRANCH   3   6
ENDBRANCH   1   2
BRANCH   1  11
ATOM     11  C   UNL     1       4.270   5.902  17.310  0.00  0.00    +0.000 C 
ATOM     12  O   UNL     1       3.924   7.079  17.381  0.00  0.00    +0.000 OA
ATOM     13  N   UNL     1       3.433   4.853  17.662  0.00  0.00    +0.000 N 
ATOM     14  H   UNL     1       3.768   3.903  17.577  0.00  0.00    +0.000 HD
BRANCH  13  15
ATOM     15  C   UNL     1       2.113   5.084  18.248  0.00  0.00    +0.000 C 
ATOM     16  C   UNL     1       1.146   3.928  17.979  0.00  0.00    +0.000 C 
ATOM     17  C   UNL     1       1.451   2.673  18.795  0.00  0.00    +0.000 C 
ATOM     18  C   UNL     1       1.680   2.938  20.281  0.00  0.00    +0.000 C 
ATOM     19  C   UNL     1       2.580   4.136  20.569  0.00  0.00    +0.000 C 
ATOM     20  C   UNL     1       2.208   5.368  19.751  0.00  0.00    +0.000 C 
ENDBRANCH  13  15
ENDBRANCH   1  11
BRANCH   1  22
ATOM     21  C   UNL     1       7.904   4.505  17.813  0.00  0.00    +0.000 C 
ATOM     22  C   UNL     1       6.399   4.694  18.041  0.00  0.00    +0.000 C 
ATOM     23  C   UNL     1       6.192   5.375  19.400  0.00  0.00    +0.000 C 
ENDBRANCH   1  22
TORSDOF 5
ENDMDL
MODEL 5
REMARK VINA RESULT:      -7.0      1.193      1.594
REMARK  Name = 
REMARK  7 active torsions:
REMARK  status: ('A' for Active; 'I' for Inactive)
REMARK    1  A    between atoms: C_1  and  C_2
REMARK    2  A    between atoms: C_2  and  C_3
REMARK    3  A    between atoms: C_2  and  C_4
REMARK    4  A    between atoms: C_4  and  N_5
REMARK    5  A    between atoms: C_4  and  C_13
REMARK    6  A    between atoms: C_6  and  C_8
REMARK    7  A    between atoms: N_15  and  C_16
REMARK                            x       y       z     vdW  Elec       q    Type
REMARK                         _______ _______ _______ _____ _____    ______ ____
ROOT
ATOM      1  C   UNL     1       6.065   6.143  17.457  0.00  0.00    +0.000 C 
ENDROOT
BRANCH   1   2
ATOM      2  N   UNL     1       5.953   5.587  16.107  0.00  0.00    +0.000 N 
ATOM      3  C   UNL     1       6.930   4.795  15.538  0.00  0.00    +0.000 C 
ATOM      4  O   UNL     1       7.926   4.444  16.163  0.00  0.00    +0.000 OA
ATOM      5  H   UNL     1       5.226   5.924  15.495  0.00  0.00    +0.000 HD
BRANCH   3   6
ATOM      6  C   UNL     1       6.676   4.394  14.161  0.00  0.00    +0.000 A 
ATOM      7  C   UNL     1       5.596   3.668  13.685  0.00  0.00    +0.000 A 
ATOM      8  C   UNL     1       5.639   3.484  12.272  0.00  0.00    +0.000 A 
ATOM      9  C   UNL     1       6.759   4.055  11.711  0.00  0.00    +0.000 A 
ATOM     10  S   UNL     1       7.748   4.807  12.882  0.00  0.00    +0.000 S 
ENDBRANCH   3   6
ENDBRANCH   1   2
BRANCH   1  11
ATOM     11  C   UNL     1       5.721   5.006  18.455  0.00  0.00    +0.000 C 
ATOM     12  O   UNL     1       6.577   4.231  18.875  0.00  0.00    +0.000 OA
ATOM     13  N   UNL     1       4.375   4.878  18.769  0.00  0.00    +0.000 N 
ATOM     14  H   UNL     1       3.716   5.550  18.400  0.00  0.00    +0.000 HD
BRANCH  13  15
ATOM     15  C   UNL     1       3.869   3.742  19.538  0.00  0.00    +0.000 C 
ATOM     16  C   UNL     1       2.595   4.086  20.314  0.00  0.00    +0.000 C 
ATOM     17  C   UNL     1       1.358   4.228  19.429  0.00  0.00    +0.000 C 
ATOM     18  C   UNL     1       1.172   3.084  18.434  0.00  0.00    +0.000 C 
ATOM     19  C   UNL     1       2.449   2.675  17.707  0.00  0.00    +0.000 C 
ATOM     20  C   UNL     1       3.641   2.517  18.646  0.00  0.00    +0.000 C 
ENDBRANCH  13  15
ENDBRANCH   1  11
BRANCH   1  22
ATOM     21  C   UNL     1       7.552   8.239  17.549  0.00  0.00    +0.000 C 
ATOM     22  C   UNL     1       7.477   6.719  17.740  0.00  0.00    +0.000 C 
ATOM     23  C   UNL     1       7.935   6.381  19.164  0.00  0.00    +0.000 C 
ENDBRANCH   1  22
TORSDOF 5
ENDMDL
MODEL 6
REMARK VINA RESULT:      -6.9      3.501      4.876
REMARK  Name = 
REMARK  7 active torsions:
REMARK  status: ('A' for Active; 'I' for Inactive)
REMARK    1  A    between atoms: C_1  and  C_2
REMARK    2  A    between atoms: C_2  and  C_3
REMARK    3  A    between atoms: C_2  and  C_4
REMARK    4  A    between atoms: C_4  and  N_5
REMARK    5  A    between atoms: C_4  and  C_13
REMARK    6  A    between atoms: C_6  and  C_8
REMARK    7  A    between atoms: N_15  and  C_16
REMARK                            x       y       z     vdW  Elec       q    Type
REMARK                         _______ _______ _______ _____ _____    ______ ____
ROOT
ATOM      1  C   UNL     1       5.421   5.558  18.025  0.00  0.00    +0.000 C 
ENDROOT
BRANCH   1   2
ATOM      2  N   UNL     1       4.439   6.643  18.086  0.00  0.00    +0.000 N 
ATOM      3  C   UNL     1       3.393   6.659  18.986  0.00  0.00    +0.000 C 
ATOM      4  O   UNL     1       3.265   5.795  19.847  0.00  0.00    +0.000 OA
ATOM      5  H   UNL     1       4.411   7.323  17.341  0.00  0.00    +0.000 HD
BRANCH   3   6
ATOM      6  C   UNL     1       2.478   7.784  18.850  0.00  0.00    +0.000 A 
ATOM      7  C   UNL     1       2.205   8.509  17.701  0.00  0.00    +0.000 A 
ATOM      8  C   UNL     1       1.226   9.523  17.912  0.00  0.00    +0.000 A 
ATOM      9  C   UNL     1       0.794   9.559  19.218  0.00  0.00    +0.000 A 
ATOM     10  S   UNL     1       1.564   8.378  20.179  0.00  0.00    +0.000 S 
ENDBRANCH   3   6
ENDBRANCH   1   2
BRANCH   1  11
ATOM     11  C   UNL     1       4.675   4.288  17.538  0.00  0.00    +0.000 C 
ATOM     12  O   UNL     1       4.411   4.105  16.351  0.00  0.00    +0.000 OA
ATOM     13  N   UNL     1       4.258   3.422  18.539  0.00  0.00    +0.000 N 
ATOM     14  H   UNL     1       4.511   3.619  19.498  0.00  0.00    +0.000 HD
BRANCH  13  15
ATOM     15  C   UNL     1       3.380   2.287  18.260  0.00  0.00    +0.000 C 
ATOM     16  C   UNL     1       2.931   1.570  19.536  0.00  0.00    +0.000 C 
ATOM     17  C   UNL     1       1.902   2.355  20.348  0.00  0.00    +0.000 C 
ATOM     18  C   UNL     1       0.742   2.902  19.520  0.00  0.00    +0.000 C 
ATOM     19  C   UNL     1       1.166   3.551  18.206  0.00  0.00    +0.000 C 
ATOM     20  C   UNL     1       2.168   2.707  17.424  0.00  0.00    +0.000 C 
ENDBRANCH  13  15
ENDBRANCH   1  11
BRANCH   1  22
ATOM     21  C   UNL     1       7.380   7.147  17.527  0.00  0.00    +0.000 C 
ATOM     22  C   UNL     1       6.611   5.894  17.089  0.00  0.00    +0.000 C 
ATOM     23  C   UNL     1       7.594   4.720  17.006  0.00  0.00    +0.000 C 
ENDBRANCH   1  22
TORSDOF 5
ENDMDL
MODEL 7
REMARK VINA RESULT:      -6.9      1.814      2.562
REMARK  Name = 
REMARK  7 active torsions:
REMARK  status: ('A' for Active; 'I' for Inactive)
REMARK    1  A    between atoms: C_1  and  C_2
REMARK    2  A    between atoms: C_2  and  C_3
REMARK    3  A    between atoms: C_2  and  C_4
REMARK    4  A    between atoms: C_4  and  N_5
REMARK    5  A    between atoms: C_4  and  C_13
REMARK    6  A    between atoms: C_6  and  C_8
REMARK    7  A    between atoms: N_15  and  C_16
REMARK                            x       y       z     vdW  Elec       q    Type
REMARK                         _______ _______ _______ _____ _____    ______ ____
ROOT
ATOM      1  C   UNL     1       5.932   6.389  16.188  0.00  0.00    +0.000 C 
ENDROOT
BRANCH   1   2
ATOM      2  N   UNL     1       5.817   5.392  15.122  0.00  0.00    +0.000 N 
ATOM      3  C   UNL     1       6.848   5.103  14.251  0.00  0.00    +0.000 C 
ATOM      4  O   UNL     1       7.957   5.613  14.366  0.00  0.00    +0.000 OA
ATOM      5  H   UNL     1       4.908   5.019  14.892  0.00  0.00    +0.000 HD
BRANCH   3   6
ATOM      6  C   UNL     1       6.524   4.136  13.210  0.00  0.00    +0.000 A 
ATOM      7  C   UNL     1       7.371   3.643  12.231  0.00  0.00    +0.000 A 
ATOM      8  C   UNL     1       6.740   2.676  11.395  0.00  0.00    +0.000 A 
ATOM      9  C   UNL     1       5.424   2.473  11.744  0.00  0.00    +0.000 A 
ATOM     10  S   UNL     1       4.958   3.441  13.071  0.00  0.00    +0.000 S 
ENDBRANCH   3   6
ENDBRANCH   1   2
BRANCH   1  11
ATOM     11  C   UNL     1       4.636   6.309  17.037  0.00  0.00    +0.000 C 
ATOM     12  O   UNL     1       4.184   7.290  17.624  0.00  0.00    +0.000 OA
ATOM     13  N   UNL     1       4.077   5.045  17.151  0.00  0.00    +0.000 N 
ATOM     14  H   UNL     1       4.487   4.275  16.639  0.00  0.00    +0.000 HD
BRANCH  13  15
ATOM     15  C   UNL     1       2.971   4.771  18.069  0.00  0.00    +0.000 C 
ATOM     16  C   UNL     1       2.015   3.706  17.527  0.00  0.00    +0.000 C 
ATOM     17  C   UNL     1       2.591   2.291  17.565  0.00  0.00    +0.000 C 
ATOM     18  C   UNL     1       3.224   1.914  18.902  0.00  0.00    +0.000 C 
ATOM     19  C   UNL     1       4.120   2.996  19.495  0.00  0.00    +0.000 C 
ATOM     20  C   UNL     1       3.480   4.381  19.460  0.00  0.00    +0.000 C 
ENDBRANCH  13  15
ENDBRANCH   1  11
BRANCH   1  22
ATOM     21  C   UNL     1       7.693   7.449  17.733  0.00  0.00    +0.000 C 
ATOM     22  C   UNL     1       7.187   6.162  17.071  0.00  0.00    +0.000 C 
ATOM     23  C   UNL     1       6.909   5.124  18.166  0.00  0.00    +0.000 C 
ENDBRANCH   1  22
TORSDOF 5
ENDMDL
MODEL 8
REMARK VINA RESULT:      -6.8      3.867      5.500
REMARK  Name = 
REMARK  7 active torsions:
REMARK  status: ('A' for Active; 'I' for Inactive)
REMARK    1  A    between atoms: C_1  and  C_2
REMARK    2  A    between atoms: C_2  and  C_3
REMARK    3  A    between atoms: C_2  and  C_4
REMARK    4  A    between atoms: C_4  and  N_5
REMARK    5  A    between atoms: C_4  and  C_13
REMARK    6  A    between atoms: C_6  and  C_8
REMARK    7  A    between atoms: N_15  and  C_16
REMARK                            x       y       z     vdW  Elec       q    Type
REMARK                         _______ _______ _______ _____ _____    ______ ____
ROOT
ATOM      1  C   UNL     1       2.848   5.565  19.841  0.00  0.00    +0.000 C 
ENDROOT
BRANCH   1   2
ATOM      2  N   UNL     1       3.621   5.210  18.649  0.00  0.00    +0.000 N 
ATOM      3  C   UNL     1       4.998   5.126  18.645  0.00  0.00    +0.000 C 
ATOM      4  O   UNL     1       5.660   5.272  19.668  0.00  0.00    +0.000 OA
ATOM      5  H   UNL     1       3.160   5.190  17.752  0.00  0.00    +0.000 HD
BRANCH   3   6
ATOM      6  C   UNL     1       5.596   4.829  17.350  0.00  0.00    +0.000 A 
ATOM      7  C   UNL     1       5.179   3.878  16.433  0.00  0.00    +0.000 A 
ATOM      8  C   UNL     1       5.967   3.880  15.245  0.00  0.00    +0.000 A 
ATOM      9  C   UNL     1       6.976   4.815  15.296  0.00  0.00    +0.000 A 
ATOM     10  S   UNL     1       6.968   5.683  16.766  0.00  0.00    +0.000 S 
ENDBRANCH   3   6
ENDBRANCH   1   2
BRANCH   1  11
ATOM     11  C   UNL     1       2.341   7.018  19.647  0.00  0.00    +0.000 C 
ATOM     12  O   UNL     1       2.456   7.607  18.574  0.00  0.00    +0.000 OA
ATOM     13  N   UNL     1       1.830   7.627  20.784  0.00  0.00    +0.000 N 
ATOM     14  H   UNL     1       1.752   7.091  21.638  0.00  0.00    +0.000 HD
BRANCH  13  15
ATOM     15  C   UNL     1       1.492   9.049  20.810  0.00  0.00    +0.000 C 
ATOM     16  C   UNL     1       0.032   9.308  20.429  0.00  0.00    +0.000 C 
ATOM     17  C   UNL     1      -0.965   8.900  21.512  0.00  0.00    +0.000 C 
ATOM     18  C   UNL     1      -0.605   9.401  22.909  0.00  0.00    +0.000 C 
ATOM     19  C   UNL     1       0.864   9.222  23.277  0.00  0.00    +0.000 C 
ATOM     20  C   UNL     1       1.812   9.677  22.171  0.00  0.00    +0.000 C 
ENDBRANCH  13  15
ENDBRANCH   1  11
BRANCH   1  22
ATOM     21  C   UNL     1       1.368   3.697  18.878  0.00  0.00    +0.000 C 
ATOM     22  C   UNL     1       1.665   4.593  20.086  0.00  0.00    +0.000 C 
ATOM     23  C   UNL     1       1.930   3.700  21.305  0.00  0.00    +0.000 C 
ENDBRANCH   1  22
TORSDOF 5
ENDMDL
MODEL 9
REMARK VINA RESULT:      -6.8      3.628      5.134
REMARK  Name = 
REMARK  7 active torsions:
REMARK  status: ('A' for Active; 'I' for Inactive)
REMARK    1  A    between atoms: C_1  and  C_2
REMARK    2  A    between atoms: C_2  and  C_3
REMARK    3  A    between atoms: C_2  and  C_4
REMARK    4  A    between atoms: C_4  and  N_5
REMARK    5  A    between atoms: C_4  and  C_13
REMARK    6  A    between atoms: C_6  and  C_8
REMARK    7  A    between atoms: N_15  and  C_16
REMARK                            x       y       z     vdW  Elec       q    Type
REMARK                         _______ _______ _______ _____ _____    ______ ____
ROOT
ATOM      1  C   UNL     1       5.176   5.895  17.907  0.00  0.00    +0.000 C 
ENDROOT
BRANCH   1   2
ATOM      2  N   UNL     1       4.275   6.956  18.363  0.00  0.00    +0.000 N 
ATOM      3  C   UNL     1       2.912   6.926  18.150  0.00  0.00    +0.000 C 
ATOM      4  O   UNL     1       2.358   5.964  17.628  0.00  0.00    +0.000 OA
ATOM      5  H   UNL     1       4.666   7.825  18.693  0.00  0.00    +0.000 HD
BRANCH   3   6
ATOM      6  C   UNL     1       2.188   8.103  18.612  0.00  0.00    +0.000 A 
ATOM      7  C   UNL     1       1.882   9.239  17.880  0.00  0.00    +0.000 A 
ATOM      8  C   UNL     1       1.126  10.187  18.630  0.00  0.00    +0.000 A 
ATOM      9  C   UNL     1       0.894   9.759  19.917  0.00  0.00    +0.000 A 
ATOM     10  S   UNL     1       1.583   8.226  20.216  0.00  0.00    +0.000 S 
ENDBRANCH   3   6
ENDBRANCH   1   2
BRANCH   1  11
ATOM     11  C   UNL     1       5.059   4.724  18.918  0.00  0.00    +0.000 C 
ATOM     12  O   UNL     1       6.051   4.156  19.370  0.00  0.00    +0.000 OA
ATOM     13  N   UNL     1       3.765   4.314  19.206  0.00  0.00    +0.000 N 
ATOM     14  H   UNL     1       2.986   4.824  18.811  0.00  0.00    +0.000 HD
BRANCH  13  15
ATOM     15  C   UNL     1       3.495   3.106  19.984  0.00  0.00    +0.000 C 
ATOM     16  C   UNL     1       2.438   3.336  21.068  0.00  0.00    +0.000 C 
ATOM     17  C   UNL     1       1.020   3.476  20.518  0.00  0.00    +0.000 C 
ATOM     18  C   UNL     1       0.632   2.394  19.513  0.00  0.00    +0.000 C 
ATOM     19  C   UNL     1       1.706   2.097  18.471  0.00  0.00    +0.000 C 
ATOM     20  C   UNL     1       3.095   1.934  19.082  0.00  0.00    +0.000 C 
ENDBRANCH  13  15
ENDBRANCH   1  11
BRANCH   1  22
ATOM     21  C   UNL     1       5.245   6.439  15.395  0.00  0.00    +0.000 C 
ATOM     22  C   UNL     1       4.843   5.420  16.469  0.00  0.00    +0.000 C 
ATOM     23  C   UNL     1       5.530   4.084  16.157  0.00  0.00    +0.000 C 
ENDBRANCH   1  22
TORSDOF 5
ENDMDL
