MODEL 1
REMARK VINA RESULT:      -7.4      0.000      0.000
REMARK  Name = 
REMARK  10 active torsions:
REMARK  status: ('A' for Active; 'I' for Inactive)
REMARK    1  A    between atoms: C_1  and  C_2
REMARK    2  A    between atoms: C_2  and  S_3
REMARK    3  A    between atoms: S_3  and  C_4
REMARK    4  A    between atoms: C_4  and  S_6
REMARK    5  A    between atoms: S_6  and  C_7
REMARK    6  A    between atoms: C_7  and  C_8
REMARK    7  A    between atoms: C_8  and  C_10
REMARK    8  A    between atoms: C_14  and  S_15
REMARK    9  A    between atoms: S_15  and  N_18
REMARK   10  A    between atoms: N_18  and  C_19
REMARK                            x       y       z     vdW  Elec       q    Type
REMARK                         _______ _______ _______ _____ _____    ______ ____
ROOT
ATOM      1  C   UNL     1       2.186   7.133  18.663  0.00  0.00    +0.000 A 
ATOM      2  C   UNL     1       1.970   7.213  20.050  0.00  0.00    +0.000 A 
ATOM      3  C   UNL     1       1.906   6.061  20.840  0.00  0.00    +0.000 A 
ATOM      4  C   UNL     1       2.067   4.813  20.253  0.00  0.00    +0.000 A 
ATOM      5  C   UNL     1       2.297   4.731  18.875  0.00  0.00    +0.000 A 
ATOM      6  C   UNL     1       2.337   5.876  18.072  0.00  0.00    +0.000 A 
ENDROOT
BRANCH   5   7
ATOM      7  S   UNL     1       2.541   3.136  18.137  0.00  0.00    +0.000 S 
ATOM      8  O   UNL     1       1.808   2.170  18.934  0.00  0.00    +0.000 OA
ATOM      9  O   UNL     1       2.319   3.268  16.713  0.00  0.00    +0.000 OA
BRANCH   7  10
ATOM     10  N   UNL     1       4.165   2.869  18.434  0.00  0.00    +0.000 N 
ATOM     11  H   UNL     1       4.362   2.474  19.354  0.00  0.00    +0.000 HD
BRANCH  10  12
ATOM     12  C   UNL     1       5.157   3.688  17.835  0.00  0.00    +0.000 A 
ATOM     13  C   UNL     1       5.181   3.849  16.435  0.00  0.00    +0.000 A 
ATOM     14  C   UNL     1       6.013   4.806  15.850  0.00  0.00    +0.000 A 
ATOM     15  C   UNL     1       6.743   5.606  16.699  0.00  0.00    +0.000 A 
ATOM     16  C   UNL     1       6.756   5.403  18.064  0.00  0.00    +0.000 A 
ATOM     17  C   UNL     1       6.013   4.414  18.663  0.00  0.00    +0.000 A 
ATOM     18  O   UNL     1       7.466   6.368  18.713  0.00  0.00    +0.000 OA
ATOM     19  C   UNL     1       7.561   7.339  17.650  0.00  0.00    +0.000 C 
ATOM     20  O   UNL     1       7.428   6.730  16.348  0.00  0.00    +0.000 OA
ENDBRANCH  10  12
ENDBRANCH   7  10
ENDBRANCH   5   7
BRANCH   1  21
ATOM     21  C   UNL     1       2.243   8.411  17.882  0.00  0.00    +0.000 C 
ATOM     22  O   UNL     1       3.295   8.684  17.303  0.00  0.00    +0.000 OA
BRANCH  21  23
ATOM     23  C   UNL     1       1.032   9.337  17.882  0.00  0.00    +0.000 C 
BRANCH  23  24
ATOM     24  S   UNL     1       1.378  10.864  18.802  0.00  0.00    +0.000 S 
BRANCH  24  25
ATOM     25  C   UNL     1      -0.122  11.775  18.657  0.00  0.00    +0.000 C 
ATOM     26  S   UNL     1      -0.258  13.446  18.683  0.00  0.00    +0.000 S 
BRANCH  25  27
ATOM     27  S   UNL     1      -1.532  10.711  18.657  0.00  0.00    +0.000 S 
BRANCH  27  29
ATOM     28  C   UNL     1      -2.593  10.023  16.237  0.00  0.00    +0.000 C 
ATOM     29  C   UNL     1      -2.355  11.234  17.126  0.00  0.00    +0.000 C 
ENDBRANCH  27  29
ENDBRANCH  25  27
ENDBRANCH  24  25
ENDBRANCH  23  24
ENDBRANCH  21  23
ENDBRANCH   1  21
TORSDOF 9
ENDMDL
MODEL 2
REMARK VINA RESULT:      -7.1      1.123      1.761
REMARK  Name = 
REMARK  10 active torsions:
REMARK  status: ('A' for Active; 'I' for Inactive)
REMARK    1  A    between atoms: C_1  and  C_2
REMARK    2  A    between atoms: C_2  and  S_3
REMARK    3  A    between atoms: S_3  and  C_4
REMARK    4  A    between atoms: C_4  and  S_6
REMARK    5  A    between atoms: S_6  and  C_7
REMARK    6  A    between atoms: C_7  and  C_8
REMARK    7  A    between atoms: C_8  and  C_10
REMARK    8  A    between atoms: C_14  and  S_15
REMARK    9  A    between atoms: S_15  and  N_18
REMARK   10  A    between atoms: N_18  and  C_19
REMARK                            x       y       z     vdW  Elec       q    Type
REMARK                         _______ _______ _______ _____ _____    ______ ____
ROOT
ATOM      1  C   UNL     1       2.072   7.483  18.840  0.00  0.00    +0.000 A 
ATOM      2  C   UNL     1       1.895   7.644  20.225  0.00  0.00    +0.000 A 
ATOM      3  C   UNL     1       1.816   6.538  21.077  0.00  0.00    +0.000 A 
ATOM      4  C   UNL     1       1.923   5.256  20.554  0.00  0.00    +0.000 A 
ATOM      5  C   UNL     1       2.114   5.094  19.177  0.00  0.00    +0.000 A 
ATOM      6  C   UNL     1       2.169   6.193  18.313  0.00  0.00    +0.000 A 
ENDROOT
BRANCH   5   7
ATOM      7  S   UNL     1       2.289   3.455  18.519  0.00  0.00    +0.000 S 
ATOM      8  O   UNL     1       1.757   2.531  19.503  0.00  0.00    +0.000 OA
ATOM      9  O   UNL     1       1.806   3.471  17.155  0.00  0.00    +0.000 OA
BRANCH   7  10
ATOM     10  N   UNL     1       3.950   3.261  18.528  0.00  0.00    +0.000 N 
ATOM     11  H   UNL     1       4.325   2.913  19.411  0.00  0.00    +0.000 HD
BRANCH  10  12
ATOM     12  C   UNL     1       4.782   4.089  17.732  0.00  0.00    +0.000 A 
ATOM     13  C   UNL     1       5.780   4.875  18.344  0.00  0.00    +0.000 A 
ATOM     14  C   UNL     1       6.735   5.533  17.565  0.00  0.00    +0.000 A 
ATOM     15  C   UNL     1       6.686   5.326  16.206  0.00  0.00    +0.000 A 
ATOM     16  C   UNL     1       5.672   4.603  15.612  0.00  0.00    +0.000 A 
ATOM     17  C   UNL     1       4.670   4.013  16.344  0.00  0.00    +0.000 A 
ATOM     18  O   UNL     1       5.877   4.446  14.274  0.00  0.00    +0.000 OA
ATOM     19  C   UNL     1       7.267   4.829  14.208  0.00  0.00    +0.000 C 
ATOM     20  O   UNL     1       7.645   5.685  15.307  0.00  0.00    +0.000 OA
ENDBRANCH  10  12
ENDBRANCH   7  10
ENDBRANCH   5   7
BRANCH   1  21
ATOM     21  C   UNL     1       2.148   8.717  17.990  0.00  0.00    +0.000 C 
ATOM     22  O   UNL     1       2.871   8.684  16.994  0.00  0.00    +0.000 OA
BRANCH  21  23
ATOM     23  C   UNL     1       1.382   9.962  18.418  0.00  0.00    +0.000 C 
BRANCH  23  24
ATOM     24  S   UNL     1      -0.409   9.719  18.241  0.00  0.00    +0.000 S 
BRANCH  24  25
ATOM     25  C   UNL     1      -1.044  11.362  18.235  0.00  0.00    +0.000 C 
ATOM     26  S   UNL     1      -0.222  12.730  18.747  0.00  0.00    +0.000 S 
BRANCH  25  27
ATOM     27  S   UNL     1      -2.750  11.398  17.781  0.00  0.00    +0.000 S 
BRANCH  27  29
ATOM     28  C   UNL     1      -3.232   9.775  15.639  0.00  0.00    +0.000 C 
ATOM     29  C   UNL     1      -2.634  11.128  15.989  0.00  0.00    +0.000 C 
ENDBRANCH  27  29
ENDBRANCH  25  27
ENDBRANCH  24  25
ENDBRANCH  23  24
ENDBRANCH  21  23
ENDBRANCH   1  21
TORSDOF 9
ENDMDL
MODEL 3
REMARK VINA RESULT:      -7.1      1.565      1.967
REMARK  Name = 
REMARK  10 active torsions:
REMARK  status: ('A' for Active; 'I' for Inactive)
REMARK    1  A    between atoms: C_1  and  C_2
REMARK    2  A    between atoms: C_2  and  S_3
REMARK    3  A    between atoms: S_3  and  C_4
REMARK    4  A    between atoms: C_4  and  S_6
REMARK    5  A    between atoms: S_6  and  C_7
REMARK    6  A    between atoms: C_7  and  C_8
REMARK    7  A    between atoms: C_8  and  C_10
REMARK    8  A    between atoms: C_14  and  S_15
REMARK    9  A    between atoms: S_15  and  N_18
REMARK   10  A    between atoms: N_18  and  C_19
REMARK                            x       y       z     vdW  Elec       q    Type
REMARK                         _______ _______ _______ _____ _____    ______ ____
ROOT
ATOM      1  C   UNL     1       1.649   7.960  20.161  0.00  0.00    +0.000 A 
ATOM      2  C   UNL     1       2.007   8.566  18.944  0.00  0.00    +0.000 A 
ATOM      3  C   UNL     1       2.483   7.807  17.871  0.00  0.00    +0.000 A 
ATOM      4  C   UNL     1       2.598   6.429  17.998  0.00  0.00    +0.000 A 
ATOM      5  C   UNL     1       2.229   5.821  19.204  0.00  0.00    +0.000 A 
ATOM      6  C   UNL     1       1.776   6.575  20.293  0.00  0.00    +0.000 A 
ENDROOT
BRANCH   5   7
ATOM      7  S   UNL     1       2.341   4.056  19.348  0.00  0.00    +0.000 S 
ATOM      8  O   UNL     1       1.575   3.665  20.516  0.00  0.00    +0.000 OA
ATOM      9  O   UNL     1       2.079   3.487  18.044  0.00  0.00    +0.000 OA
BRANCH   7  10
ATOM     10  N   UNL     1       3.954   3.850  19.742  0.00  0.00    +0.000 N 
ATOM     11  H   UNL     1       4.148   3.891  20.743  0.00  0.00    +0.000 HD
BRANCH  10  12
ATOM     12  C   UNL     1       4.977   4.257  18.848  0.00  0.00    +0.000 A 
ATOM     13  C   UNL     1       4.952   3.818  17.509  0.00  0.00    +0.000 A 
ATOM     14  C   UNL     1       5.828   4.370  16.570  0.00  0.00    +0.000 A 
ATOM     15  C   UNL     1       6.652   5.384  17.002  0.00  0.00    +0.000 A 
ATOM     16  C   UNL     1       6.709   5.766  18.326  0.00  0.00    +0.000 A 
ATOM     17  C   UNL     1       5.920   5.184  19.289  0.00  0.00    +0.000 A 
ATOM     18  O   UNL     1       7.518   6.849  18.508  0.00  0.00    +0.000 OA
ATOM     19  C   UNL     1       7.639   7.277  17.135  0.00  0.00    +0.000 C 
ATOM     20  O   UNL     1       7.404   6.197  16.207  0.00  0.00    +0.000 OA
ENDBRANCH  10  12
ENDBRANCH   7  10
ENDBRANCH   5   7
BRANCH   1  21
ATOM     21  C   UNL     1       1.147   8.839  21.267  0.00  0.00    +0.000 C 
ATOM     22  O   UNL     1       1.722   8.779  22.354  0.00  0.00    +0.000 OA
BRANCH  21  23
ATOM     23  C   UNL     1      -0.072   9.719  21.021  0.00  0.00    +0.000 C 
BRANCH  23  24
ATOM     24  S   UNL     1       0.418  11.441  20.715  0.00  0.00    +0.000 S 
BRANCH  24  25
ATOM     25  C   UNL     1      -0.371  11.823  19.187  0.00  0.00    +0.000 C 
ATOM     26  S   UNL     1      -0.368  13.320  18.433  0.00  0.00    +0.000 S 
BRANCH  25  27
ATOM     27  S   UNL     1      -1.340  10.469  18.599  0.00  0.00    +0.000 S 
BRANCH  27  29
ATOM     28  C   UNL     1      -2.653  10.165  16.224  0.00  0.00    +0.000 C 
ATOM     29  C   UNL     1      -2.190  11.242  17.193  0.00  0.00    +0.000 C 
ENDBRANCH  27  29
ENDBRANCH  25  27
ENDBRANCH  24  25
ENDBRANCH  23  24
ENDBRANCH  21  23
ENDBRANCH   1  21
TORSDOF 9
ENDMDL
MODEL 4
REMARK VINA RESULT:      -7.0      4.554      9.581
REMARK  Name = 
REMARK  10 active torsions:
REMARK  status: ('A' for Active; 'I' for Inactive)
REMARK    1  A    between atoms: C_1  and  C_2
REMARK    2  A    between atoms: C_2  and  S_3
REMARK    3  A    between atoms: S_3  and  C_4
REMARK    4  A    between atoms: C_4  and  S_6
REMARK    5  A    between atoms: S_6  and  C_7
REMARK    6  A    between atoms: C_7  and  C_8
REMARK    7  A    between atoms: C_8  and  C_10
REMARK    8  A    between atoms: C_14  and  S_15
REMARK    9  A    between atoms: S_15  and  N_18
REMARK   10  A    between atoms: N_18  and  C_19
REMARK                            x       y       z     vdW  Elec       q    Type
REMARK                         _______ _______ _______ _____ _____    ______ ____
ROOT
ATOM      1  C   UNL     1       2.567   7.153  18.966  0.00  0.00    +0.000 A 
ATOM      2  C   UNL     1       2.394   7.949  17.819  0.00  0.00    +0.000 A 
ATOM      3  C   UNL     1       1.678   9.148  17.873  0.00  0.00    +0.000 A 
ATOM      4  C   UNL     1       1.134   9.573  19.078  0.00  0.00    +0.000 A 
ATOM      5  C   UNL     1       1.317   8.791  20.224  0.00  0.00    +0.000 A 
ATOM      6  C   UNL     1       2.010   7.576  20.175  0.00  0.00    +0.000 A 
ENDROOT
BRANCH   5   7
ATOM      7  S   UNL     1       0.653   9.357  21.769  0.00  0.00    +0.000 S 
ATOM      8  O   UNL     1      -0.582   8.633  22.004  0.00  0.00    +0.000 OA
ATOM      9  O   UNL     1       1.727   9.359  22.739  0.00  0.00    +0.000 OA
BRANCH   7  10
ATOM     10  N   UNL     1       0.223  10.931  21.397  0.00  0.00    +0.000 N 
ATOM     11  H   UNL     1       1.003  11.590  21.408  0.00  0.00    +0.000 HD
BRANCH  10  12
ATOM     12  C   UNL     1      -1.069  11.423  21.711  0.00  0.00    +0.000 A 
ATOM     13  C   UNL     1      -1.496  11.463  23.054  0.00  0.00    +0.000 A 
ATOM     14  C   UNL     1      -2.675  12.130  23.399  0.00  0.00    +0.000 A 
ATOM     15  C   UNL     1      -3.344  12.783  22.390  0.00  0.00    +0.000 A 
ATOM     16  C   UNL     1      -2.949  12.690  21.071  0.00  0.00    +0.000 A 
ATOM     17  C   UNL     1      -1.842  11.971  20.688  0.00  0.00    +0.000 A 
ATOM     18  O   UNL     1      -3.696  13.492  20.260  0.00  0.00    +0.000 OA
ATOM     19  C   UNL     1      -4.317  14.321  21.265  0.00  0.00    +0.000 C 
ATOM     20  O   UNL     1      -4.369  13.666  22.551  0.00  0.00    +0.000 OA
ENDBRANCH  10  12
ENDBRANCH   7  10
ENDBRANCH   5   7
BRANCH   1  21
ATOM     21  C   UNL     1       3.347   5.880  18.830  0.00  0.00    +0.000 C 
ATOM     22  O   UNL     1       3.913   5.444  19.833  0.00  0.00    +0.000 OA
BRANCH  21  23
ATOM     23  C   UNL     1       3.453   5.215  17.463  0.00  0.00    +0.000 C 
BRANCH  23  24
ATOM     24  S   UNL     1       4.539   3.761  17.528  0.00  0.00    +0.000 S 
BRANCH  24  25
ATOM     25  C   UNL     1       5.922   4.242  16.548  0.00  0.00    +0.000 C 
ATOM     26  S   UNL     1       6.057   4.051  14.888  0.00  0.00    +0.000 S 
BRANCH  25  27
ATOM     27  S   UNL     1       7.263   4.806  17.548  0.00  0.00    +0.000 S 
BRANCH  27  29
ATOM     28  C   UNL     1       8.004   7.328  18.289  0.00  0.00    +0.000 C 
ATOM     29  C   UNL     1       7.204   6.592  17.226  0.00  0.00    +0.000 C 
ENDBRANCH  27  29
ENDBRANCH  25  27
ENDBRANCH  24  25
ENDBRANCH  23  24
ENDBRANCH  21  23
ENDBRANCH   1  21
TORSDOF 9
ENDMDL
MODEL 5
REMARK VINA RESULT:      -7.0      4.481      9.174
REMARK  Name = 
REMARK  10 active torsions:
REMARK  status: ('A' for Active; 'I' for Inactive)
REMARK    1  A    between atoms: C_1  and  C_2
REMARK    2  A    between atoms: C_2  and  S_3
REMARK    3  A    between atoms: S_3  and  C_4
REMARK    4  A    between atoms: C_4  and  S_6
REMARK    5  A    between atoms: S_6  and  C_7
REMARK    6  A    between atoms: C_7  and  C_8
REMARK    7  A    between atoms: C_8  and  C_10
REMARK    8  A    between atoms: C_14  and  S_15
REMARK    9  A    between atoms: S_15  and  N_18
REMARK   10  A    between atoms: N_18  and  C_19
REMARK                            x       y       z     vdW  Elec       q    Type
REMARK                         _______ _______ _______ _____ _____    ______ ____
ROOT
ATOM      1  C   UNL     1       2.517   7.367  18.744  0.00  0.00    +0.000 A 
ATOM      2  C   UNL     1       2.500   8.320  17.711  0.00  0.00    +0.000 A 
ATOM      3  C   UNL     1       1.811   9.528  17.853  0.00  0.00    +0.000 A 
ATOM      4  C   UNL     1       1.137   9.802  19.036  0.00  0.00    +0.000 A 
ATOM      5  C   UNL     1       1.164   8.862  20.071  0.00  0.00    +0.000 A 
ATOM      6  C   UNL     1       1.829   7.638  19.929  0.00  0.00    +0.000 A 
ENDROOT
BRANCH   5   7
ATOM      7  S   UNL     1       0.333   9.233  21.595  0.00  0.00    +0.000 S 
ATOM      8  O   UNL     1      -0.577   8.138  21.874  0.00  0.00    +0.000 OA
ATOM      9  O   UNL     1       1.333   9.652  22.554  0.00  0.00    +0.000 OA
BRANCH   7  10
ATOM     10  N   UNL     1      -0.612  10.542  21.156  0.00  0.00    +0.000 N 
ATOM     11  H   UNL     1      -0.930  10.521  20.186  0.00  0.00    +0.000 HD
BRANCH  10  12
ATOM     12  C   UNL     1      -0.428  11.808  21.768  0.00  0.00    +0.000 A 
ATOM     13  C   UNL     1       0.457  12.742  21.193  0.00  0.00    +0.000 A 
ATOM     14  C   UNL     1       0.496  14.058  21.662  0.00  0.00    +0.000 A 
ATOM     15  C   UNL     1      -0.401  14.398  22.648  0.00  0.00    +0.000 A 
ATOM     16  C   UNL     1      -1.222  13.464  23.244  0.00  0.00    +0.000 A 
ATOM     17  C   UNL     1      -1.223  12.143  22.863  0.00  0.00    +0.000 A 
ATOM     18  O   UNL     1      -2.092  14.039  24.123  0.00  0.00    +0.000 OA
ATOM     19  C   UNL     1      -1.946  15.417  23.721  0.00  0.00    +0.000 C 
ATOM     20  O   UNL     1      -0.678  15.662  23.075  0.00  0.00    +0.000 OA
ENDBRANCH  10  12
ENDBRANCH   7  10
ENDBRANCH   5   7
BRANCH   1  21
ATOM     21  C   UNL     1       3.277   6.094  18.519  0.00  0.00    +0.000 C 
ATOM     22  O   UNL     1       3.140   5.528  17.433  0.00  0.00    +0.000 OA
BRANCH  21  23
ATOM     23  C   UNL     1       4.134   5.530  19.645  0.00  0.00    +0.000 C 
BRANCH  23  24
ATOM     24  S   UNL     1       5.024   4.042  19.106  0.00  0.00    +0.000 S 
BRANCH  24  25
ATOM     25  C   UNL     1       3.850   2.753  19.356  0.00  0.00    +0.000 C 
ATOM     26  S   UNL     1       3.277   1.709  18.176  0.00  0.00    +0.000 S 
BRANCH  25  27
ATOM     27  S   UNL     1       3.186   2.786  20.993  0.00  0.00    +0.000 S 
BRANCH  27  29
ATOM     28  C   UNL     1       0.853   3.985  20.235  0.00  0.00    +0.000 C 
ATOM     29  C   UNL     1       1.411   2.632  20.646  0.00  0.00    +0.000 C 
ENDBRANCH  27  29
ENDBRANCH  25  27
ENDBRANCH  24  25
ENDBRANCH  23  24
ENDBRANCH  21  23
ENDBRANCH   1  21
TORSDOF 9
ENDMDL
MODEL 6
REMARK VINA RESULT:      -6.9      1.169      1.855
REMARK  Name = 
REMARK  10 active torsions:
REMARK  status: ('A' for Active; 'I' for Inactive)
REMARK    1  A    between atoms: C_1  and  C_2
REMARK    2  A    between atoms: C_2  and  S_3
REMARK    3  A    between atoms: S_3  and  C_4
REMARK    4  A    between atoms: C_4  and  S_6
REMARK    5  A    between atoms: S_6  and  C_7
REMARK    6  A    between atoms: C_7  and  C_8
REMARK    7  A    between atoms: C_8  and  C_10
REMARK    8  A    between atoms: C_14  and  S_15
REMARK    9  A    between atoms: S_15  and  N_18
REMARK   10  A    between atoms: N_18  and  C_19
REMARK                            x       y       z     vdW  Elec       q    Type
REMARK                         _______ _______ _______ _____ _____    ______ ____
ROOT
ATOM      1  C   UNL     1       2.172   7.149  18.642  0.00  0.00    +0.000 A 
ATOM      2  C   UNL     1       2.008   7.212  20.037  0.00  0.00    +0.000 A 
ATOM      3  C   UNL     1       1.984   6.052  20.816  0.00  0.00    +0.000 A 
ATOM      4  C   UNL     1       2.134   4.812  20.210  0.00  0.00    +0.000 A 
ATOM      5  C   UNL     1       2.312   4.746  18.823  0.00  0.00    +0.000 A 
ATOM      6  C   UNL     1       2.311   5.900  18.032  0.00  0.00    +0.000 A 
ENDROOT
BRANCH   5   7
ATOM      7  S   UNL     1       2.541   3.161  18.058  0.00  0.00    +0.000 S 
ATOM      8  O   UNL     1       1.793   2.190  18.834  0.00  0.00    +0.000 OA
ATOM      9  O   UNL     1       2.329   3.321  16.636  0.00  0.00    +0.000 OA
BRANCH   7  10
ATOM     10  N   UNL     1       4.161   2.870  18.359  0.00  0.00    +0.000 N 
ATOM     11  H   UNL     1       4.347   2.452  19.272  0.00  0.00    +0.000 HD
BRANCH  10  12
ATOM     12  C   UNL     1       5.164   3.692  17.786  0.00  0.00    +0.000 A 
ATOM     13  C   UNL     1       5.220   3.855  16.387  0.00  0.00    +0.000 A 
ATOM     14  C   UNL     1       6.065   4.815  15.823  0.00  0.00    +0.000 A 
ATOM     15  C   UNL     1       6.774   5.613  16.690  0.00  0.00    +0.000 A 
ATOM     16  C   UNL     1       6.757   5.407  18.054  0.00  0.00    +0.000 A 
ATOM     17  C   UNL     1       6.001   4.416  18.634  0.00  0.00    +0.000 A 
ATOM     18  O   UNL     1       7.451   6.371  18.722  0.00  0.00    +0.000 OA
ATOM     19  C   UNL     1       7.569   7.345  17.663  0.00  0.00    +0.000 C 
ATOM     20  O   UNL     1       7.466   6.739  16.357  0.00  0.00    +0.000 OA
ENDBRANCH  10  12
ENDBRANCH   7  10
ENDBRANCH   5   7
BRANCH   1  21
ATOM     21  C   UNL     1       2.188   8.436  17.874  0.00  0.00    +0.000 C 
ATOM     22  O   UNL     1       3.208   8.716  17.244  0.00  0.00    +0.000 OA
BRANCH  21  23
ATOM     23  C   UNL     1       0.979   9.361  17.947  0.00  0.00    +0.000 C 
BRANCH  23  24
ATOM     24  S   UNL     1       1.396  10.914  18.790  0.00  0.00    +0.000 S 
BRANCH  24  25
ATOM     25  C   UNL     1      -0.141  11.429  19.479  0.00  0.00    +0.000 C 
ATOM     26  S   UNL     1      -1.470  11.969  18.611  0.00  0.00    +0.000 S 
BRANCH  25  27
ATOM     27  S   UNL     1      -0.077  11.484  21.243  0.00  0.00    +0.000 S 
BRANCH  27  29
ATOM     28  C   UNL     1      -0.903  13.963  22.034  0.00  0.00    +0.000 C 
ATOM     29  C   UNL     1       0.326  13.232  21.517  0.00  0.00    +0.000 C 
ENDBRANCH  27  29
ENDBRANCH  25  27
ENDBRANCH  24  25
ENDBRANCH  23  24
ENDBRANCH  21  23
ENDBRANCH   1  21
TORSDOF 9
ENDMDL
MODEL 7
REMARK VINA RESULT:      -6.9      1.470      2.447
REMARK  Name = 
REMARK  10 active torsions:
REMARK  status: ('A' for Active; 'I' for Inactive)
REMARK    1  A    between atoms: C_1  and  C_2
REMARK    2  A    between atoms: C_2  and  S_3
REMARK    3  A    between atoms: S_3  and  C_4
REMARK    4  A    between atoms: C_4  and  S_6
REMARK    5  A    between atoms: S_6  and  C_7
REMARK    6  A    between atoms: C_7  and  C_8
REMARK    7  A    between atoms: C_8  and  C_10
REMARK    8  A    between atoms: C_14  and  S_15
REMARK    9  A    between atoms: S_15  and  N_18
REMARK   10  A    between atoms: N_18  and  C_19
REMARK                            x       y       z     vdW  Elec       q    Type
REMARK                         _______ _______ _______ _____ _____    ______ ____
ROOT
ATOM      1  C   UNL     1       2.257   7.019  18.712  0.00  0.00    +0.000 A 
ATOM      2  C   UNL     1       1.998   7.192  20.083  0.00  0.00    +0.000 A 
ATOM      3  C   UNL     1       1.906   6.095  20.945  0.00  0.00    +0.000 A 
ATOM      4  C   UNL     1       2.082   4.811  20.449  0.00  0.00    +0.000 A 
ATOM      5  C   UNL     1       2.354   4.636  19.087  0.00  0.00    +0.000 A 
ATOM      6  C   UNL     1       2.423   5.725  18.211  0.00  0.00    +0.000 A 
ENDROOT
BRANCH   5   7
ATOM      7  S   UNL     1       2.616   2.995  18.465  0.00  0.00    +0.000 S 
ATOM      8  O   UNL     1       2.186   2.066  19.492  0.00  0.00    +0.000 OA
ATOM      9  O   UNL     1       2.083   2.941  17.120  0.00  0.00    +0.000 OA
BRANCH   7  10
ATOM     10  N   UNL     1       4.287   2.914  18.413  0.00  0.00    +0.000 N 
ATOM     11  H   UNL     1       4.714   2.560  19.270  0.00  0.00    +0.000 HD
BRANCH  10  12
ATOM     12  C   UNL     1       5.033   3.826  17.625  0.00  0.00    +0.000 A 
ATOM     13  C   UNL     1       6.019   4.632  18.231  0.00  0.00    +0.000 A 
ATOM     14  C   UNL     1       6.898   5.381  17.444  0.00  0.00    +0.000 A 
ATOM     15  C   UNL     1       6.792   5.242  16.080  0.00  0.00    +0.000 A 
ATOM     16  C   UNL     1       5.789   4.496  15.496  0.00  0.00    +0.000 A 
ATOM     17  C   UNL     1       4.856   3.816  16.242  0.00  0.00    +0.000 A 
ATOM     18  O   UNL     1       5.934   4.420  14.143  0.00  0.00    +0.000 OA
ATOM     19  C   UNL     1       7.298   4.881  14.033  0.00  0.00    +0.000 C 
ATOM     20  O   UNL     1       7.686   5.698  15.157  0.00  0.00    +0.000 OA
ENDBRANCH  10  12
ENDBRANCH   7  10
ENDBRANCH   5   7
BRANCH   1  21
ATOM     21  C   UNL     1       2.342   8.242  17.850  0.00  0.00    +0.000 C 
ATOM     22  O   UNL     1       3.358   8.397  17.171  0.00  0.00    +0.000 OA
BRANCH  21  23
ATOM     23  C   UNL     1       1.208   9.259  17.888  0.00  0.00    +0.000 C 
BRANCH  23  24
ATOM     24  S   UNL     1       1.836  10.923  18.259  0.00  0.00    +0.000 S 
BRANCH  24  25
ATOM     25  C   UNL     1       0.569  11.621  19.264  0.00  0.00    +0.000 C 
ATOM     26  S   UNL     1      -1.069  11.627  18.909  0.00  0.00    +0.000 S 
BRANCH  25  27
ATOM     27  S   UNL     1       1.242  12.494  20.644  0.00  0.00    +0.000 S 
BRANCH  27  29
ATOM     28  C   UNL     1       1.333  14.680  19.009  0.00  0.00    +0.000 C 
ATOM     29  C   UNL     1       0.678  14.183  20.288  0.00  0.00    +0.000 C 
ENDBRANCH  27  29
ENDBRANCH  25  27
ENDBRANCH  24  25
ENDBRANCH  23  24
ENDBRANCH  21  23
ENDBRANCH   1  21
TORSDOF 9
ENDMDL
MODEL 8
REMARK VINA RESULT:      -6.9      3.905      9.081
REMARK  Name = 
REMARK  10 active torsions:
REMARK  status: ('A' for Active; 'I' for Inactive)
REMARK    1  A    between atoms: C_1  and  C_2
REMARK    2  A    between atoms: C_2  and  S_3
REMARK    3  A    between atoms: S_3  and  C_4
REMARK    4  A    between atoms: C_4  and  S_6
REMARK    5  A    between atoms: S_6  and  C_7
REMARK    6  A    between atoms: C_7  and  C_8
REMARK    7  A    between atoms: C_8  and  C_10
REMARK    8  A    between atoms: C_14  and  S_15
REMARK    9  A    between atoms: S_15  and  N_18
REMARK   10  A    between atoms: N_18  and  C_19
REMARK                            x       y       z     vdW  Elec       q    Type
REMARK                         _______ _______ _______ _____ _____    ______ ____
ROOT
ATOM      1  C   UNL     1       2.376   6.849  19.284  0.00  0.00    +0.000 A 
ATOM      2  C   UNL     1       2.858   7.319  18.049  0.00  0.00    +0.000 A 
ATOM      3  C   UNL     1       2.573   8.614  17.608  0.00  0.00    +0.000 A 
ATOM      4  C   UNL     1       1.811   9.461  18.402  0.00  0.00    +0.000 A 
ATOM      5  C   UNL     1       1.342   9.001  19.638  0.00  0.00    +0.000 A 
ATOM      6  C   UNL     1       1.600   7.697  20.077  0.00  0.00    +0.000 A 
ENDROOT
BRANCH   5   7
ATOM      7  S   UNL     1       0.401  10.100  20.665  0.00  0.00    +0.000 S 
ATOM      8  O   UNL     1      -0.824   9.413  21.030  0.00  0.00    +0.000 OA
ATOM      9  O   UNL     1       1.293  10.643  21.667  0.00  0.00    +0.000 OA
BRANCH   7  10
ATOM     10  N   UNL     1      -0.026  11.298  19.579  0.00  0.00    +0.000 N 
ATOM     11  H   UNL     1       0.409  12.203  19.763  0.00  0.00    +0.000 HD
BRANCH  10  12
ATOM     12  C   UNL     1      -1.296  11.287  18.948  0.00  0.00    +0.000 A 
ATOM     13  C   UNL     1      -1.583  10.316  17.968  0.00  0.00    +0.000 A 
ATOM     14  C   UNL     1      -2.886  10.161  17.488  0.00  0.00    +0.000 A 
ATOM     15  C   UNL     1      -3.861  10.947  18.058  0.00  0.00    +0.000 A 
ATOM     16  C   UNL     1      -3.562  11.933  18.975  0.00  0.00    +0.000 A 
ATOM     17  C   UNL     1      -2.277  12.167  19.404  0.00  0.00    +0.000 A 
ATOM     18  O   UNL     1      -4.686  12.518  19.476  0.00  0.00    +0.000 OA
ATOM     19  C   UNL     1      -5.663  11.549  19.041  0.00  0.00    +0.000 C 
ATOM     20  O   UNL     1      -5.205  10.795  17.899  0.00  0.00    +0.000 OA
ENDBRANCH  10  12
ENDBRANCH   7  10
ENDBRANCH   5   7
BRANCH   1  21
ATOM     21  C   UNL     1       2.723   5.447  19.690  0.00  0.00    +0.000 C 
ATOM     22  O   UNL     1       2.570   5.138  20.872  0.00  0.00    +0.000 OA
BRANCH  21  23
ATOM     23  C   UNL     1       3.294   4.492  18.649  0.00  0.00    +0.000 C 
BRANCH  23  24
ATOM     24  S   UNL     1       4.952   3.923  19.126  0.00  0.00    +0.000 S 
BRANCH  24  25
ATOM     25  C   UNL     1       6.022   4.928  18.153  0.00  0.00    +0.000 C 
ATOM     26  S   UNL     1       7.409   5.694  18.699  0.00  0.00    +0.000 S 
BRANCH  25  27
ATOM     27  S   UNL     1       5.370   5.193  16.533  0.00  0.00    +0.000 S 
BRANCH  27  29
ATOM     28  C   UNL     1       6.016   4.052  14.138  0.00  0.00    +0.000 C 
ATOM     29  C   UNL     1       6.107   3.799  15.634  0.00  0.00    +0.000 C 
ENDBRANCH  27  29
ENDBRANCH  25  27
ENDBRANCH  24  25
ENDBRANCH  23  24
ENDBRANCH  21  23
ENDBRANCH   1  21
TORSDOF 9
ENDMDL
MODEL 9
REMARK VINA RESULT:      -6.9      1.252      1.890
REMARK  Name = 
REMARK  10 active torsions:
REMARK  status: ('A' for Active; 'I' for Inactive)
REMARK    1  A    between atoms: C_1  and  C_2
REMARK    2  A    between atoms: C_2  and  S_3
REMARK    3  A    between atoms: S_3  and  C_4
REMARK    4  A    between atoms: C_4  and  S_6
REMARK    5  A    between atoms: S_6  and  C_7
REMARK    6  A    between atoms: C_7  and  C_8
REMARK    7  A    between atoms: C_8  and  C_10
REMARK    8  A    between atoms: C_14  and  S_15
REMARK    9  A    between atoms: S_15  and  N_18
REMARK   10  A    between atoms: N_18  and  C_19
REMARK                            x       y       z     vdW  Elec       q    Type
REMARK                         _______ _______ _______ _____ _____    ______ ____
ROOT
ATOM      1  C   UNL     1       2.169   6.577  19.197  0.00  0.00    +0.000 A 
ATOM      2  C   UNL     1       1.884   6.431  20.566  0.00  0.00    +0.000 A 
ATOM      3  C   UNL     1       1.825   5.169  21.162  0.00  0.00    +0.000 A 
ATOM      4  C   UNL     1       2.062   4.034  20.398  0.00  0.00    +0.000 A 
ATOM      5  C   UNL     1       2.360   4.176  19.038  0.00  0.00    +0.000 A 
ATOM      6  C   UNL     1       2.395   5.434  18.426  0.00  0.00    +0.000 A 
ENDROOT
BRANCH   5   7
ATOM      7  S   UNL     1       2.699   2.725  18.075  0.00  0.00    +0.000 S 
ATOM      8  O   UNL     1       2.276   1.576  18.853  0.00  0.00    +0.000 OA
ATOM      9  O   UNL     1       2.204   2.957  16.735  0.00  0.00    +0.000 OA
BRANCH   7  10
ATOM     10  N   UNL     1       4.372   2.707  18.065  0.00  0.00    +0.000 N 
ATOM     11  H   UNL     1       4.791   2.336  18.918  0.00  0.00    +0.000 HD
BRANCH  10  12
ATOM     12  C   UNL     1       5.103   3.676  17.331  0.00  0.00    +0.000 A 
ATOM     13  C   UNL     1       6.023   4.511  17.997  0.00  0.00    +0.000 A 
ATOM     14  C   UNL     1       6.895   5.322  17.267  0.00  0.00    +0.000 A 
ATOM     15  C   UNL     1       6.849   5.217  15.896  0.00  0.00    +0.000 A 
ATOM     16  C   UNL     1       5.907   4.440  15.253  0.00  0.00    +0.000 A 
ATOM     17  C   UNL     1       4.981   3.696  15.942  0.00  0.00    +0.000 A 
ATOM     18  O   UNL     1       6.110   4.409  13.905  0.00  0.00    +0.000 OA
ATOM     19  C   UNL     1       7.452   4.938  13.862  0.00  0.00    +0.000 C 
ATOM     20  O   UNL     1       7.755   5.741  15.022  0.00  0.00    +0.000 OA
ENDBRANCH  10  12
ENDBRANCH   7  10
ENDBRANCH   5   7
BRANCH   1  21
ATOM     21  C   UNL     1       2.214   7.963  18.628  0.00  0.00    +0.000 C 
ATOM     22  O   UNL     1       2.893   8.147  17.617  0.00  0.00    +0.000 OA
BRANCH  21  23
ATOM     23  C   UNL     1       1.474   9.085  19.346  0.00  0.00    +0.000 C 
BRANCH  23  24
ATOM     24  S   UNL     1       0.423  10.015  18.193  0.00  0.00    +0.000 S 
BRANCH  24  25
ATOM     25  C   UNL     1       0.048  11.489  19.081  0.00  0.00    +0.000 C 
ATOM     26  S   UNL     1       1.169  12.515  19.790  0.00  0.00    +0.000 S 
BRANCH  25  27
ATOM     27  S   UNL     1      -1.692  11.689  19.304  0.00  0.00    +0.000 S 
BRANCH  27  29
ATOM     28  C   UNL     1      -3.809  11.470  17.593  0.00  0.00    +0.000 C 
ATOM     29  C   UNL     1      -2.292  11.376  17.620  0.00  0.00    +0.000 C 
ENDBRANCH  27  29
ENDBRANCH  25  27
ENDBRANCH  24  25
ENDBRANCH  23  24
ENDBRANCH  21  23
ENDBRANCH   1  21
TORSDOF 9
ENDMDL
