MODEL 1
REMARK VINA RESULT:      -6.4      0.000      0.000
REMARK  Name = 
REMARK  6 active torsions:
REMARK  status: ('A' for Active; 'I' for Inactive)
REMARK    1  A    between atoms: C_1  and  C_2
REMARK    2  A    between atoms: C_2  and  N_3
REMARK    3  A    between atoms: C_4  and  C_5
REMARK    4  A    between atoms: C_7  and  N_8
REMARK    5  A    between atoms: C_11  and  S_12
REMARK    6  A    between atoms: S_12  and  C_13
REMARK                            x       y       z     vdW  Elec       q    Type
REMARK                         _______ _______ _______ _____ _____    ______ ____
ROOT
ATOM      1  N   UNL     1       4.026   3.914  17.994  0.00  0.00    +0.000 N 
ATOM      2  C   UNL     1       4.346   3.323  19.213  0.00  0.00    +0.000 A 
ATOM      3  C   UNL     1       3.501   2.346  19.947  0.00  0.00    +0.000 C 
ATOM      4  N   UNL     1       5.506   3.759  19.657  0.00  0.00    +0.000 NA
ATOM      5  C   UNL     1       5.928   4.705  18.748  0.00  0.00    +0.000 A 
ATOM      6  C   UNL     1       5.020   4.838  17.713  0.00  0.00    +0.000 A 
ENDROOT
BRANCH   5   7
ATOM      7  N   UNL     1       7.149   5.444  19.011  0.00  0.00    +0.000 N 
ATOM      8  O   UNL     1       7.707   5.990  18.049  0.00  0.00    +0.000 OA
ATOM      9  O   UNL     1       7.554   5.483  20.181  0.00  0.00    +0.000 OA
ENDBRANCH   5   7
BRANCH   1  11
ATOM     10  C   UNL     1       1.603   4.481  17.712  0.00  0.00    +0.000 C 
ATOM     11  C   UNL     1       2.802   3.661  17.248  0.00  0.00    +0.000 C 
ENDBRANCH   1  11
BRANCH   6  12
ATOM     12  S   UNL     1       4.929   6.002  16.421  0.00  0.00    +0.000 S 
BRANCH  12  13
ATOM     13  C   UNL     1       5.813   5.176  15.188  0.00  0.00    +0.000 A 
ATOM     14  N   UNL     1       5.373   4.281  14.338  0.00  0.00    +0.000 NA
ATOM     15  C   UNL     1       6.415   4.078  13.465  0.00  0.00    +0.000 A 
ATOM     16  C   UNL     1       7.497   4.857  13.804  0.00  0.00    +0.000 A 
ATOM     17  N   UNL     1       7.098   5.548  14.916  0.00  0.00    +0.000 N 
ATOM     18  H   UNL     1       7.629   6.234  15.434  0.00  0.00    +0.000 HD
ENDBRANCH  12  13
ENDBRANCH   6  12
TORSDOF 4
ENDMDL
MODEL 2
REMARK VINA RESULT:      -6.3      1.113      1.329
REMARK  Name = 
REMARK  6 active torsions:
REMARK  status: ('A' for Active; 'I' for Inactive)
REMARK    1  A    between atoms: C_1  and  C_2
REMARK    2  A    between atoms: C_2  and  N_3
REMARK    3  A    between atoms: C_4  and  C_5
REMARK    4  A    between atoms: C_7  and  N_8
REMARK    5  A    between atoms: C_11  and  S_12
REMARK    6  A    between atoms: S_12  and  C_13
REMARK                            x       y       z     vdW  Elec       q    Type
REMARK                         _______ _______ _______ _____ _____    ______ ____
ROOT
ATOM      1  N   UNL     1       3.957   4.992  18.162  0.00  0.00    +0.000 N 
ATOM      2  C   UNL     1       4.233   4.275  19.323  0.00  0.00    +0.000 A 
ATOM      3  C   UNL     1       3.230   3.842  20.330  0.00  0.00    +0.000 C 
ATOM      4  N   UNL     1       5.523   4.038  19.434  0.00  0.00    +0.000 NA
ATOM      5  C   UNL     1       6.117   4.667  18.362  0.00  0.00    +0.000 A 
ATOM      6  C   UNL     1       5.172   5.285  17.564  0.00  0.00    +0.000 A 
ENDROOT
BRANCH   5   7
ATOM      7  N   UNL     1       7.565   4.665  18.253  0.00  0.00    +0.000 N 
ATOM      8  O   UNL     1       8.213   5.123  19.205  0.00  0.00    +0.000 OA
ATOM      9  O   UNL     1       8.061   4.203  17.215  0.00  0.00    +0.000 OA
ENDBRANCH   5   7
BRANCH   1  11
ATOM     10  C   UNL     1       2.259   6.831  18.231  0.00  0.00    +0.000 C 
ATOM     11  C   UNL     1       2.630   5.431  17.756  0.00  0.00    +0.000 C 
ENDBRANCH   1  11
BRANCH   6  12
ATOM     12  S   UNL     1       5.356   6.379  16.221  0.00  0.00    +0.000 S 
BRANCH  12  13
ATOM     13  C   UNL     1       5.976   5.305  15.019  0.00  0.00    +0.000 A 
ATOM     14  N   UNL     1       5.349   4.336  14.398  0.00  0.00    +0.000 NA
ATOM     15  C   UNL     1       6.223   3.914  13.425  0.00  0.00    +0.000 A 
ATOM     16  C   UNL     1       7.393   4.636  13.472  0.00  0.00    +0.000 A 
ATOM     17  N   UNL     1       7.223   5.516  14.505  0.00  0.00    +0.000 N 
ATOM     18  H   UNL     1       7.873   6.221  14.823  0.00  0.00    +0.000 HD
ENDBRANCH  12  13
ENDBRANCH   6  12
TORSDOF 4
ENDMDL
MODEL 3
REMARK VINA RESULT:      -6.1      3.226      4.042
REMARK  Name = 
REMARK  6 active torsions:
REMARK  status: ('A' for Active; 'I' for Inactive)
REMARK    1  A    between atoms: C_1  and  C_2
REMARK    2  A    between atoms: C_2  and  N_3
REMARK    3  A    between atoms: C_4  and  C_5
REMARK    4  A    between atoms: C_7  and  N_8
REMARK    5  A    between atoms: C_11  and  S_12
REMARK    6  A    between atoms: S_12  and  C_13
REMARK                            x       y       z     vdW  Elec       q    Type
REMARK                         _______ _______ _______ _____ _____    ______ ____
ROOT
ATOM      1  N   UNL     1       3.308   3.761  19.803  0.00  0.00    +0.000 N 
ATOM      2  C   UNL     1       2.324   3.945  20.770  0.00  0.00    +0.000 A 
ATOM      3  C   UNL     1       1.776   2.887  21.658  0.00  0.00    +0.000 C 
ATOM      4  N   UNL     1       1.911   5.195  20.789  0.00  0.00    +0.000 NA
ATOM      5  C   UNL     1       2.588   5.833  19.772  0.00  0.00    +0.000 A 
ATOM      6  C   UNL     1       3.449   4.963  19.128  0.00  0.00    +0.000 A 
ENDROOT
BRANCH   5   7
ATOM      7  N   UNL     1       2.279   7.220  19.477  0.00  0.00    +0.000 N 
ATOM      8  O   UNL     1       2.476   7.618  18.320  0.00  0.00    +0.000 OA
ATOM      9  O   UNL     1       1.836   7.917  20.401  0.00  0.00    +0.000 OA
ENDBRANCH   5   7
BRANCH   1  11
ATOM     10  C   UNL     1       3.291   1.684  18.403  0.00  0.00    +0.000 C 
ATOM     11  C   UNL     1       3.956   2.490  19.514  0.00  0.00    +0.000 C 
ENDBRANCH   1  11
BRANCH   6  12
ATOM     12  S   UNL     1       4.383   5.156  17.670  0.00  0.00    +0.000 S 
BRANCH  12  13
ATOM     13  C   UNL     1       5.902   5.647  18.329  0.00  0.00    +0.000 A 
ATOM     14  N   UNL     1       6.566   5.107  19.321  0.00  0.00    +0.000 NA
ATOM     15  C   UNL     1       7.780   5.752  19.327  0.00  0.00    +0.000 A 
ATOM     16  C   UNL     1       7.837   6.697  18.330  0.00  0.00    +0.000 A 
ATOM     17  N   UNL     1       6.622   6.624  17.705  0.00  0.00    +0.000 N 
ATOM     18  H   UNL     1       6.310   7.161  16.908  0.00  0.00    +0.000 HD
ENDBRANCH  12  13
ENDBRANCH   6  12
TORSDOF 4
ENDMDL
MODEL 4
REMARK VINA RESULT:      -6.0      2.982      5.849
REMARK  Name = 
REMARK  6 active torsions:
REMARK  status: ('A' for Active; 'I' for Inactive)
REMARK    1  A    between atoms: C_1  and  C_2
REMARK    2  A    between atoms: C_2  and  N_3
REMARK    3  A    between atoms: C_4  and  C_5
REMARK    4  A    between atoms: C_7  and  N_8
REMARK    5  A    between atoms: C_11  and  S_12
REMARK    6  A    between atoms: S_12  and  C_13
REMARK                            x       y       z     vdW  Elec       q    Type
REMARK                         _______ _______ _______ _____ _____    ______ ____
ROOT
ATOM      1  N   UNL     1       5.672   5.192  17.539  0.00  0.00    +0.000 N 
ATOM      2  C   UNL     1       5.813   4.488  16.347  0.00  0.00    +0.000 A 
ATOM      3  C   UNL     1       6.910   4.669  15.361  0.00  0.00    +0.000 C 
ATOM      4  N   UNL     1       4.822   3.637  16.182  0.00  0.00    +0.000 NA
ATOM      5  C   UNL     1       3.977   3.829  17.253  0.00  0.00    +0.000 A 
ATOM      6  C   UNL     1       4.468   4.803  18.105  0.00  0.00    +0.000 A 
ENDROOT
BRANCH   5   7
ATOM      7  N   UNL     1       2.728   3.092  17.312  0.00  0.00    +0.000 N 
ATOM      8  O   UNL     1       2.786   1.887  17.594  0.00  0.00    +0.000 OA
ATOM      9  O   UNL     1       1.683   3.716  17.077  0.00  0.00    +0.000 OA
ENDBRANCH   5   7
BRANCH   1  11
ATOM     10  C   UNL     1       7.663   5.718  18.965  0.00  0.00    +0.000 C 
ATOM     11  C   UNL     1       6.589   6.221  18.006  0.00  0.00    +0.000 C 
ENDBRANCH   1  11
BRANCH   6  12
ATOM     12  S   UNL     1       3.738   5.590  19.476  0.00  0.00    +0.000 S 
BRANCH  12  13
ATOM     13  C   UNL     1       2.878   4.268  20.180  0.00  0.00    +0.000 A 
ATOM     14  N   UNL     1       3.368   3.225  20.805  0.00  0.00    +0.000 NA
ATOM     15  C   UNL     1       2.272   2.576  21.322  0.00  0.00    +0.000 A 
ATOM     16  C   UNL     1       1.111   3.236  20.993  0.00  0.00    +0.000 A 
ATOM     17  N   UNL     1       1.516   4.313  20.253  0.00  0.00    +0.000 N 
ATOM     18  H   UNL     1       0.933   5.036  19.855  0.00  0.00    +0.000 HD
ENDBRANCH  12  13
ENDBRANCH   6  12
TORSDOF 4
ENDMDL
MODEL 5
REMARK VINA RESULT:      -6.0      2.684      3.653
REMARK  Name = 
REMARK  6 active torsions:
REMARK  status: ('A' for Active; 'I' for Inactive)
REMARK    1  A    between atoms: C_1  and  C_2
REMARK    2  A    between atoms: C_2  and  N_3
REMARK    3  A    between atoms: C_4  and  C_5
REMARK    4  A    between atoms: C_7  and  N_8
REMARK    5  A    between atoms: C_11  and  S_12
REMARK    6  A    between atoms: S_12  and  C_13
REMARK                            x       y       z     vdW  Elec       q    Type
REMARK                         _______ _______ _______ _____ _____    ______ ____
ROOT
ATOM      1  N   UNL     1       2.679   5.142  18.597  0.00  0.00    +0.000 N 
ATOM      2  C   UNL     1       2.319   4.919  19.923  0.00  0.00    +0.000 A 
ATOM      3  C   UNL     1       1.538   5.852  20.775  0.00  0.00    +0.000 C 
ATOM      4  N   UNL     1       2.781   3.762  20.347  0.00  0.00    +0.000 NA
ATOM      5  C   UNL     1       3.516   3.242  19.304  0.00  0.00    +0.000 A 
ATOM      6  C   UNL     1       3.488   4.086  18.209  0.00  0.00    +0.000 A 
ENDROOT
BRANCH   5   7
ATOM      7  N   UNL     1       4.238   1.997  19.497  0.00  0.00    +0.000 N 
ATOM      8  O   UNL     1       5.142   1.984  20.345  0.00  0.00    +0.000 OA
ATOM      9  O   UNL     1       3.903   1.027  18.802  0.00  0.00    +0.000 OA
ENDBRANCH   5   7
BRANCH   1  11
ATOM     10  C   UNL     1       3.330   7.486  18.003  0.00  0.00    +0.000 C 
ATOM     11  C   UNL     1       2.341   6.338  17.838  0.00  0.00    +0.000 C 
ENDBRANCH   1  11
BRANCH   6  12
ATOM     12  S   UNL     1       4.386   4.046  16.717  0.00  0.00    +0.000 S 
BRANCH  12  13
ATOM     13  C   UNL     1       5.855   4.809  17.211  0.00  0.00    +0.000 A 
ATOM     14  N   UNL     1       6.325   5.975  16.842  0.00  0.00    +0.000 NA
ATOM     15  C   UNL     1       7.415   6.190  17.651  0.00  0.00    +0.000 A 
ATOM     16  C   UNL     1       7.604   5.132  18.509  0.00  0.00    +0.000 A 
ATOM     17  N   UNL     1       6.601   4.251  18.208  0.00  0.00    +0.000 N 
ATOM     18  H   UNL     1       6.412   3.363  18.652  0.00  0.00    +0.000 HD
ENDBRANCH  12  13
ENDBRANCH   6  12
TORSDOF 4
ENDMDL
MODEL 6
REMARK VINA RESULT:      -5.9      2.224      2.875
REMARK  Name = 
REMARK  6 active torsions:
REMARK  status: ('A' for Active; 'I' for Inactive)
REMARK    1  A    between atoms: C_1  and  C_2
REMARK    2  A    between atoms: C_2  and  N_3
REMARK    3  A    between atoms: C_4  and  C_5
REMARK    4  A    between atoms: C_7  and  N_8
REMARK    5  A    between atoms: C_11  and  S_12
REMARK    6  A    between atoms: S_12  and  C_13
REMARK                            x       y       z     vdW  Elec       q    Type
REMARK                         _______ _______ _______ _____ _____    ______ ____
ROOT
ATOM      1  N   UNL     1       3.540   3.781  18.932  0.00  0.00    +0.000 N 
ATOM      2  C   UNL     1       2.231   4.154  18.638  0.00  0.00    +0.000 A 
ATOM      3  C   UNL     1       1.026   3.307  18.833  0.00  0.00    +0.000 C 
ATOM      4  N   UNL     1       2.191   5.370  18.134  0.00  0.00    +0.000 NA
ATOM      5  C   UNL     1       3.502   5.782  18.033  0.00  0.00    +0.000 A 
ATOM      6  C   UNL     1       4.365   4.808  18.503  0.00  0.00    +0.000 A 
ENDROOT
BRANCH   5   7
ATOM      7  N   UNL     1       3.797   7.064  17.420  0.00  0.00    +0.000 N 
ATOM      8  O   UNL     1       4.623   7.082  16.496  0.00  0.00    +0.000 OA
ATOM      9  O   UNL     1       3.202   8.059  17.859  0.00  0.00    +0.000 OA
ENDBRANCH   5   7
BRANCH   1  11
ATOM     10  C   UNL     1       3.819   1.331  18.498  0.00  0.00    +0.000 C 
ATOM     11  C   UNL     1       3.928   2.491  19.482  0.00  0.00    +0.000 C 
ENDBRANCH   1  11
BRANCH   6  12
ATOM     12  S   UNL     1       6.102   4.694  18.429  0.00  0.00    +0.000 S 
BRANCH  12  13
ATOM     13  C   UNL     1       6.330   4.423  16.738  0.00  0.00    +0.000 A 
ATOM     14  N   UNL     1       5.659   3.619  15.950  0.00  0.00    +0.000 NA
ATOM     15  C   UNL     1       6.109   3.908  14.684  0.00  0.00    +0.000 A 
ATOM     16  C   UNL     1       7.068   4.892  14.718  0.00  0.00    +0.000 A 
ATOM     17  N   UNL     1       7.205   5.205  16.043  0.00  0.00    +0.000 N 
ATOM     18  H   UNL     1       7.812   5.904  16.448  0.00  0.00    +0.000 HD
ENDBRANCH  12  13
ENDBRANCH   6  12
TORSDOF 4
ENDMDL
MODEL 7
REMARK VINA RESULT:      -5.9      3.064      3.992
REMARK  Name = 
REMARK  6 active torsions:
REMARK  status: ('A' for Active; 'I' for Inactive)
REMARK    1  A    between atoms: C_1  and  C_2
REMARK    2  A    between atoms: C_2  and  N_3
REMARK    3  A    between atoms: C_4  and  C_5
REMARK    4  A    between atoms: C_7  and  N_8
REMARK    5  A    between atoms: C_11  and  S_12
REMARK    6  A    between atoms: S_12  and  C_13
REMARK                            x       y       z     vdW  Elec       q    Type
REMARK                         _______ _______ _______ _____ _____    ______ ____
ROOT
ATOM      1  N   UNL     1       3.497   3.703  19.709  0.00  0.00    +0.000 N 
ATOM      2  C   UNL     1       2.552   3.992  20.688  0.00  0.00    +0.000 A 
ATOM      3  C   UNL     1       2.023   3.030  21.690  0.00  0.00    +0.000 C 
ATOM      4  N   UNL     1       2.157   5.245  20.605  0.00  0.00    +0.000 NA
ATOM      5  C   UNL     1       2.804   5.775  19.510  0.00  0.00    +0.000 A 
ATOM      6  C   UNL     1       3.630   4.834  18.920  0.00  0.00    +0.000 A 
ENDROOT
BRANCH   5   7
ATOM      7  N   UNL     1       2.504   7.133  19.097  0.00  0.00    +0.000 N 
ATOM      8  O   UNL     1       2.070   7.912  19.958  0.00  0.00    +0.000 OA
ATOM      9  O   UNL     1       2.702   7.428  17.910  0.00  0.00    +0.000 OA
ENDBRANCH   5   7
BRANCH   1  11
ATOM     10  C   UNL     1       3.434   1.527  18.471  0.00  0.00    +0.000 C 
ATOM     11  C   UNL     1       4.118   2.400  19.517  0.00  0.00    +0.000 C 
ENDBRANCH   1  11
BRANCH   6  12
ATOM     12  S   UNL     1       4.512   4.876  17.419  0.00  0.00    +0.000 S 
BRANCH  12  13
ATOM     13  C   UNL     1       6.030   5.496  17.960  0.00  0.00    +0.000 A 
ATOM     14  N   UNL     1       6.643   6.588  17.573  0.00  0.00    +0.000 NA
ATOM     15  C   UNL     1       7.710   6.718  18.429  0.00  0.00    +0.000 A 
ATOM     16  C   UNL     1       7.740   5.684  19.335  0.00  0.00    +0.000 A 
ATOM     17  N   UNL     1       6.662   4.904  19.015  0.00  0.00    +0.000 N 
ATOM     18  H   UNL     1       6.356   4.061  19.481  0.00  0.00    +0.000 HD
ENDBRANCH  12  13
ENDBRANCH   6  12
TORSDOF 4
ENDMDL
MODEL 8
REMARK VINA RESULT:      -5.9      0.657      1.378
REMARK  Name = 
REMARK  6 active torsions:
REMARK  status: ('A' for Active; 'I' for Inactive)
REMARK    1  A    between atoms: C_1  and  C_2
REMARK    2  A    between atoms: C_2  and  N_3
REMARK    3  A    between atoms: C_4  and  C_5
REMARK    4  A    between atoms: C_7  and  N_8
REMARK    5  A    between atoms: C_11  and  S_12
REMARK    6  A    between atoms: S_12  and  C_13
REMARK                            x       y       z     vdW  Elec       q    Type
REMARK                         _______ _______ _______ _____ _____    ______ ____
ROOT
ATOM      1  N   UNL     1       3.970   4.539  18.414  0.00  0.00    +0.000 N 
ATOM      2  C   UNL     1       4.256   3.887  19.610  0.00  0.00    +0.000 A 
ATOM      3  C   UNL     1       3.322   3.009  20.360  0.00  0.00    +0.000 C 
ATOM      4  N   UNL     1       5.477   4.165  20.016  0.00  0.00    +0.000 NA
ATOM      5  C   UNL     1       5.982   5.068  19.107  0.00  0.00    +0.000 A 
ATOM      6  C   UNL     1       5.062   5.336  18.110  0.00  0.00    +0.000 A 
ENDROOT
BRANCH   5   7
ATOM      7  N   UNL     1       7.296   5.643  19.335  0.00  0.00    +0.000 N 
ATOM      8  O   UNL     1       7.865   5.369  20.401  0.00  0.00    +0.000 OA
ATOM      9  O   UNL     1       7.765   6.369  18.446  0.00  0.00    +0.000 OA
ENDBRANCH   5   7
BRANCH   1  11
ATOM     10  C   UNL     1       2.453   3.126  17.008  0.00  0.00    +0.000 C 
ATOM     11  C   UNL     1       2.698   4.457  17.711  0.00  0.00    +0.000 C 
ENDBRANCH   1  11
BRANCH   6  12
ATOM     12  S   UNL     1       5.073   6.529  16.841  0.00  0.00    +0.000 S 
BRANCH  12  13
ATOM     13  C   UNL     1       5.850   5.642  15.579  0.00  0.00    +0.000 A 
ATOM     14  N   UNL     1       7.100   5.711  15.192  0.00  0.00    +0.000 NA
ATOM     15  C   UNL     1       7.250   4.685  14.290  0.00  0.00    +0.000 A 
ATOM     16  C   UNL     1       6.069   3.998  14.129  0.00  0.00    +0.000 A 
ATOM     17  N   UNL     1       5.179   4.630  14.955  0.00  0.00    +0.000 N 
ATOM     18  H   UNL     1       4.211   4.388  15.112  0.00  0.00    +0.000 HD
ENDBRANCH  12  13
ENDBRANCH   6  12
TORSDOF 4
ENDMDL
MODEL 9
REMARK VINA RESULT:      -5.9      3.144      4.241
REMARK  Name = 
REMARK  6 active torsions:
REMARK  status: ('A' for Active; 'I' for Inactive)
REMARK    1  A    between atoms: C_1  and  C_2
REMARK    2  A    between atoms: C_2  and  N_3
REMARK    3  A    between atoms: C_4  and  C_5
REMARK    4  A    between atoms: C_7  and  N_8
REMARK    5  A    between atoms: C_11  and  S_12
REMARK    6  A    between atoms: S_12  and  C_13
REMARK                            x       y       z     vdW  Elec       q    Type
REMARK                         _______ _______ _______ _____ _____    ______ ____
ROOT
ATOM      1  N   UNL     1       2.494   5.448  18.975  0.00  0.00    +0.000 N 
ATOM      2  C   UNL     1       2.103   5.963  20.208  0.00  0.00    +0.000 A 
ATOM      3  C   UNL     1       1.713   7.372  20.471  0.00  0.00    +0.000 C 
ATOM      4  N   UNL     1       2.139   5.033  21.139  0.00  0.00    +0.000 NA
ATOM      5  C   UNL     1       2.627   3.900  20.524  0.00  0.00    +0.000 A 
ATOM      6  C   UNL     1       2.876   4.132  19.183  0.00  0.00    +0.000 A 
ENDROOT
BRANCH   5   7
ATOM      7  N   UNL     1       2.873   2.712  21.320  0.00  0.00    +0.000 N 
ATOM      8  O   UNL     1       1.946   2.295  22.030  0.00  0.00    +0.000 OA
ATOM      9  O   UNL     1       3.993   2.188  21.237  0.00  0.00    +0.000 OA
ENDBRANCH   5   7
BRANCH   1  11
ATOM     10  C   UNL     1       3.813   7.118  17.654  0.00  0.00    +0.000 C 
ATOM     11  C   UNL     1       2.582   6.222  17.746  0.00  0.00    +0.000 C 
ENDBRANCH   1  11
BRANCH   6  12
ATOM     12  S   UNL     1       3.677   3.151  17.987  0.00  0.00    +0.000 S 
BRANCH  12  13
ATOM     13  C   UNL     1       5.208   3.945  17.899  0.00  0.00    +0.000 A 
ATOM     14  N   UNL     1       5.931   4.420  18.884  0.00  0.00    +0.000 NA
ATOM     15  C   UNL     1       7.124   4.781  18.305  0.00  0.00    +0.000 A 
ATOM     16  C   UNL     1       7.109   4.526  16.953  0.00  0.00    +0.000 A 
ATOM     17  N   UNL     1       5.871   3.999  16.708  0.00  0.00    +0.000 N 
ATOM     18  H   UNL     1       5.508   3.675  15.822  0.00  0.00    +0.000 HD
ENDBRANCH  12  13
ENDBRANCH   6  12
TORSDOF 4
ENDMDL
