MODEL 1
REMARK VINA RESULT:      -7.9      0.000      0.000
REMARK  Name = 
REMARK  7 active torsions:
REMARK  status: ('A' for Active; 'I' for Inactive)
REMARK    1  A    between atoms: C_1  and  C_2
REMARK    2  A    between atoms: C_2  and  O_3
REMARK    3  A    between atoms: O_3  and  C_4
REMARK    4  A    between atoms: C_4  and  C_6
REMARK    5  A    between atoms: C_6  and  O_7
REMARK    6  A    between atoms: O_7  and  C_8
REMARK    7  A    between atoms: C_12  and  C_13
REMARK                            x       y       z     vdW  Elec       q    Type
REMARK                         _______ _______ _______ _____ _____    ______ ____
ROOT
ATOM      1  C   UNL     1       4.593   3.919  19.297  0.00  0.00    +0.000 A 
ATOM      2  C   UNL     1       4.046   2.861  20.019  0.00  0.00    +0.000 A 
ATOM      3  C   UNL     1       2.818   3.021  20.659  0.00  0.00    +0.000 A 
ATOM      4  C   UNL     1       2.135   4.238  20.578  0.00  0.00    +0.000 A 
ATOM      5  C   UNL     1       2.666   5.308  19.844  0.00  0.00    +0.000 A 
ATOM      6  C   UNL     1       3.885   5.111  19.169  0.00  0.00    +0.000 A 
ENDROOT
BRANCH   5   7
ATOM      7  C   UNL     1       1.925   6.626  19.710  0.00  0.00    +0.000 C 
ATOM      8  N   UNL     1       2.607   7.520  18.814  0.00  0.00    +0.000 N 
ATOM      9  C   UNL     1       1.921   8.666  18.506  0.00  0.00    +0.000 C 
ATOM     10  O   UNL     1       2.062   9.278  17.458  0.00  0.00    +0.000 OA
ATOM     11  C   UNL     1       1.092   9.185  19.614  0.00  0.00    +0.000 A 
ATOM     12  C   UNL     1       0.406  10.393  19.492  0.00  0.00    +0.000 A 
ATOM     13  C   UNL     1      -0.150  10.973  20.623  0.00  0.00    +0.000 A 
ATOM     14  C   UNL     1       0.016  10.362  21.871  0.00  0.00    +0.000 A 
ATOM     15  C   UNL     1       0.659   9.124  21.979  0.00  0.00    +0.000 A 
ATOM     16  C   UNL     1       1.169   8.514  20.841  0.00  0.00    +0.000 A 
ATOM     17  O   UNL     1       1.779   7.291  20.974  0.00  0.00    +0.000 OA
ATOM     18  H   UNL     1       3.527   7.744  19.175  0.00  0.00    +0.000 HD
ENDBRANCH   5   7
BRANCH   1  19
ATOM     19  O   UNL     1       5.809   3.888  18.675  0.00  0.00    +0.000 OA
BRANCH  19  20
ATOM     20  C   UNL     1       5.814   4.502  17.390  0.00  0.00    +0.000 C 
BRANCH  20  21
ATOM     21  C   UNL     1       7.230   4.820  16.940  0.00  0.00    +0.000 C 
ATOM     22  O   UNL     1       8.228   4.143  17.139  0.00  0.00    +0.000 OA
BRANCH  21  23
ATOM     23  O   UNL     1       7.217   6.045  16.329  0.00  0.00    +0.000 OA
BRANCH  23  25
ATOM     24  C   UNL     1       7.787   7.825  17.814  0.00  0.00    +0.000 C 
ATOM     25  C   UNL     1       6.652   7.104  17.110  0.00  0.00    +0.000 C 
ENDBRANCH  23  25
ENDBRANCH  21  23
ENDBRANCH  20  21
ENDBRANCH  19  20
ENDBRANCH   1  19
TORSDOF 6
ENDMDL
MODEL 2
REMARK VINA RESULT:      -7.9      1.263      1.512
REMARK  Name = 
REMARK  7 active torsions:
REMARK  status: ('A' for Active; 'I' for Inactive)
REMARK    1  A    between atoms: C_1  and  C_2
REMARK    2  A    between atoms: C_2  and  O_3
REMARK    3  A    between atoms: O_3  and  C_4
REMARK    4  A    between atoms: C_4  and  C_6
REMARK    5  A    between atoms: C_6  and  O_7
REMARK    6  A    between atoms: O_7  and  C_8
REMARK    7  A    between atoms: C_12  and  C_13
REMARK                            x       y       z     vdW  Elec       q    Type
REMARK                         _______ _______ _______ _____ _____    ______ ____
ROOT
ATOM      1  C   UNL     1       4.917   4.494  19.258  0.00  0.00    +0.000 A 
ATOM      2  C   UNL     1       4.365   3.355  18.676  0.00  0.00    +0.000 A 
ATOM      3  C   UNL     1       3.040   3.371  18.242  0.00  0.00    +0.000 A 
ATOM      4  C   UNL     1       2.266   4.525  18.388  0.00  0.00    +0.000 A 
ATOM      5  C   UNL     1       2.811   5.685  18.960  0.00  0.00    +0.000 A 
ATOM      6  C   UNL     1       4.163   5.660  19.351  0.00  0.00    +0.000 A 
ENDROOT
BRANCH   5   7
ATOM      7  C   UNL     1       2.001   6.961  19.095  0.00  0.00    +0.000 C 
ATOM      8  N   UNL     1       2.615   8.046  18.378  0.00  0.00    +0.000 N 
ATOM      9  C   UNL     1       1.863   9.191  18.308  0.00  0.00    +0.000 C 
ATOM     10  O   UNL     1       1.948  10.000  17.396  0.00  0.00    +0.000 OA
ATOM     11  C   UNL     1       1.038   9.442  19.507  0.00  0.00    +0.000 A 
ATOM     12  C   UNL     1       0.288  10.611  19.631  0.00  0.00    +0.000 A 
ATOM     13  C   UNL     1      -0.268  10.931  20.861  0.00  0.00    +0.000 A 
ATOM     14  C   UNL     1      -0.040  10.103  21.965  0.00  0.00    +0.000 A 
ATOM     15  C   UNL     1       0.667   8.903  21.822  0.00  0.00    +0.000 A 
ATOM     16  C   UNL     1       1.179   8.553  20.581  0.00  0.00    +0.000 A 
ATOM     17  O   UNL     1       1.853   7.362  20.465  0.00  0.00    +0.000 OA
ATOM     18  H   UNL     1       3.531   8.247  18.762  0.00  0.00    +0.000 HD
ENDBRANCH   5   7
BRANCH   1  19
ATOM     19  O   UNL     1       6.185   4.572  19.762  0.00  0.00    +0.000 OA
BRANCH  19  20
ATOM     20  C   UNL     1       7.007   5.529  19.103  0.00  0.00    +0.000 C 
BRANCH  20  21
ATOM     21  C   UNL     1       7.614   4.950  17.836  0.00  0.00    +0.000 C 
ATOM     22  O   UNL     1       8.458   4.069  17.768  0.00  0.00    +0.000 OA
BRANCH  21  23
ATOM     23  O   UNL     1       7.105   5.638  16.767  0.00  0.00    +0.000 OA
BRANCH  23  25
ATOM     24  C   UNL     1       5.362   4.795  15.372  0.00  0.00    +0.000 C 
ATOM     25  C   UNL     1       6.862   4.847  15.599  0.00  0.00    +0.000 C 
ENDBRANCH  23  25
ENDBRANCH  21  23
ENDBRANCH  20  21
ENDBRANCH  19  20
ENDBRANCH   1  19
TORSDOF 6
ENDMDL
MODEL 3
REMARK VINA RESULT:      -7.8      3.723      6.134
REMARK  Name = 
REMARK  7 active torsions:
REMARK  status: ('A' for Active; 'I' for Inactive)
REMARK    1  A    between atoms: C_1  and  C_2
REMARK    2  A    between atoms: C_2  and  O_3
REMARK    3  A    between atoms: O_3  and  C_4
REMARK    4  A    between atoms: C_4  and  C_6
REMARK    5  A    between atoms: C_6  and  O_7
REMARK    6  A    between atoms: O_7  and  C_8
REMARK    7  A    between atoms: C_12  and  C_13
REMARK                            x       y       z     vdW  Elec       q    Type
REMARK                         _______ _______ _______ _____ _____    ______ ____
ROOT
ATOM      1  C   UNL     1       7.002   5.125  15.816  0.00  0.00    +0.000 A 
ATOM      2  C   UNL     1       7.617   6.346  16.080  0.00  0.00    +0.000 A 
ATOM      3  C   UNL     1       7.387   6.988  17.296  0.00  0.00    +0.000 A 
ATOM      4  C   UNL     1       6.543   6.411  18.248  0.00  0.00    +0.000 A 
ATOM      5  C   UNL     1       5.927   5.175  18.003  0.00  0.00    +0.000 A 
ATOM      6  C   UNL     1       6.208   4.523  16.788  0.00  0.00    +0.000 A 
ENDROOT
BRANCH   5   7
ATOM      7  C   UNL     1       5.037   4.511  19.037  0.00  0.00    +0.000 C 
ATOM      8  N   UNL     1       5.359   3.117  19.184  0.00  0.00    +0.000 N 
ATOM      9  C   UNL     1       4.718   2.481  20.216  0.00  0.00    +0.000 C 
ATOM     10  O   UNL     1       5.178   1.513  20.804  0.00  0.00    +0.000 OA
ATOM     11  C   UNL     1       3.349   2.976  20.468  0.00  0.00    +0.000 A 
ATOM     12  C   UNL     1       2.531   2.371  21.422  0.00  0.00    +0.000 A 
ATOM     13  C   UNL     1       1.181   2.690  21.457  0.00  0.00    +0.000 A 
ATOM     14  C   UNL     1       0.653   3.581  20.516  0.00  0.00    +0.000 A 
ATOM     15  C   UNL     1       1.488   4.226  19.597  0.00  0.00    +0.000 A 
ATOM     16  C   UNL     1       2.848   3.950  19.594  0.00  0.00    +0.000 A 
ATOM     17  O   UNL     1       3.647   4.610  18.694  0.00  0.00    +0.000 OA
ATOM     18  H   UNL     1       5.201   2.626  18.312  0.00  0.00    +0.000 HD
ENDBRANCH   5   7
BRANCH   1  19
ATOM     19  O   UNL     1       7.117   4.435  14.641  0.00  0.00    +0.000 OA
BRANCH  19  20
ATOM     20  C   UNL     1       5.909   3.810  14.220  0.00  0.00    +0.000 C 
BRANCH  20  21
ATOM     21  C   UNL     1       5.926   3.539  12.725  0.00  0.00    +0.000 C 
ATOM     22  O   UNL     1       6.902   3.260  12.045  0.00  0.00    +0.000 OA
BRANCH  21  23
ATOM     23  O   UNL     1       4.659   3.733  12.243  0.00  0.00    +0.000 OA
BRANCH  23  25
ATOM     24  C   UNL     1       3.294   3.597  10.290  0.00  0.00    +0.000 C 
ATOM     25  C   UNL     1       4.276   2.856  11.178  0.00  0.00    +0.000 C 
ENDBRANCH  23  25
ENDBRANCH  21  23
ENDBRANCH  20  21
ENDBRANCH  19  20
ENDBRANCH   1  19
TORSDOF 6
ENDMDL
MODEL 4
REMARK VINA RESULT:      -7.7      3.548      4.965
REMARK  Name = 
REMARK  7 active torsions:
REMARK  status: ('A' for Active; 'I' for Inactive)
REMARK    1  A    between atoms: C_1  and  C_2
REMARK    2  A    between atoms: C_2  and  O_3
REMARK    3  A    between atoms: O_3  and  C_4
REMARK    4  A    between atoms: C_4  and  C_6
REMARK    5  A    between atoms: C_6  and  O_7
REMARK    6  A    between atoms: O_7  and  C_8
REMARK    7  A    between atoms: C_12  and  C_13
REMARK                            x       y       z     vdW  Elec       q    Type
REMARK                         _______ _______ _______ _____ _____    ______ ____
ROOT
ATOM      1  C   UNL     1       5.758   4.591  15.099  0.00  0.00    +0.000 A 
ATOM      2  C   UNL     1       7.019   4.195  15.538  0.00  0.00    +0.000 A 
ATOM      3  C   UNL     1       7.428   4.503  16.835  0.00  0.00    +0.000 A 
ATOM      4  C   UNL     1       6.579   5.206  17.693  0.00  0.00    +0.000 A 
ATOM      5  C   UNL     1       5.301   5.600  17.270  0.00  0.00    +0.000 A 
ATOM      6  C   UNL     1       4.890   5.240  15.973  0.00  0.00    +0.000 A 
ENDROOT
BRANCH   5   7
ATOM      7  C   UNL     1       4.347   6.331  18.196  0.00  0.00    +0.000 C 
ATOM      8  N   UNL     1       3.449   5.416  18.848  0.00  0.00    +0.000 N 
ATOM      9  C   UNL     1       2.666   5.972  19.827  0.00  0.00    +0.000 C 
ATOM     10  O   UNL     1       2.235   5.346  20.785  0.00  0.00    +0.000 OA
ATOM     11  C   UNL     1       2.264   7.367  19.554  0.00  0.00    +0.000 A 
ATOM     12  C   UNL     1       1.392   8.042  20.407  0.00  0.00    +0.000 A 
ATOM     13  C   UNL     1       0.840   9.247  19.995  0.00  0.00    +0.000 A 
ATOM     14  C   UNL     1       1.132   9.747  18.721  0.00  0.00    +0.000 A 
ATOM     15  C   UNL     1       2.051   9.092  17.892  0.00  0.00    +0.000 A 
ATOM     16  C   UNL     1       2.646   7.916  18.323  0.00  0.00    +0.000 A 
ATOM     17  O   UNL     1       3.556   7.304  17.497  0.00  0.00    +0.000 OA
ATOM     18  H   UNL     1       2.874   4.940  18.162  0.00  0.00    +0.000 HD
ENDBRANCH   5   7
BRANCH   1  19
ATOM     19  O   UNL     1       5.276   4.386  13.836  0.00  0.00    +0.000 OA
BRANCH  19  20
ATOM     20  C   UNL     1       6.155   3.644  12.998  0.00  0.00    +0.000 C 
BRANCH  20  21
ATOM     21  C   UNL     1       5.381   2.858  11.952  0.00  0.00    +0.000 C 
ATOM     22  O   UNL     1       5.725   1.810  11.427  0.00  0.00    +0.000 OA
BRANCH  21  23
ATOM     23  O   UNL     1       4.253   3.566  11.637  0.00  0.00    +0.000 OA
BRANCH  23  25
ATOM     24  C   UNL     1       3.034   4.166   9.675  0.00  0.00    +0.000 C 
ATOM     25  C   UNL     1       3.476   3.020  10.565  0.00  0.00    +0.000 C 
ENDBRANCH  23  25
ENDBRANCH  21  23
ENDBRANCH  20  21
ENDBRANCH  19  20
ENDBRANCH   1  19
TORSDOF 6
ENDMDL
MODEL 5
REMARK VINA RESULT:      -7.7      1.017      1.349
REMARK  Name = 
REMARK  7 active torsions:
REMARK  status: ('A' for Active; 'I' for Inactive)
REMARK    1  A    between atoms: C_1  and  C_2
REMARK    2  A    between atoms: C_2  and  O_3
REMARK    3  A    between atoms: O_3  and  C_4
REMARK    4  A    between atoms: C_4  and  C_6
REMARK    5  A    between atoms: C_6  and  O_7
REMARK    6  A    between atoms: O_7  and  C_8
REMARK    7  A    between atoms: C_12  and  C_13
REMARK                            x       y       z     vdW  Elec       q    Type
REMARK                         _______ _______ _______ _____ _____    ______ ____
ROOT
ATOM      1  C   UNL     1       4.196   3.751  19.675  0.00  0.00    +0.000 A 
ATOM      2  C   UNL     1       3.491   2.735  20.315  0.00  0.00    +0.000 A 
ATOM      3  C   UNL     1       2.212   2.984  20.809  0.00  0.00    +0.000 A 
ATOM      4  C   UNL     1       1.636   4.249  20.664  0.00  0.00    +0.000 A 
ATOM      5  C   UNL     1       2.328   5.280  20.010  0.00  0.00    +0.000 A 
ATOM      6  C   UNL     1       3.599   4.994  19.480  0.00  0.00    +0.000 A 
ENDROOT
BRANCH   5   7
ATOM      7  C   UNL     1       1.708   6.650  19.807  0.00  0.00    +0.000 C 
ATOM      8  N   UNL     1       2.492   7.449  18.905  0.00  0.00    +0.000 N 
ATOM      9  C   UNL     1       1.916   8.638  18.536  0.00  0.00    +0.000 C 
ATOM     10  O   UNL     1       2.142   9.197  17.472  0.00  0.00    +0.000 OA
ATOM     11  C   UNL     1       1.103   9.266  19.597  0.00  0.00    +0.000 A 
ATOM     12  C   UNL     1       0.528  10.523  19.412  0.00  0.00    +0.000 A 
ATOM     13  C   UNL     1      -0.010  11.189  20.503  0.00  0.00    +0.000 A 
ATOM     14  C   UNL     1       0.065  10.613  21.776  0.00  0.00    +0.000 A 
ATOM     15  C   UNL     1       0.594   9.328  21.947  0.00  0.00    +0.000 A 
ATOM     16  C   UNL     1       1.084   8.636  20.848  0.00  0.00    +0.000 A 
ATOM     17  O   UNL     1       1.582   7.371  21.042  0.00  0.00    +0.000 OA
ATOM     18  H   UNL     1       3.417   7.607  19.288  0.00  0.00    +0.000 HD
ENDBRANCH   5   7
BRANCH   1  19
ATOM     19  O   UNL     1       5.472   3.631  19.198  0.00  0.00    +0.000 OA
BRANCH  19  20
ATOM     20  C   UNL     1       5.744   4.455  18.069  0.00  0.00    +0.000 C 
BRANCH  20  21
ATOM     21  C   UNL     1       7.240   4.639  17.875  0.00  0.00    +0.000 C 
ATOM     22  O   UNL     1       8.065   4.877  18.745  0.00  0.00    +0.000 OA
BRANCH  21  23
ATOM     23  O   UNL     1       7.507   4.564  16.534  0.00  0.00    +0.000 OA
BRANCH  23  25
ATOM     24  C   UNL     1       6.408   4.770  14.425  0.00  0.00    +0.000 C 
ATOM     25  C   UNL     1       6.453   4.010  15.738  0.00  0.00    +0.000 C 
ENDBRANCH  23  25
ENDBRANCH  21  23
ENDBRANCH  20  21
ENDBRANCH  19  20
ENDBRANCH   1  19
TORSDOF 6
ENDMDL
MODEL 6
REMARK VINA RESULT:      -7.7      1.552      2.129
REMARK  Name = 
REMARK  7 active torsions:
REMARK  status: ('A' for Active; 'I' for Inactive)
REMARK    1  A    between atoms: C_1  and  C_2
REMARK    2  A    between atoms: C_2  and  O_3
REMARK    3  A    between atoms: O_3  and  C_4
REMARK    4  A    between atoms: C_4  and  C_6
REMARK    5  A    between atoms: C_6  and  O_7
REMARK    6  A    between atoms: O_7  and  C_8
REMARK    7  A    between atoms: C_12  and  C_13
REMARK                            x       y       z     vdW  Elec       q    Type
REMARK                         _______ _______ _______ _____ _____    ______ ____
ROOT
ATOM      1  C   UNL     1       4.954   4.591  17.991  0.00  0.00    +0.000 A 
ATOM      2  C   UNL     1       4.284   3.473  17.503  0.00  0.00    +0.000 A 
ATOM      3  C   UNL     1       2.893   3.488  17.402  0.00  0.00    +0.000 A 
ATOM      4  C   UNL     1       2.172   4.621  17.789  0.00  0.00    +0.000 A 
ATOM      5  C   UNL     1       2.834   5.760  18.271  0.00  0.00    +0.000 A 
ATOM      6  C   UNL     1       4.240   5.740  18.322  0.00  0.00    +0.000 A 
ENDROOT
BRANCH   5   7
ATOM      7  C   UNL     1       2.075   7.015  18.661  0.00  0.00    +0.000 C 
ATOM      8  N   UNL     1       2.646   8.183  18.046  0.00  0.00    +0.000 N 
ATOM      9  C   UNL     1       1.922   9.335  18.211  0.00  0.00    +0.000 C 
ATOM     10  O   UNL     1       1.940  10.264  17.416  0.00  0.00    +0.000 OA
ATOM     11  C   UNL     1       1.222   9.425  19.508  0.00  0.00    +0.000 A 
ATOM     12  C   UNL     1       0.519  10.574  19.867  0.00  0.00    +0.000 A 
ATOM     13  C   UNL     1       0.091  10.725  21.179  0.00  0.00    +0.000 A 
ATOM     14  C   UNL     1       0.402   9.745  22.128  0.00  0.00    +0.000 A 
ATOM     15  C   UNL     1       1.060   8.569  21.750  0.00  0.00    +0.000 A 
ATOM     16  C   UNL     1       1.441   8.391  20.428  0.00  0.00    +0.000 A 
ATOM     17  O   UNL     1       2.069   7.220  20.082  0.00  0.00    +0.000 OA
ATOM     18  H   UNL     1       3.600   8.315  18.362  0.00  0.00    +0.000 HD
ENDBRANCH   5   7
BRANCH   1  19
ATOM     19  O   UNL     1       6.306   4.667  18.178  0.00  0.00    +0.000 OA
BRANCH  19  20
ATOM     20  C   UNL     1       7.064   4.443  16.993  0.00  0.00    +0.000 C 
BRANCH  20  21
ATOM     21  C   UNL     1       7.078   5.680  16.110  0.00  0.00    +0.000 C 
ATOM     22  O   UNL     1       7.578   6.762  16.380  0.00  0.00    +0.000 OA
BRANCH  21  23
ATOM     23  O   UNL     1       6.364   5.402  14.976  0.00  0.00    +0.000 OA
BRANCH  23  25
ATOM     24  C   UNL     1       6.403   3.901  13.120  0.00  0.00    +0.000 C 
ATOM     25  C   UNL     1       6.297   4.013  14.630  0.00  0.00    +0.000 C 
ENDBRANCH  23  25
ENDBRANCH  21  23
ENDBRANCH  20  21
ENDBRANCH  19  20
ENDBRANCH   1  19
TORSDOF 6
ENDMDL
MODEL 7
REMARK VINA RESULT:      -7.6      1.420      1.564
REMARK  Name = 
REMARK  7 active torsions:
REMARK  status: ('A' for Active; 'I' for Inactive)
REMARK    1  A    between atoms: C_1  and  C_2
REMARK    2  A    between atoms: C_2  and  O_3
REMARK    3  A    between atoms: O_3  and  C_4
REMARK    4  A    between atoms: C_4  and  C_6
REMARK    5  A    between atoms: C_6  and  O_7
REMARK    6  A    between atoms: O_7  and  C_8
REMARK    7  A    between atoms: C_12  and  C_13
REMARK                            x       y       z     vdW  Elec       q    Type
REMARK                         _______ _______ _______ _____ _____    ______ ____
ROOT
ATOM      1  C   UNL     1       4.799   4.412  17.886  0.00  0.00    +0.000 A 
ATOM      2  C   UNL     1       4.086   3.312  17.414  0.00  0.00    +0.000 A 
ATOM      3  C   UNL     1       2.695   3.364  17.350  0.00  0.00    +0.000 A 
ATOM      4  C   UNL     1       2.014   4.515  17.759  0.00  0.00    +0.000 A 
ATOM      5  C   UNL     1       2.718   5.636  18.224  0.00  0.00    +0.000 A 
ATOM      6  C   UNL     1       4.124   5.578  18.237  0.00  0.00    +0.000 A 
ENDROOT
BRANCH   5   7
ATOM      7  C   UNL     1       2.003   6.908  18.636  0.00  0.00    +0.000 C 
ATOM      8  N   UNL     1       2.594   8.064  18.016  0.00  0.00    +0.000 N 
ATOM      9  C   UNL     1       1.907   9.235  18.201  0.00  0.00    +0.000 C 
ATOM     10  O   UNL     1       1.934  10.167  17.411  0.00  0.00    +0.000 OA
ATOM     11  C   UNL     1       1.237   9.337  19.514  0.00  0.00    +0.000 A 
ATOM     12  C   UNL     1       0.574  10.504  19.893  0.00  0.00    +0.000 A 
ATOM     13  C   UNL     1       0.179  10.659  21.214  0.00  0.00    +0.000 A 
ATOM     14  C   UNL     1       0.481   9.666  22.152  0.00  0.00    +0.000 A 
ATOM     15  C   UNL     1       1.098   8.473  21.754  0.00  0.00    +0.000 A 
ATOM     16  C   UNL     1       1.446   8.292  20.423  0.00  0.00    +0.000 A 
ATOM     17  O   UNL     1       2.033   7.106  20.058  0.00  0.00    +0.000 OA
ATOM     18  H   UNL     1       3.558   8.167  18.312  0.00  0.00    +0.000 HD
ENDBRANCH   5   7
BRANCH   1  19
ATOM     19  O   UNL     1       6.157   4.451  18.036  0.00  0.00    +0.000 OA
BRANCH  19  20
ATOM     20  C   UNL     1       6.873   4.437  16.805  0.00  0.00    +0.000 C 
BRANCH  20  21
ATOM     21  C   UNL     1       6.724   5.759  16.071  0.00  0.00    +0.000 C 
ATOM     22  O   UNL     1       5.887   6.032  15.222  0.00  0.00    +0.000 OA
BRANCH  21  23
ATOM     23  O   UNL     1       7.741   6.584  16.469  0.00  0.00    +0.000 OA
BRANCH  23  25
ATOM     24  C   UNL     1       7.921   8.636  17.674  0.00  0.00    +0.000 C 
ATOM     25  C   UNL     1       7.578   7.161  17.770  0.00  0.00    +0.000 C 
ENDBRANCH  23  25
ENDBRANCH  21  23
ENDBRANCH  20  21
ENDBRANCH  19  20
ENDBRANCH   1  19
TORSDOF 6
ENDMDL
MODEL 8
REMARK VINA RESULT:      -7.6      4.055      6.467
REMARK  Name = 
REMARK  7 active torsions:
REMARK  status: ('A' for Active; 'I' for Inactive)
REMARK    1  A    between atoms: C_1  and  C_2
REMARK    2  A    between atoms: C_2  and  O_3
REMARK    3  A    between atoms: O_3  and  C_4
REMARK    4  A    between atoms: C_4  and  C_6
REMARK    5  A    between atoms: C_6  and  O_7
REMARK    6  A    between atoms: O_7  and  C_8
REMARK    7  A    between atoms: C_12  and  C_13
REMARK                            x       y       z     vdW  Elec       q    Type
REMARK                         _______ _______ _______ _____ _____    ______ ____
ROOT
ATOM      1  C   UNL     1       5.916   4.789  15.158  0.00  0.00    +0.000 A 
ATOM      2  C   UNL     1       7.032   5.603  15.337  0.00  0.00    +0.000 A 
ATOM      3  C   UNL     1       7.409   5.988  16.623  0.00  0.00    +0.000 A 
ATOM      4  C   UNL     1       6.673   5.559  17.731  0.00  0.00    +0.000 A 
ATOM      5  C   UNL     1       5.555   4.728  17.568  0.00  0.00    +0.000 A 
ATOM      6  C   UNL     1       5.218   4.315  16.265  0.00  0.00    +0.000 A 
ENDROOT
BRANCH   5   7
ATOM      7  C   UNL     1       4.763   4.219  18.758  0.00  0.00    +0.000 C 
ATOM      8  N   UNL     1       5.189   2.900  19.143  0.00  0.00    +0.000 N 
ATOM      9  C   UNL     1       4.643   2.434  20.311  0.00  0.00    +0.000 C 
ATOM     10  O   UNL     1       5.197   1.625  21.041  0.00  0.00    +0.000 OA
ATOM     11  C   UNL     1       3.256   2.883  20.547  0.00  0.00    +0.000 A 
ATOM     12  C   UNL     1       2.528   2.421  21.643  0.00  0.00    +0.000 A 
ATOM     13  C   UNL     1       1.162   2.660  21.697  0.00  0.00    +0.000 A 
ATOM     14  C   UNL     1       0.529   3.322  20.640  0.00  0.00    +0.000 A 
ATOM     15  C   UNL     1       1.273   3.831  19.569  0.00  0.00    +0.000 A 
ATOM     16  C   UNL     1       2.647   3.642  19.538  0.00  0.00    +0.000 A 
ATOM     17  O   UNL     1       3.355   4.167  18.485  0.00  0.00    +0.000 OA
ATOM     18  H   UNL     1       5.025   2.244  18.388  0.00  0.00    +0.000 HD
ENDBRANCH   5   7
BRANCH   1  19
ATOM     19  O   UNL     1       5.429   4.394  13.944  0.00  0.00    +0.000 OA
BRANCH  19  20
ATOM     20  C   UNL     1       6.365   3.661  13.159  0.00  0.00    +0.000 C 
BRANCH  20  21
ATOM     21  C   UNL     1       5.666   2.891  12.051  0.00  0.00    +0.000 C 
ATOM     22  O   UNL     1       4.551   3.110  11.602  0.00  0.00    +0.000 OA
BRANCH  21  23
ATOM     23  O   UNL     1       6.475   1.849  11.683  0.00  0.00    +0.000 OA
BRANCH  23  25
ATOM     24  C   UNL     1       6.183  -0.498  11.359  0.00  0.00    +0.000 C 
ATOM     25  C   UNL     1       5.861   0.884  10.820  0.00  0.00    +0.000 C 
ENDBRANCH  23  25
ENDBRANCH  21  23
ENDBRANCH  20  21
ENDBRANCH  19  20
ENDBRANCH   1  19
TORSDOF 6
ENDMDL
MODEL 9
REMARK VINA RESULT:      -7.4      2.109      4.099
REMARK  Name = 
REMARK  7 active torsions:
REMARK  status: ('A' for Active; 'I' for Inactive)
REMARK    1  A    between atoms: C_1  and  C_2
REMARK    2  A    between atoms: C_2  and  O_3
REMARK    3  A    between atoms: O_3  and  C_4
REMARK    4  A    between atoms: C_4  and  C_6
REMARK    5  A    between atoms: C_6  and  O_7
REMARK    6  A    between atoms: O_7  and  C_8
REMARK    7  A    between atoms: C_12  and  C_13
REMARK                            x       y       z     vdW  Elec       q    Type
REMARK                         _______ _______ _______ _____ _____    ______ ____
ROOT
ATOM      1  C   UNL     1       3.364   4.491  17.444  0.00  0.00    +0.000 A 
ATOM      2  C   UNL     1       4.546   4.740  16.751  0.00  0.00    +0.000 A 
ATOM      3  C   UNL     1       5.041   6.041  16.670  0.00  0.00    +0.000 A 
ATOM      4  C   UNL     1       4.355   7.094  17.281  0.00  0.00    +0.000 A 
ATOM      5  C   UNL     1       3.170   6.858  17.994  0.00  0.00    +0.000 A 
ATOM      6  C   UNL     1       2.713   5.532  18.102  0.00  0.00    +0.000 A 
ENDROOT
BRANCH   5   7
ATOM      7  C   UNL     1       2.430   7.980  18.698  0.00  0.00    +0.000 C 
ATOM      8  N   UNL     1       1.922   7.551  19.973  0.00  0.00    +0.000 N 
ATOM      9  C   UNL     1       1.386   8.547  20.747  0.00  0.00    +0.000 C 
ATOM     10  O   UNL     1       1.362   8.516  21.969  0.00  0.00    +0.000 OA
ATOM     11  C   UNL     1       0.704   9.606  19.975  0.00  0.00    +0.000 A 
ATOM     12  C   UNL     1       0.027  10.641  20.619  0.00  0.00    +0.000 A 
ATOM     13  C   UNL     1      -0.806  11.468  19.880  0.00  0.00    +0.000 A 
ATOM     14  C   UNL     1      -0.987  11.232  18.513  0.00  0.00    +0.000 A 
ATOM     15  C   UNL     1      -0.263  10.226  17.862  0.00  0.00    +0.000 A 
ATOM     16  C   UNL     1       0.613   9.431  18.588  0.00  0.00    +0.000 A 
ATOM     17  O   UNL     1       1.323   8.464  17.921  0.00  0.00    +0.000 OA
ATOM     18  H   UNL     1       1.254   6.799  19.850  0.00  0.00    +0.000 HD
ENDBRANCH   5   7
BRANCH   1  19
ATOM     19  O   UNL     1       2.765   3.267  17.545  0.00  0.00    +0.000 OA
BRANCH  19  20
ATOM     20  C   UNL     1       3.637   2.235  17.994  0.00  0.00    +0.000 C 
BRANCH  20  21
ATOM     21  C   UNL     1       3.862   2.324  19.495  0.00  0.00    +0.000 C 
ATOM     22  O   UNL     1       4.933   2.476  20.063  0.00  0.00    +0.000 OA
BRANCH  21  23
ATOM     23  O   UNL     1       2.658   2.130  20.118  0.00  0.00    +0.000 OA
BRANCH  23  25
ATOM     24  C   UNL     1       1.146   3.883  20.699  0.00  0.00    +0.000 C 
ATOM     25  C   UNL     1       2.352   3.077  21.148  0.00  0.00    +0.000 C 
ENDBRANCH  23  25
ENDBRANCH  21  23
ENDBRANCH  20  21
ENDBRANCH  19  20
ENDBRANCH   1  19
TORSDOF 6
ENDMDL
