MODEL 1
REMARK VINA RESULT:      -8.7      0.000      0.000
REMARK  Name = 
REMARK  11 active torsions:
REMARK  status: ('A' for Active; 'I' for Inactive)
REMARK    1  A    between atoms: C_1  and  C_2
REMARK    2  A    between atoms: C_2  and  C_3
REMARK    3  A    between atoms: C_3  and  C_4
REMARK    4  A    between atoms: C_4  and  C_5
REMARK    5  A    between atoms: C_9  and  C_10
REMARK    6  A    between atoms: C_10  and  O_11
REMARK    7  A    between atoms: N_12  and  C_13
REMARK    8  A    between atoms: C_13  and  C_14
REMARK    9  A    between atoms: C_17  and  C_18
REMARK   10  A    between atoms: C_23  and  C_24
REMARK   11  A    between atoms: C_28  and  C_29
REMARK                            x       y       z     vdW  Elec       q    Type
REMARK                         _______ _______ _______ _____ _____    ______ ____
ROOT
ATOM      1  C   UNL     1       1.312   8.881  19.363  0.00  0.00    +0.000 A 
ATOM      2  C   UNL     1       1.684   9.047  18.024  0.00  0.00    +0.000 A 
ATOM      3  C   UNL     1       2.570   8.142  17.404  0.00  0.00    +0.000 A 
ATOM      4  C   UNL     1       3.152   7.059  18.099  0.00  0.00    +0.000 A 
ATOM      5  C   UNL     1       2.767   6.924  19.440  0.00  0.00    +0.000 A 
ATOM      6  C   UNL     1       1.833   7.778  20.043  0.00  0.00    +0.000 A 
ENDROOT
BRANCH   4   7
ATOM      7  C   UNL     1       4.144   6.141  17.445  0.00  0.00    +0.000 A 
ATOM      8  C   UNL     1       5.300   6.718  16.858  0.00  0.00    +0.000 A 
ATOM      9  C   UNL     1       6.280   5.957  16.207  0.00  0.00    +0.000 A 
ATOM     10  C   UNL     1       6.148   4.585  16.128  0.00  0.00    +0.000 A 
ATOM     11  C   UNL     1       5.044   3.973  16.711  0.00  0.00    +0.000 A 
ATOM     12  C   UNL     1       4.044   4.720  17.379  0.00  0.00    +0.000 A 
BRANCH  12  13
ATOM     13  C   UNL     1       2.975   3.931  17.998  0.00  0.00    +0.000 A 
ATOM     14  N   UNL     1       1.660   4.020  17.600  0.00  0.00    +0.000 N 
ATOM     15  N   UNL     1       0.874   3.148  18.249  0.00  0.00    +0.000 NA
ATOM     16  N   UNL     1       1.636   2.498  19.116  0.00  0.00    +0.000 NA
ATOM     17  C   UNL     1       2.913   2.976  18.996  0.00  0.00    +0.000 A 
ATOM     18  H   UNL     1       1.246   4.614  16.889  0.00  0.00    +0.000 HD
BRANCH  17  19
ATOM     19  C   UNL     1       3.962   2.449  19.800  0.00  0.00    +0.000 C 
ATOM     20  N   UNL     1       4.816   1.994  20.449  0.00  0.00    +0.000 NA
ENDBRANCH  17  19
ENDBRANCH  12  13
ENDBRANCH   4   7
BRANCH   1  21
ATOM     21  C   UNL     1       0.571   9.949  20.141  0.00  0.00    +0.000 C 
BRANCH  21  27
ATOM     22  C   UNL     1      -0.958  11.327  18.631  0.00  0.00    +0.000 A 
ATOM     23  N   UNL     1      -1.060  12.580  18.233  0.00  0.00    +0.000 NA
ATOM     24  C   UNL     1      -0.072  13.270  18.867  0.00  0.00    +0.000 A 
ATOM     25 CL   UNL     1       0.091  14.957  18.705  0.00  0.00    +0.000 Cl
ATOM     26  C   UNL     1       0.671  12.432  19.673  0.00  0.00    +0.000 A 
ATOM     27  N   UNL     1       0.170  11.156  19.423  0.00  0.00    +0.000 N 
BRANCH  22  28
ATOM     28  C   UNL     1      -2.010  10.304  18.324  0.00  0.00    +0.000 C 
BRANCH  28  29
ATOM     29  C   UNL     1      -1.872   9.807  16.880  0.00  0.00    +0.000 C 
BRANCH  29  31
ATOM     30  C   UNL     1      -4.059  10.989  16.498  0.00  0.00    +0.000 C 
ATOM     31  C   UNL     1      -2.715  10.610  15.888  0.00  0.00    +0.000 C 
ENDBRANCH  29  31
ENDBRANCH  28  29
ENDBRANCH  22  28
BRANCH  26  32
ATOM     32  C   UNL     1       1.764  12.761  20.614  0.00  0.00    +0.000 C 
BRANCH  32  33
ATOM     33  O   UNL     1       1.189  13.463  21.707  0.00  0.00    +0.000 OA
ATOM     34  H   UNL     1       0.242  13.569  21.505  0.00  0.00    +0.000 HD
ENDBRANCH  32  33
ENDBRANCH  26  32
ENDBRANCH  21  27
ENDBRANCH   1  21
TORSDOF 10
ENDMDL
MODEL 2
REMARK VINA RESULT:      -8.6      0.534      1.081
REMARK  Name = 
REMARK  11 active torsions:
REMARK  status: ('A' for Active; 'I' for Inactive)
REMARK    1  A    between atoms: C_1  and  C_2
REMARK    2  A    between atoms: C_2  and  C_3
REMARK    3  A    between atoms: C_3  and  C_4
REMARK    4  A    between atoms: C_4  and  C_5
REMARK    5  A    between atoms: C_9  and  C_10
REMARK    6  A    between atoms: C_10  and  O_11
REMARK    7  A    between atoms: N_12  and  C_13
REMARK    8  A    between atoms: C_13  and  C_14
REMARK    9  A    between atoms: C_17  and  C_18
REMARK   10  A    between atoms: C_23  and  C_24
REMARK   11  A    between atoms: C_28  and  C_29
REMARK                            x       y       z     vdW  Elec       q    Type
REMARK                         _______ _______ _______ _____ _____    ______ ____
ROOT
ATOM      1  C   UNL     1       1.394   8.805  19.442  0.00  0.00    +0.000 A 
ATOM      2  C   UNL     1       1.860   7.640  20.063  0.00  0.00    +0.000 A 
ATOM      3  C   UNL     1       2.762   6.782  19.400  0.00  0.00    +0.000 A 
ATOM      4  C   UNL     1       3.206   7.025  18.082  0.00  0.00    +0.000 A 
ATOM      5  C   UNL     1       2.715   8.195  17.485  0.00  0.00    +0.000 A 
ATOM      6  C   UNL     1       1.875   9.089  18.162  0.00  0.00    +0.000 A 
ENDROOT
BRANCH   4   7
ATOM      7  C   UNL     1       4.116   6.070  17.365  0.00  0.00    +0.000 A 
ATOM      8  C   UNL     1       5.258   6.600  16.710  0.00  0.00    +0.000 A 
ATOM      9  C   UNL     1       6.163   5.803  15.998  0.00  0.00    +0.000 A 
ATOM     10  C   UNL     1       5.966   4.438  15.920  0.00  0.00    +0.000 A 
ATOM     11  C   UNL     1       4.874   3.870  16.567  0.00  0.00    +0.000 A 
ATOM     12  C   UNL     1       3.950   4.655  17.298  0.00  0.00    +0.000 A 
BRANCH  12  13
ATOM     13  C   UNL     1       2.887   3.908  17.977  0.00  0.00    +0.000 A 
ATOM     14  N   UNL     1       1.562   4.006  17.617  0.00  0.00    +0.000 N 
ATOM     15  N   UNL     1       0.782   3.173  18.321  0.00  0.00    +0.000 NA
ATOM     16  N   UNL     1       1.560   2.541  19.188  0.00  0.00    +0.000 NA
ATOM     17  C   UNL     1       2.840   2.991  19.012  0.00  0.00    +0.000 A 
ATOM     18  H   UNL     1       1.137   4.582  16.897  0.00  0.00    +0.000 HD
BRANCH  17  19
ATOM     19  C   UNL     1       3.904   2.474  19.802  0.00  0.00    +0.000 C 
ATOM     20  N   UNL     1       4.787   2.045  20.428  0.00  0.00    +0.000 NA
ENDBRANCH  17  19
ENDBRANCH  12  13
ENDBRANCH   4   7
BRANCH   1  21
ATOM     21  C   UNL     1       0.246   9.622  20.000  0.00  0.00    +0.000 C 
BRANCH  21  27
ATOM     22  C   UNL     1      -1.096  11.020  18.338  0.00  0.00    +0.000 A 
ATOM     23  N   UNL     1      -1.216  12.292  18.011  0.00  0.00    +0.000 NA
ATOM     24  C   UNL     1      -0.403  12.987  18.853  0.00  0.00    +0.000 A 
ATOM     25 CL   UNL     1      -0.334  14.689  18.832  0.00  0.00    +0.000 Cl
ATOM     26  C   UNL     1       0.249  12.135  19.720  0.00  0.00    +0.000 A 
ATOM     27  N   UNL     1      -0.110  10.855  19.303  0.00  0.00    +0.000 N 
BRANCH  22  28
ATOM     28  C   UNL     1      -2.004   9.964  17.784  0.00  0.00    +0.000 C 
BRANCH  28  29
ATOM     29  C   UNL     1      -3.441  10.489  17.682  0.00  0.00    +0.000 C 
BRANCH  29  31
ATOM     30  C   UNL     1      -3.009  10.033  15.246  0.00  0.00    +0.000 C 
ATOM     31  C   UNL     1      -3.860  10.807  16.246  0.00  0.00    +0.000 C 
ENDBRANCH  29  31
ENDBRANCH  28  29
ENDBRANCH  22  28
BRANCH  26  32
ATOM     32  C   UNL     1       1.138  12.454  20.858  0.00  0.00    +0.000 C 
BRANCH  32  33
ATOM     33  O   UNL     1       2.271  13.135  20.336  0.00  0.00    +0.000 OA
ATOM     34  H   UNL     1       2.784  12.479  19.832  0.00  0.00    +0.000 HD
ENDBRANCH  32  33
ENDBRANCH  26  32
ENDBRANCH  21  27
ENDBRANCH   1  21
TORSDOF 10
ENDMDL
MODEL 3
REMARK VINA RESULT:      -8.4      3.344      8.472
REMARK  Name = 
REMARK  11 active torsions:
REMARK  status: ('A' for Active; 'I' for Inactive)
REMARK    1  A    between atoms: C_1  and  C_2
REMARK    2  A    between atoms: C_2  and  C_3
REMARK    3  A    between atoms: C_3  and  C_4
REMARK    4  A    between atoms: C_4  and  C_5
REMARK    5  A    between atoms: C_9  and  C_10
REMARK    6  A    between atoms: C_10  and  O_11
REMARK    7  A    between atoms: N_12  and  C_13
REMARK    8  A    between atoms: C_13  and  C_14
REMARK    9  A    between atoms: C_17  and  C_18
REMARK   10  A    between atoms: C_23  and  C_24
REMARK   11  A    between atoms: C_28  and  C_29
REMARK                            x       y       z     vdW  Elec       q    Type
REMARK                         _______ _______ _______ _____ _____    ______ ____
ROOT
ATOM      1  C   UNL     1       2.959   7.168  19.143  0.00  0.00    +0.000 A 
ATOM      2  C   UNL     1       2.899   7.807  17.899  0.00  0.00    +0.000 A 
ATOM      3  C   UNL     1       1.905   8.771  17.631  0.00  0.00    +0.000 A 
ATOM      4  C   UNL     1       0.909   9.112  18.573  0.00  0.00    +0.000 A 
ATOM      5  C   UNL     1       0.992   8.450  19.806  0.00  0.00    +0.000 A 
ATOM      6  C   UNL     1       2.018   7.543  20.105  0.00  0.00    +0.000 A 
ENDROOT
BRANCH   4   7
ATOM      7  C   UNL     1      -0.181  10.093  18.252  0.00  0.00    +0.000 A 
ATOM      8  C   UNL     1      -1.280   9.638  17.477  0.00  0.00    +0.000 A 
ATOM      9  C   UNL     1      -2.343  10.473  17.106  0.00  0.00    +0.000 A 
ATOM     10  C   UNL     1      -2.353  11.794  17.504  0.00  0.00    +0.000 A 
ATOM     11  C   UNL     1      -1.309  12.278  18.285  0.00  0.00    +0.000 A 
ATOM     12  C   UNL     1      -0.228  11.453  18.678  0.00  0.00    +0.000 A 
BRANCH  12  13
ATOM     13  C   UNL     1       0.763  12.087  19.553  0.00  0.00    +0.000 A 
ATOM     14  N   UNL     1       1.856  12.767  19.067  0.00  0.00    +0.000 N 
ATOM     15  N   UNL     1       2.579  13.331  20.046  0.00  0.00    +0.000 NA
ATOM     16  N   UNL     1       2.010  13.002  21.197  0.00  0.00    +0.000 NA
ATOM     17  C   UNL     1       0.917  12.225  20.920  0.00  0.00    +0.000 A 
ATOM     18  H   UNL     1       2.144  12.909  18.104  0.00  0.00    +0.000 HD
BRANCH  17  19
ATOM     19  C   UNL     1       0.095  11.733  21.971  0.00  0.00    +0.000 C 
ATOM     20  N   UNL     1      -0.559  11.330  22.847  0.00  0.00    +0.000 NA
ENDBRANCH  17  19
ENDBRANCH  12  13
ENDBRANCH   4   7
BRANCH   1  21
ATOM     21  C   UNL     1       3.837   5.961  19.397  0.00  0.00    +0.000 C 
BRANCH  21  27
ATOM     22  C   UNL     1       3.211   4.265  17.594  0.00  0.00    +0.000 A 
ATOM     23  N   UNL     1       3.788   3.690  16.557  0.00  0.00    +0.000 NA
ATOM     24  C   UNL     1       5.039   4.220  16.466  0.00  0.00    +0.000 A 
ATOM     25 CL   UNL     1       6.094   3.816  15.192  0.00  0.00    +0.000 Cl
ATOM     26  C   UNL     1       5.255   5.139  17.471  0.00  0.00    +0.000 A 
ATOM     27  N   UNL     1       4.115   5.075  18.269  0.00  0.00    +0.000 N 
BRANCH  22  28
ATOM     28  C   UNL     1       1.749   4.106  17.884  0.00  0.00    +0.000 C 
BRANCH  28  29
ATOM     29  C   UNL     1       1.456   2.700  18.422  0.00  0.00    +0.000 C 
BRANCH  29  31
ATOM     30  C   UNL     1       0.954   4.024  20.502  0.00  0.00    +0.000 C 
ATOM     31  C   UNL     1       1.337   2.657  19.946  0.00  0.00    +0.000 C 
ENDBRANCH  29  31
ENDBRANCH  28  29
ENDBRANCH  22  28
BRANCH  26  32
ATOM     32  C   UNL     1       6.418   6.025  17.698  0.00  0.00    +0.000 C 
BRANCH  32  33
ATOM     33  O   UNL     1       6.289   7.132  16.816  0.00  0.00    +0.000 OA
ATOM     34  H   UNL     1       5.932   6.784  15.980  0.00  0.00    +0.000 HD
ENDBRANCH  32  33
ENDBRANCH  26  32
ENDBRANCH  21  27
ENDBRANCH   1  21
TORSDOF 10
ENDMDL
MODEL 4
REMARK VINA RESULT:      -8.2      2.062      3.265
REMARK  Name = 
REMARK  11 active torsions:
REMARK  status: ('A' for Active; 'I' for Inactive)
REMARK    1  A    between atoms: C_1  and  C_2
REMARK    2  A    between atoms: C_2  and  C_3
REMARK    3  A    between atoms: C_3  and  C_4
REMARK    4  A    between atoms: C_4  and  C_5
REMARK    5  A    between atoms: C_9  and  C_10
REMARK    6  A    between atoms: C_10  and  O_11
REMARK    7  A    between atoms: N_12  and  C_13
REMARK    8  A    between atoms: C_13  and  C_14
REMARK    9  A    between atoms: C_17  and  C_18
REMARK   10  A    between atoms: C_23  and  C_24
REMARK   11  A    between atoms: C_28  and  C_29
REMARK                            x       y       z     vdW  Elec       q    Type
REMARK                         _______ _______ _______ _____ _____    ______ ____
ROOT
ATOM      1  C   UNL     1       1.798   9.139  18.649  0.00  0.00    +0.000 A 
ATOM      2  C   UNL     1       1.415   8.695  19.921  0.00  0.00    +0.000 A 
ATOM      3  C   UNL     1       1.689   7.375  20.336  0.00  0.00    +0.000 A 
ATOM      4  C   UNL     1       2.319   6.433  19.494  0.00  0.00    +0.000 A 
ATOM      5  C   UNL     1       2.683   6.905  18.224  0.00  0.00    +0.000 A 
ATOM      6  C   UNL     1       2.478   8.234  17.830  0.00  0.00    +0.000 A 
ENDROOT
BRANCH   4   7
ATOM      7  C   UNL     1       2.547   5.013  19.925  0.00  0.00    +0.000 A 
ATOM      8  C   UNL     1       1.720   4.488  20.952  0.00  0.00    +0.000 A 
ATOM      9  C   UNL     1       1.857   3.183  21.442  0.00  0.00    +0.000 A 
ATOM     10  C   UNL     1       2.821   2.346  20.917  0.00  0.00    +0.000 A 
ATOM     11  C   UNL     1       3.639   2.810  19.892  0.00  0.00    +0.000 A 
ATOM     12  C   UNL     1       3.516   4.122  19.375  0.00  0.00    +0.000 A 
BRANCH  12  13
ATOM     13  C   UNL     1       4.403   4.445  18.254  0.00  0.00    +0.000 A 
ATOM     14  N   UNL     1       4.021   4.302  16.940  0.00  0.00    +0.000 N 
ATOM     15  N   UNL     1       4.964   4.734  16.089  0.00  0.00    +0.000 NA
ATOM     16  N   UNL     1       6.000   5.128  16.814  0.00  0.00    +0.000 NA
ATOM     17  C   UNL     1       5.689   4.939  18.133  0.00  0.00    +0.000 A 
ATOM     18  H   UNL     1       3.145   3.957  16.563  0.00  0.00    +0.000 HD
BRANCH  17  19
ATOM     19  C   UNL     1       6.616   5.290  19.153  0.00  0.00    +0.000 C 
ATOM     20  N   UNL     1       7.364   5.600  19.991  0.00  0.00    +0.000 NA
ENDBRANCH  17  19
ENDBRANCH  12  13
ENDBRANCH   4   7
BRANCH   1  21
ATOM     21  C   UNL     1       1.314  10.450  18.064  0.00  0.00    +0.000 C 
BRANCH  21  27
ATOM     22  C   UNL     1      -1.229  10.661  18.161  0.00  0.00    +0.000 A 
ATOM     23  N   UNL     1      -2.127  11.267  18.914  0.00  0.00    +0.000 NA
ATOM     24  C   UNL     1      -1.439  11.897  19.906  0.00  0.00    +0.000 A 
ATOM     25 CL   UNL     1      -2.235  12.725  21.163  0.00  0.00    +0.000 Cl
ATOM     26  C   UNL     1      -0.082  11.692  19.767  0.00  0.00    +0.000 A 
ATOM     27  N   UNL     1       0.056  10.994  18.570  0.00  0.00    +0.000 N 
BRANCH  22  28
ATOM     28  C   UNL     1      -1.612   9.678  17.096  0.00  0.00    +0.000 C 
BRANCH  28  29
ATOM     29  C   UNL     1      -3.065   9.897  16.659  0.00  0.00    +0.000 C 
BRANCH  29  31
ATOM     30  C   UNL     1      -3.082  10.024  14.146  0.00  0.00    +0.000 C 
ATOM     31  C   UNL     1      -3.192  10.817  15.444  0.00  0.00    +0.000 C 
ENDBRANCH  29  31
ENDBRANCH  28  29
ENDBRANCH  22  28
BRANCH  26  32
ATOM     32  C   UNL     1       1.024  12.098  20.663  0.00  0.00    +0.000 C 
BRANCH  32  33
ATOM     33  O   UNL     1       0.853  11.406  21.892  0.00  0.00    +0.000 OA
ATOM     34  H   UNL     1       0.157  11.878  22.384  0.00  0.00    +0.000 HD
ENDBRANCH  32  33
ENDBRANCH  26  32
ENDBRANCH  21  27
ENDBRANCH   1  21
TORSDOF 10
ENDMDL
MODEL 5
REMARK VINA RESULT:      -8.1      2.134      3.200
REMARK  Name = 
REMARK  11 active torsions:
REMARK  status: ('A' for Active; 'I' for Inactive)
REMARK    1  A    between atoms: C_1  and  C_2
REMARK    2  A    between atoms: C_2  and  C_3
REMARK    3  A    between atoms: C_3  and  C_4
REMARK    4  A    between atoms: C_4  and  C_5
REMARK    5  A    between atoms: C_9  and  C_10
REMARK    6  A    between atoms: C_10  and  O_11
REMARK    7  A    between atoms: N_12  and  C_13
REMARK    8  A    between atoms: C_13  and  C_14
REMARK    9  A    between atoms: C_17  and  C_18
REMARK   10  A    between atoms: C_23  and  C_24
REMARK   11  A    between atoms: C_28  and  C_29
REMARK                            x       y       z     vdW  Elec       q    Type
REMARK                         _______ _______ _______ _____ _____    ______ ____
ROOT
ATOM      1  C   UNL     1       1.424   9.323  18.935  0.00  0.00    +0.000 A 
ATOM      2  C   UNL     1       1.927   8.460  17.953  0.00  0.00    +0.000 A 
ATOM      3  C   UNL     1       2.277   7.131  18.273  0.00  0.00    +0.000 A 
ATOM      4  C   UNL     1       2.178   6.618  19.585  0.00  0.00    +0.000 A 
ATOM      5  C   UNL     1       1.679   7.509  20.546  0.00  0.00    +0.000 A 
ATOM      6  C   UNL     1       1.263   8.807  20.223  0.00  0.00    +0.000 A 
ENDROOT
BRANCH   4   7
ATOM      7  C   UNL     1       2.615   5.222  19.924  0.00  0.00    +0.000 A 
ATOM      8  C   UNL     1       1.846   4.494  20.868  0.00  0.00    +0.000 A 
ATOM      9  C   UNL     1       2.172   3.192  21.269  0.00  0.00    +0.000 A 
ATOM     10  C   UNL     1       3.277   2.562  20.733  0.00  0.00    +0.000 A 
ATOM     11  C   UNL     1       4.047   3.228  19.785  0.00  0.00    +0.000 A 
ATOM     12  C   UNL     1       3.733   4.541  19.359  0.00  0.00    +0.000 A 
BRANCH  12  13
ATOM     13  C   UNL     1       4.598   5.087  18.309  0.00  0.00    +0.000 A 
ATOM     14  N   UNL     1       4.155   5.314  17.025  0.00  0.00    +0.000 N 
ATOM     15  N   UNL     1       5.093   5.892  16.260  0.00  0.00    +0.000 NA
ATOM     16  N   UNL     1       6.184   6.018  17.002  0.00  0.00    +0.000 NA
ATOM     17  C   UNL     1       5.912   5.513  18.244  0.00  0.00    +0.000 A 
ATOM     18  H   UNL     1       3.241   5.134  16.624  0.00  0.00    +0.000 HD
BRANCH  17  19
ATOM     19  C   UNL     1       6.902   5.529  19.265  0.00  0.00    +0.000 C 
ATOM     20  N   UNL     1       7.705   5.520  20.109  0.00  0.00    +0.000 NA
ENDBRANCH  17  19
ENDBRANCH  12  13
ENDBRANCH   4   7
BRANCH   1  21
ATOM     21  C   UNL     1       1.270  10.812  18.707  0.00  0.00    +0.000 C 
BRANCH  21  27
ATOM     22  C   UNL     1      -1.247  11.011  18.323  0.00  0.00    +0.000 A 
ATOM     23  N   UNL     1      -2.259  11.685  18.833  0.00  0.00    +0.000 NA
ATOM     24  C   UNL     1      -1.753  12.425  19.859  0.00  0.00    +0.000 A 
ATOM     25 CL   UNL     1      -2.753  13.376  20.856  0.00  0.00    +0.000 Cl
ATOM     26  C   UNL     1      -0.396  12.219  19.989  0.00  0.00    +0.000 A 
ATOM     27  N   UNL     1      -0.052  11.397  18.918  0.00  0.00    +0.000 N 
BRANCH  22  28
ATOM     28  C   UNL     1      -1.443   9.916  17.318  0.00  0.00    +0.000 C 
BRANCH  28  29
ATOM     29  C   UNL     1      -2.853   9.981  16.720  0.00  0.00    +0.000 C 
BRANCH  29  31
ATOM     30  C   UNL     1      -3.132  10.005  14.219  0.00  0.00    +0.000 C 
ATOM     31  C   UNL     1      -2.931  10.856  15.468  0.00  0.00    +0.000 C 
ENDBRANCH  29  31
ENDBRANCH  28  29
ENDBRANCH  22  28
BRANCH  26  32
ATOM     32  C   UNL     1       0.536  12.727  21.020  0.00  0.00    +0.000 C 
BRANCH  32  33
ATOM     33  O   UNL     1       0.119  12.198  22.271  0.00  0.00    +0.000 OA
ATOM     34  H   UNL     1      -0.853  12.258  22.289  0.00  0.00    +0.000 HD
ENDBRANCH  32  33
ENDBRANCH  26  32
ENDBRANCH  21  27
ENDBRANCH   1  21
TORSDOF 10
ENDMDL
MODEL 6
REMARK VINA RESULT:      -8.1      2.256      3.467
REMARK  Name = 
REMARK  11 active torsions:
REMARK  status: ('A' for Active; 'I' for Inactive)
REMARK    1  A    between atoms: C_1  and  C_2
REMARK    2  A    between atoms: C_2  and  C_3
REMARK    3  A    between atoms: C_3  and  C_4
REMARK    4  A    between atoms: C_4  and  C_5
REMARK    5  A    between atoms: C_9  and  C_10
REMARK    6  A    between atoms: C_10  and  O_11
REMARK    7  A    between atoms: N_12  and  C_13
REMARK    8  A    between atoms: C_13  and  C_14
REMARK    9  A    between atoms: C_17  and  C_18
REMARK   10  A    between atoms: C_23  and  C_24
REMARK   11  A    between atoms: C_28  and  C_29
REMARK                            x       y       z     vdW  Elec       q    Type
REMARK                         _______ _______ _______ _____ _____    ______ ____
ROOT
ATOM      1  C   UNL     1       2.088   8.886  18.588  0.00  0.00    +0.000 A 
ATOM      2  C   UNL     1       1.666   8.146  19.700  0.00  0.00    +0.000 A 
ATOM      3  C   UNL     1       1.869   6.752  19.757  0.00  0.00    +0.000 A 
ATOM      4  C   UNL     1       2.465   6.031  18.699  0.00  0.00    +0.000 A 
ATOM      5  C   UNL     1       2.869   6.798  17.597  0.00  0.00    +0.000 A 
ATOM      6  C   UNL     1       2.735   8.193  17.563  0.00  0.00    +0.000 A 
ENDROOT
BRANCH   4   7
ATOM      7  C   UNL     1       2.617   4.538  18.746  0.00  0.00    +0.000 A 
ATOM      8  C   UNL     1       1.439   3.749  18.800  0.00  0.00    +0.000 A 
ATOM      9  C   UNL     1       1.465   2.350  18.864  0.00  0.00    +0.000 A 
ATOM     10  C   UNL     1       2.673   1.682  18.866  0.00  0.00    +0.000 A 
ATOM     11  C   UNL     1       3.855   2.413  18.789  0.00  0.00    +0.000 A 
ATOM     12  C   UNL     1       3.853   3.827  18.717  0.00  0.00    +0.000 A 
BRANCH  12  13
ATOM     13  C   UNL     1       5.171   4.453  18.575  0.00  0.00    +0.000 A 
ATOM     14  N   UNL     1       5.817   5.069  19.623  0.00  0.00    +0.000 N 
ATOM     15  N   UNL     1       7.042   5.497  19.282  0.00  0.00    +0.000 NA
ATOM     16  N   UNL     1       7.215   5.215  17.999  0.00  0.00    +0.000 NA
ATOM     17  C   UNL     1       6.080   4.601  17.544  0.00  0.00    +0.000 A 
ATOM     18  H   UNL     1       5.503   5.201  20.579  0.00  0.00    +0.000 HD
BRANCH  17  19
ATOM     19  C   UNL     1       5.983   4.168  16.193  0.00  0.00    +0.000 C 
ATOM     20  N   UNL     1       5.922   3.796  15.090  0.00  0.00    +0.000 NA
ENDBRANCH  17  19
ENDBRANCH  12  13
ENDBRANCH   4   7
BRANCH   1  21
ATOM     21  C   UNL     1       1.677  10.326  18.365  0.00  0.00    +0.000 C 
BRANCH  21  27
ATOM     22  C   UNL     1      -0.868  10.524  18.415  0.00  0.00    +0.000 A 
ATOM     23  N   UNL     1      -1.793  10.968  19.244  0.00  0.00    +0.000 NA
ATOM     24  C   UNL     1      -1.142  11.382  20.366  0.00  0.00    +0.000 A 
ATOM     25 CL   UNL     1      -1.983  11.942  21.737  0.00  0.00    +0.000 Cl
ATOM     26  C   UNL     1       0.220  11.204  20.235  0.00  0.00    +0.000 A 
ATOM     27  N   UNL     1       0.401  10.763  18.927  0.00  0.00    +0.000 N 
BRANCH  22  28
ATOM     28  C   UNL     1      -1.212   9.778  17.161  0.00  0.00    +0.000 C 
BRANCH  28  29
ATOM     29  C   UNL     1      -2.712   9.889  16.863  0.00  0.00    +0.000 C 
BRANCH  29  31
ATOM     30  C   UNL     1      -3.015  10.068  14.371  0.00  0.00    +0.000 C 
ATOM     31  C   UNL     1      -3.021  10.827  15.694  0.00  0.00    +0.000 C 
ENDBRANCH  29  31
ENDBRANCH  28  29
ENDBRANCH  22  28
BRANCH  26  32
ATOM     32  C   UNL     1       1.293  11.416  21.231  0.00  0.00    +0.000 C 
BRANCH  32  33
ATOM     33  O   UNL     1       1.152  10.415  22.230  0.00  0.00    +0.000 OA
ATOM     34  H   UNL     1       0.810  10.859  23.025  0.00  0.00    +0.000 HD
ENDBRANCH  32  33
ENDBRANCH  26  32
ENDBRANCH  21  27
ENDBRANCH   1  21
TORSDOF 10
ENDMDL
MODEL 7
REMARK VINA RESULT:      -8.0      3.477      8.633
REMARK  Name = 
REMARK  11 active torsions:
REMARK  status: ('A' for Active; 'I' for Inactive)
REMARK    1  A    between atoms: C_1  and  C_2
REMARK    2  A    between atoms: C_2  and  C_3
REMARK    3  A    between atoms: C_3  and  C_4
REMARK    4  A    between atoms: C_4  and  C_5
REMARK    5  A    between atoms: C_9  and  C_10
REMARK    6  A    between atoms: C_10  and  O_11
REMARK    7  A    between atoms: N_12  and  C_13
REMARK    8  A    between atoms: C_13  and  C_14
REMARK    9  A    between atoms: C_17  and  C_18
REMARK   10  A    between atoms: C_23  and  C_24
REMARK   11  A    between atoms: C_28  and  C_29
REMARK                            x       y       z     vdW  Elec       q    Type
REMARK                         _______ _______ _______ _____ _____    ______ ____
ROOT
ATOM      1  C   UNL     1       2.882   7.250  19.206  0.00  0.00    +0.000 A 
ATOM      2  C   UNL     1       2.730   7.846  17.948  0.00  0.00    +0.000 A 
ATOM      3  C   UNL     1       1.749   8.837  17.734  0.00  0.00    +0.000 A 
ATOM      4  C   UNL     1       0.857   9.248  18.748  0.00  0.00    +0.000 A 
ATOM      5  C   UNL     1       1.029   8.627  19.994  0.00  0.00    +0.000 A 
ATOM      6  C   UNL     1       2.046   7.694  20.233  0.00  0.00    +0.000 A 
ENDROOT
BRANCH   4   7
ATOM      7  C   UNL     1      -0.224  10.257  18.489  0.00  0.00    +0.000 A 
ATOM      8  C   UNL     1      -1.546   9.782  18.288  0.00  0.00    +0.000 A 
ATOM      9  C   UNL     1      -2.626  10.634  18.022  0.00  0.00    +0.000 A 
ATOM     10  C   UNL     1      -2.428  11.998  17.957  0.00  0.00    +0.000 A 
ATOM     11  C   UNL     1      -1.154  12.512  18.171  0.00  0.00    +0.000 A 
ATOM     12  C   UNL     1      -0.048  11.672  18.448  0.00  0.00    +0.000 A 
BRANCH  12  13
ATOM     13  C   UNL     1       1.217  12.362  18.715  0.00  0.00    +0.000 A 
ATOM     14  N   UNL     1       2.234  12.433  17.790  0.00  0.00    +0.000 N 
ATOM     15  N   UNL     1       3.260  13.182  18.221  0.00  0.00    +0.000 NA
ATOM     16  N   UNL     1       2.967  13.583  19.450  0.00  0.00    +0.000 NA
ATOM     17  C   UNL     1       1.739  13.076  19.778  0.00  0.00    +0.000 A 
ATOM     18  H   UNL     1       2.280  12.033  16.859  0.00  0.00    +0.000 HD
BRANCH  17  19
ATOM     19  C   UNL     1       1.155  13.357  21.044  0.00  0.00    +0.000 C 
ATOM     20  N   UNL     1       0.655  13.592  22.070  0.00  0.00    +0.000 NA
ENDBRANCH  17  19
ENDBRANCH  12  13
ENDBRANCH   4   7
BRANCH   1  21
ATOM     21  C   UNL     1       3.738   6.020  19.426  0.00  0.00    +0.000 C 
BRANCH  21  27
ATOM     22  C   UNL     1       3.116   4.358  17.589  0.00  0.00    +0.000 A 
ATOM     23  N   UNL     1       3.687   3.824  16.527  0.00  0.00    +0.000 NA
ATOM     24  C   UNL     1       4.924   4.384  16.429  0.00  0.00    +0.000 A 
ATOM     25 CL   UNL     1       5.965   4.038  15.126  0.00  0.00    +0.000 Cl
ATOM     26  C   UNL     1       5.139   5.281  17.455  0.00  0.00    +0.000 A 
ATOM     27  N   UNL     1       4.014   5.170  18.270  0.00  0.00    +0.000 N 
BRANCH  22  28
ATOM     28  C   UNL     1       1.664   4.159  17.900  0.00  0.00    +0.000 C 
BRANCH  28  29
ATOM     29  C   UNL     1       1.421   2.755  18.465  0.00  0.00    +0.000 C 
BRANCH  29  31
ATOM     30  C   UNL     1       0.928   4.130  20.513  0.00  0.00    +0.000 C 
ATOM     31  C   UNL     1       1.270   2.741  19.987  0.00  0.00    +0.000 C 
ENDBRANCH  29  31
ENDBRANCH  28  29
ENDBRANCH  22  28
BRANCH  26  32
ATOM     32  C   UNL     1       6.286   6.187  17.685  0.00  0.00    +0.000 C 
BRANCH  32  33
ATOM     33  O   UNL     1       7.364   5.396  18.165  0.00  0.00    +0.000 OA
ATOM     34  H   UNL     1       8.178   5.772  17.785  0.00  0.00    +0.000 HD
ENDBRANCH  32  33
ENDBRANCH  26  32
ENDBRANCH  21  27
ENDBRANCH   1  21
TORSDOF 10
ENDMDL
MODEL 8
REMARK VINA RESULT:      -8.0      3.333      8.448
REMARK  Name = 
REMARK  11 active torsions:
REMARK  status: ('A' for Active; 'I' for Inactive)
REMARK    1  A    between atoms: C_1  and  C_2
REMARK    2  A    between atoms: C_2  and  C_3
REMARK    3  A    between atoms: C_3  and  C_4
REMARK    4  A    between atoms: C_4  and  C_5
REMARK    5  A    between atoms: C_9  and  C_10
REMARK    6  A    between atoms: C_10  and  O_11
REMARK    7  A    between atoms: N_12  and  C_13
REMARK    8  A    between atoms: C_13  and  C_14
REMARK    9  A    between atoms: C_17  and  C_18
REMARK   10  A    between atoms: C_23  and  C_24
REMARK   11  A    between atoms: C_28  and  C_29
REMARK                            x       y       z     vdW  Elec       q    Type
REMARK                         _______ _______ _______ _____ _____    ______ ____
ROOT
ATOM      1  C   UNL     1       2.905   7.370  19.119  0.00  0.00    +0.000 A 
ATOM      2  C   UNL     1       2.816   7.996  17.870  0.00  0.00    +0.000 A 
ATOM      3  C   UNL     1       1.755   8.879  17.581  0.00  0.00    +0.000 A 
ATOM      4  C   UNL     1       0.721   9.147  18.505  0.00  0.00    +0.000 A 
ATOM      5  C   UNL     1       0.834   8.499  19.744  0.00  0.00    +0.000 A 
ATOM      6  C   UNL     1       1.922   7.675  20.064  0.00  0.00    +0.000 A 
ENDROOT
BRANCH   4   7
ATOM      7  C   UNL     1      -0.437  10.039  18.161  0.00  0.00    +0.000 A 
ATOM      8  C   UNL     1      -1.363   9.584  17.188  0.00  0.00    +0.000 A 
ATOM      9  C   UNL     1      -2.468  10.342  16.779  0.00  0.00    +0.000 A 
ATOM     10  C   UNL     1      -2.697  11.584  17.338  0.00  0.00    +0.000 A 
ATOM     11  C   UNL     1      -1.829  12.061  18.314  0.00  0.00    +0.000 A 
ATOM     12  C   UNL     1      -0.709  11.310  18.748  0.00  0.00    +0.000 A 
BRANCH  12  13
ATOM     13  C   UNL     1       0.076  11.915  19.828  0.00  0.00    +0.000 A 
ATOM     14  N   UNL     1      -0.358  11.946  21.134  0.00  0.00    +0.000 N 
ATOM     15  N   UNL     1       0.558  12.474  21.960  0.00  0.00    +0.000 NA
ATOM     16  N   UNL     1       1.592  12.842  21.218  0.00  0.00    +0.000 NA
ATOM     17  C   UNL     1       1.309  12.533  19.916  0.00  0.00    +0.000 A 
ATOM     18  H   UNL     1      -1.230  11.606  21.526  0.00  0.00    +0.000 HD
BRANCH  17  19
ATOM     19  C   UNL     1       2.253  12.803  18.887  0.00  0.00    +0.000 C 
ATOM     20  N   UNL     1       3.045  13.020  18.059  0.00  0.00    +0.000 NA
ENDBRANCH  17  19
ENDBRANCH  12  13
ENDBRANCH   4   7
BRANCH   1  21
ATOM     21  C   UNL     1       3.869   6.235  19.394  0.00  0.00    +0.000 C 
BRANCH  21  27
ATOM     22  C   UNL     1       3.232   4.482  17.650  0.00  0.00    +0.000 A 
ATOM     23  N   UNL     1       3.811   3.854  16.644  0.00  0.00    +0.000 NA
ATOM     24  C   UNL     1       5.074   4.355  16.551  0.00  0.00    +0.000 A 
ATOM     25 CL   UNL     1       6.137   3.880  15.308  0.00  0.00    +0.000 Cl
ATOM     26  C   UNL     1       5.296   5.309  17.522  0.00  0.00    +0.000 A 
ATOM     27  N   UNL     1       4.144   5.299  18.305  0.00  0.00    +0.000 N 
BRANCH  22  28
ATOM     28  C   UNL     1       1.763   4.365  17.924  0.00  0.00    +0.000 C 
BRANCH  28  29
ATOM     29  C   UNL     1       1.427   2.972  18.472  0.00  0.00    +0.000 C 
BRANCH  29  31
ATOM     30  C   UNL     1       1.368   3.989  20.773  0.00  0.00    +0.000 C 
ATOM     31  C   UNL     1       0.691   3.019  19.812  0.00  0.00    +0.000 C 
ENDBRANCH  29  31
ENDBRANCH  28  29
ENDBRANCH  22  28
BRANCH  26  32
ATOM     32  C   UNL     1       6.474   6.179  17.730  0.00  0.00    +0.000 C 
BRANCH  32  33
ATOM     33  O   UNL     1       6.385   7.247  16.797  0.00  0.00    +0.000 OA
ATOM     34  H   UNL     1       7.280   7.623  16.716  0.00  0.00    +0.000 HD
ENDBRANCH  32  33
ENDBRANCH  26  32
ENDBRANCH  21  27
ENDBRANCH   1  21
TORSDOF 10
ENDMDL
MODEL 9
REMARK VINA RESULT:      -8.0      3.699      8.834
REMARK  Name = 
REMARK  11 active torsions:
REMARK  status: ('A' for Active; 'I' for Inactive)
REMARK    1  A    between atoms: C_1  and  C_2
REMARK    2  A    between atoms: C_2  and  C_3
REMARK    3  A    between atoms: C_3  and  C_4
REMARK    4  A    between atoms: C_4  and  C_5
REMARK    5  A    between atoms: C_9  and  C_10
REMARK    6  A    between atoms: C_10  and  O_11
REMARK    7  A    between atoms: N_12  and  C_13
REMARK    8  A    between atoms: C_13  and  C_14
REMARK    9  A    between atoms: C_17  and  C_18
REMARK   10  A    between atoms: C_23  and  C_24
REMARK   11  A    between atoms: C_28  and  C_29
REMARK                            x       y       z     vdW  Elec       q    Type
REMARK                         _______ _______ _______ _____ _____    ______ ____
ROOT
ATOM      1  C   UNL     1       2.372   7.223  18.830  0.00  0.00    +0.000 A 
ATOM      2  C   UNL     1       1.940   8.416  18.238  0.00  0.00    +0.000 A 
ATOM      3  C   UNL     1       1.316   9.419  19.009  0.00  0.00    +0.000 A 
ATOM      4  C   UNL     1       1.063   9.263  20.389  0.00  0.00    +0.000 A 
ATOM      5  C   UNL     1       1.500   8.055  20.952  0.00  0.00    +0.000 A 
ATOM      6  C   UNL     1       2.183   7.083  20.207  0.00  0.00    +0.000 A 
ENDROOT
BRANCH   4   7
ATOM      7  C   UNL     1       0.340  10.312  21.185  0.00  0.00    +0.000 A 
ATOM      8  C   UNL     1      -0.454   9.888  22.281  0.00  0.00    +0.000 A 
ATOM      9  C   UNL     1      -1.183  10.779  23.079  0.00  0.00    +0.000 A 
ATOM     10  C   UNL     1      -1.138  12.134  22.818  0.00  0.00    +0.000 A 
ATOM     11  C   UNL     1      -0.353  12.598  21.768  0.00  0.00    +0.000 A 
ATOM     12  C   UNL     1       0.398  11.718  20.952  0.00  0.00    +0.000 A 
BRANCH  12  13
ATOM     13  C   UNL     1       1.226  12.359  19.927  0.00  0.00    +0.000 A 
ATOM     14  N   UNL     1       0.953  12.261  18.582  0.00  0.00    +0.000 N 
ATOM     15  N   UNL     1       1.795  12.994  17.838  0.00  0.00    +0.000 NA
ATOM     16  N   UNL     1       2.666  13.554  18.665  0.00  0.00    +0.000 NA
ATOM     17  C   UNL     1       2.352  13.162  19.938  0.00  0.00    +0.000 A 
ATOM     18  H   UNL     1       0.209  11.752  18.116  0.00  0.00    +0.000 HD
BRANCH  17  19
ATOM     19  C   UNL     1       3.115  13.624  21.046  0.00  0.00    +0.000 C 
ATOM     20  N   UNL     1       3.759  13.991  21.945  0.00  0.00    +0.000 NA
ENDBRANCH  17  19
ENDBRANCH  12  13
ENDBRANCH   4   7
BRANCH   1  21
ATOM     21  C   UNL     1       2.814   6.024  18.018  0.00  0.00    +0.000 C 
BRANCH  21  27
ATOM     22  C   UNL     1       4.343   4.355  19.201  0.00  0.00    +0.000 A 
ATOM     23  N   UNL     1       5.615   4.007  19.167  0.00  0.00    +0.000 NA
ATOM     24  C   UNL     1       6.196   4.758  18.191  0.00  0.00    +0.000 A 
ATOM     25 CL   UNL     1       7.828   4.550  17.751  0.00  0.00    +0.000 Cl
ATOM     26  C   UNL     1       5.273   5.600  17.606  0.00  0.00    +0.000 A 
ATOM     27  N   UNL     1       4.105   5.422  18.344  0.00  0.00    +0.000 N 
BRANCH  22  28
ATOM     28  C   UNL     1       3.327   3.590  19.994  0.00  0.00    +0.000 C 
BRANCH  28  29
ATOM     29  C   UNL     1       2.646   2.531  19.119  0.00  0.00    +0.000 C 
BRANCH  29  31
ATOM     30  C   UNL     1       0.657   3.684  20.139  0.00  0.00    +0.000 C 
ATOM     31  C   UNL     1       1.120   2.624  19.146  0.00  0.00    +0.000 C 
ENDBRANCH  29  31
ENDBRANCH  28  29
ENDBRANCH  22  28
BRANCH  26  32
ATOM     32  C   UNL     1       5.433   6.509  16.449  0.00  0.00    +0.000 C 
BRANCH  32  33
ATOM     33  O   UNL     1       6.456   7.439  16.775  0.00  0.00    +0.000 OA
ATOM     34  H   UNL     1       6.799   7.183  17.650  0.00  0.00    +0.000 HD
ENDBRANCH  32  33
ENDBRANCH  26  32
ENDBRANCH  21  27
ENDBRANCH   1  21
TORSDOF 10
ENDMDL
