MODEL 1
REMARK VINA RESULT:      -7.5      0.000      0.000
REMARK  Name = 
REMARK  4 active torsions:
REMARK  status: ('A' for Active; 'I' for Inactive)
REMARK    1  A    between atoms: C_2  and  C_3
REMARK    2  A    between atoms: C_3  and  N_4
REMARK    3  A    between atoms: C_14  and  O_15
REMARK    4  A    between atoms: O_15  and  C_16
REMARK                            x       y       z     vdW  Elec       q    Type
REMARK                         _______ _______ _______ _____ _____    ______ ____
ROOT
ATOM      1  O   UNL     1       3.209   2.835  18.364  0.00  0.00    +0.000 OA
ATOM      2  C   UNL     1       3.154   4.009  17.978  0.00  0.00    +0.000 C 
ATOM      3  N   UNL     1       2.238   4.899  18.529  0.00  0.00    +0.000 N 
ATOM      4  C   UNL     1       2.174   6.325  18.242  0.00  0.00    +0.000 C 
ATOM      5  C   UNL     1       2.735   7.094  19.428  0.00  0.00    +0.000 C 
ATOM      6  C   UNL     1       1.956   6.779  20.724  0.00  0.00    +0.000 C 
ATOM      7  C   UNL     1       1.906   5.254  20.938  0.00  0.00    +0.000 C 
ATOM      8  C   UNL     1       1.445   4.501  19.688  0.00  0.00    +0.000 C 
ENDROOT
BRANCH   2   9
ATOM      9  C   UNL     1       4.110   4.493  16.878  0.00  0.00    +0.000 C 
BRANCH   9  10
ATOM     10  N   UNL     1       5.279   5.188  17.413  0.00  0.00    +0.000 N 
ATOM     11  N   UNL     1       5.725   4.762  18.650  0.00  0.00    +0.000 NA
ATOM     12  C   UNL     1       6.761   5.354  19.143  0.00  0.00    +0.000 A 
ATOM     13  C   UNL     1       7.511   6.437  18.499  0.00  0.00    +0.000 A 
ATOM     14  C   UNL     1       7.026   6.882  17.340  0.00  0.00    +0.000 A 
ATOM     15  C   UNL     1       5.814   6.279  16.741  0.00  0.00    +0.000 A 
ATOM     16  O   UNL     1       5.373   6.756  15.698  0.00  0.00    +0.000 OA
ENDBRANCH   9  10
ENDBRANCH   2   9
BRANCH   6  17
ATOM     17  O   UNL     1       0.603   7.272  20.700  0.00  0.00    +0.000 OA
BRANCH  17  18
ATOM     18  C   UNL     1       0.334   8.537  21.184  0.00  0.00    +0.000 A 
ATOM     19  C   UNL     1       0.039   8.539  22.559  0.00  0.00    +0.000 A 
ATOM     20  C   UNL     1      -0.357   9.708  23.201  0.00  0.00    +0.000 A 
ATOM     21  C   UNL     1      -0.534  10.866  22.453  0.00  0.00    +0.000 A 
ATOM     22  C   UNL     1      -0.272  10.869  21.073  0.00  0.00    +0.000 A 
ATOM     23  C   UNL     1      -0.579  11.989  20.282  0.00  0.00    +0.000 A 
ATOM     24  C   UNL     1      -0.306  11.989  18.922  0.00  0.00    +0.000 A 
ATOM     25  C   UNL     1       0.352  10.901  18.406  0.00  0.00    +0.000 A 
ATOM     26  N   UNL     1       0.636   9.805  19.137  0.00  0.00    +0.000 NA
ATOM     27  C   UNL     1       0.263   9.730  20.436  0.00  0.00    +0.000 A 
ENDBRANCH  17  18
ENDBRANCH   6  17
TORSDOF 4
ENDMDL
MODEL 2
REMARK VINA RESULT:      -7.2      1.052      2.137
REMARK  Name = 
REMARK  4 active torsions:
REMARK  status: ('A' for Active; 'I' for Inactive)
REMARK    1  A    between atoms: C_2  and  C_3
REMARK    2  A    between atoms: C_3  and  N_4
REMARK    3  A    between atoms: C_14  and  O_15
REMARK    4  A    between atoms: O_15  and  C_16
REMARK                            x       y       z     vdW  Elec       q    Type
REMARK                         _______ _______ _______ _____ _____    ______ ____
ROOT
ATOM      1  O   UNL     1       3.842   2.658  18.904  0.00  0.00    +0.000 OA
ATOM      2  C   UNL     1       3.909   3.691  18.227  0.00  0.00    +0.000 C 
ATOM      3  N   UNL     1       2.966   4.703  18.373  0.00  0.00    +0.000 N 
ATOM      4  C   UNL     1       3.023   6.005  17.724  0.00  0.00    +0.000 C 
ATOM      5  C   UNL     1       3.431   7.051  18.750  0.00  0.00    +0.000 C 
ATOM      6  C   UNL     1       2.443   7.093  19.937  0.00  0.00    +0.000 C 
ATOM      7  C   UNL     1       2.281   5.677  20.523  0.00  0.00    +0.000 C 
ATOM      8  C   UNL     1       1.982   4.629  19.449  0.00  0.00    +0.000 C 
ENDROOT
BRANCH   2   9
ATOM      9  C   UNL     1       5.050   3.861  17.213  0.00  0.00    +0.000 C 
BRANCH   9  10
ATOM     10  N   UNL     1       6.041   4.847  17.639  0.00  0.00    +0.000 N 
ATOM     11  N   UNL     1       6.463   4.755  18.952  0.00  0.00    +0.000 NA
ATOM     12  C   UNL     1       7.343   5.609  19.353  0.00  0.00    +0.000 A 
ATOM     13  C   UNL     1       7.941   6.667  18.532  0.00  0.00    +0.000 A 
ATOM     14  C   UNL     1       7.472   6.786  17.291  0.00  0.00    +0.000 A 
ATOM     15  C   UNL     1       6.427   5.868  16.781  0.00  0.00    +0.000 A 
ATOM     16  O   UNL     1       5.988   6.048  15.648  0.00  0.00    +0.000 OA
ENDBRANCH   9  10
ENDBRANCH   2   9
BRANCH   6  17
ATOM     17  O   UNL     1       1.139   7.577  19.566  0.00  0.00    +0.000 OA
BRANCH  17  18
ATOM     18  C   UNL     1       0.855   8.923  19.685  0.00  0.00    +0.000 A 
ATOM     19  C   UNL     1       1.379   9.682  18.624  0.00  0.00    +0.000 A 
ATOM     20  C   UNL     1       1.281  11.070  18.625  0.00  0.00    +0.000 A 
ATOM     21  C   UNL     1       0.725  11.710  19.727  0.00  0.00    +0.000 A 
ATOM     22  C   UNL     1       0.226  10.963  20.806  0.00  0.00    +0.000 A 
ATOM     23  C   UNL     1      -0.208  11.597  21.983  0.00  0.00    +0.000 A 
ATOM     24  C   UNL     1      -0.711  10.853  23.041  0.00  0.00    +0.000 A 
ATOM     25  C   UNL     1      -0.851   9.500  22.857  0.00  0.00    +0.000 A 
ATOM     26  N   UNL     1      -0.420   8.866  21.750  0.00  0.00    +0.000 NA
ATOM     27  C   UNL     1       0.193   9.554  20.758  0.00  0.00    +0.000 A 
ENDBRANCH  17  18
ENDBRANCH   6  17
TORSDOF 4
ENDMDL
MODEL 3
REMARK VINA RESULT:      -7.2      2.153      2.643
REMARK  Name = 
REMARK  4 active torsions:
REMARK  status: ('A' for Active; 'I' for Inactive)
REMARK    1  A    between atoms: C_2  and  C_3
REMARK    2  A    between atoms: C_3  and  N_4
REMARK    3  A    between atoms: C_14  and  O_15
REMARK    4  A    between atoms: O_15  and  C_16
REMARK                            x       y       z     vdW  Elec       q    Type
REMARK                         _______ _______ _______ _____ _____    ______ ____
ROOT
ATOM      1  O   UNL     1       2.990   3.851  20.859  0.00  0.00    +0.000 OA
ATOM      2  C   UNL     1       3.122   4.176  19.673  0.00  0.00    +0.000 C 
ATOM      3  N   UNL     1       2.369   5.212  19.128  0.00  0.00    +0.000 N 
ATOM      4  C   UNL     1       2.534   5.757  17.789  0.00  0.00    +0.000 C 
ATOM      5  C   UNL     1       3.226   7.108  17.887  0.00  0.00    +0.000 C 
ATOM      6  C   UNL     1       2.421   8.092  18.764  0.00  0.00    +0.000 C 
ATOM      7  C   UNL     1       2.127   7.442  20.130  0.00  0.00    +0.000 C 
ATOM      8  C   UNL     1       1.536   6.038  19.996  0.00  0.00    +0.000 C 
ENDROOT
BRANCH   2   9
ATOM      9  C   UNL     1       4.131   3.430  18.788  0.00  0.00    +0.000 C 
BRANCH   9  10
ATOM     10  N   UNL     1       5.336   4.214  18.523  0.00  0.00    +0.000 N 
ATOM     11  N   UNL     1       5.885   4.869  19.609  0.00  0.00    +0.000 NA
ATOM     12  C   UNL     1       6.954   5.563  19.405  0.00  0.00    +0.000 A 
ATOM     13  C   UNL     1       7.642   5.710  18.118  0.00  0.00    +0.000 A 
ATOM     14  C   UNL     1       7.060   5.130  17.069  0.00  0.00    +0.000 A 
ATOM     15  C   UNL     1       5.806   4.357  17.225  0.00  0.00    +0.000 A 
ATOM     16  O   UNL     1       5.278   3.884  16.222  0.00  0.00    +0.000 OA
ENDBRANCH   9  10
ENDBRANCH   2   9
BRANCH   6  17
ATOM     17  O   UNL     1       1.167   8.476  18.171  0.00  0.00    +0.000 OA
BRANCH  17  18
ATOM     18  C   UNL     1       0.765   9.796  18.230  0.00  0.00    +0.000 A 
ATOM     19  C   UNL     1       1.815  10.667  18.565  0.00  0.00    +0.000 A 
ATOM     20  C   UNL     1       1.579  12.023  18.769  0.00  0.00    +0.000 A 
ATOM     21  C   UNL     1       0.274  12.500  18.715  0.00  0.00    +0.000 A 
ATOM     22  C   UNL     1      -0.788  11.632  18.412  0.00  0.00    +0.000 A 
ATOM     23  C   UNL     1      -2.122  12.069  18.491  0.00  0.00    +0.000 A 
ATOM     24  C   UNL     1      -3.165  11.209  18.178  0.00  0.00    +0.000 A 
ATOM     25  C   UNL     1      -2.842   9.962  17.705  0.00  0.00    +0.000 A 
ATOM     26  N   UNL     1      -1.574   9.512  17.643  0.00  0.00    +0.000 NA
ATOM     27  C   UNL     1      -0.548  10.287  18.066  0.00  0.00    +0.000 A 
ENDBRANCH  17  18
ENDBRANCH   6  17
TORSDOF 4
ENDMDL
MODEL 4
REMARK VINA RESULT:      -7.0      1.142      1.445
REMARK  Name = 
REMARK  4 active torsions:
REMARK  status: ('A' for Active; 'I' for Inactive)
REMARK    1  A    between atoms: C_2  and  C_3
REMARK    2  A    between atoms: C_3  and  N_4
REMARK    3  A    between atoms: C_14  and  O_15
REMARK    4  A    between atoms: O_15  and  C_16
REMARK                            x       y       z     vdW  Elec       q    Type
REMARK                         _______ _______ _______ _____ _____    ______ ____
ROOT
ATOM      1  O   UNL     1       2.844   2.322  18.871  0.00  0.00    +0.000 OA
ATOM      2  C   UNL     1       2.896   3.422  18.307  0.00  0.00    +0.000 C 
ATOM      3  N   UNL     1       2.082   4.473  18.717  0.00  0.00    +0.000 N 
ATOM      4  C   UNL     1       2.151   5.837  18.211  0.00  0.00    +0.000 C 
ATOM      5  C   UNL     1       2.808   6.720  19.259  0.00  0.00    +0.000 C 
ATOM      6  C   UNL     1       2.028   6.689  20.593  0.00  0.00    +0.000 C 
ATOM      7  C   UNL     1       1.835   5.228  21.042  0.00  0.00    +0.000 C 
ATOM      8  C   UNL     1       1.278   4.340  19.928  0.00  0.00    +0.000 C 
ENDROOT
BRANCH   2   9
ATOM      9  C   UNL     1       3.872   3.632  17.140  0.00  0.00    +0.000 C 
BRANCH   9  10
ATOM     10  N   UNL     1       4.927   4.593  17.455  0.00  0.00    +0.000 N 
ATOM     11  N   UNL     1       5.167   5.566  16.504  0.00  0.00    +0.000 NA
ATOM     12  C   UNL     1       6.089   6.432  16.759  0.00  0.00    +0.000 A 
ATOM     13  C   UNL     1       6.902   6.477  17.979  0.00  0.00    +0.000 A 
ATOM     14  C   UNL     1       6.706   5.491  18.854  0.00  0.00    +0.000 A 
ATOM     15  C   UNL     1       5.696   4.438  18.601  0.00  0.00    +0.000 A 
ATOM     16  O   UNL     1       5.588   3.521  19.411  0.00  0.00    +0.000 OA
ENDBRANCH   9  10
ENDBRANCH   2   9
BRANCH   6  17
ATOM     17  O   UNL     1       0.730   7.304  20.499  0.00  0.00    +0.000 OA
BRANCH  17  18
ATOM     18  C   UNL     1       0.532   8.556  21.047  0.00  0.00    +0.000 A 
ATOM     19  C   UNL     1      -0.003   8.499  22.346  0.00  0.00    +0.000 A 
ATOM     20  C   UNL     1      -0.365   9.662  23.020  0.00  0.00    +0.000 A 
ATOM     21  C   UNL     1      -0.265  10.884  22.364  0.00  0.00    +0.000 A 
ATOM     22  C   UNL     1       0.238  10.950  21.054  0.00  0.00    +0.000 A 
ATOM     23  C   UNL     1       0.213  12.155  20.332  0.00  0.00    +0.000 A 
ATOM     24  C   UNL     1       0.723  12.215  19.042  0.00  0.00    +0.000 A 
ATOM     25  C   UNL     1       1.328  11.089  18.545  0.00  0.00    +0.000 A 
ATOM     26  N   UNL     1       1.344   9.915  19.207  0.00  0.00    +0.000 NA
ATOM     27  C   UNL     1       0.738   9.799  20.412  0.00  0.00    +0.000 A 
ENDBRANCH  17  18
ENDBRANCH   6  17
TORSDOF 4
ENDMDL
MODEL 5
REMARK VINA RESULT:      -7.0      1.956      4.173
REMARK  Name = 
REMARK  4 active torsions:
REMARK  status: ('A' for Active; 'I' for Inactive)
REMARK    1  A    between atoms: C_2  and  C_3
REMARK    2  A    between atoms: C_3  and  N_4
REMARK    3  A    between atoms: C_14  and  O_15
REMARK    4  A    between atoms: O_15  and  C_16
REMARK                            x       y       z     vdW  Elec       q    Type
REMARK                         _______ _______ _______ _____ _____    ______ ____
ROOT
ATOM      1  O   UNL     1       5.843   3.985  17.616  0.00  0.00    +0.000 OA
ATOM      2  C   UNL     1       4.688   4.050  18.055  0.00  0.00    +0.000 C 
ATOM      3  N   UNL     1       4.164   5.256  18.509  0.00  0.00    +0.000 N 
ATOM      4  C   UNL     1       2.785   5.470  18.923  0.00  0.00    +0.000 C 
ATOM      5  C   UNL     1       2.058   6.248  17.838  0.00  0.00    +0.000 C 
ATOM      6  C   UNL     1       2.745   7.603  17.558  0.00  0.00    +0.000 C 
ATOM      7  C   UNL     1       4.239   7.373  17.264  0.00  0.00    +0.000 C 
ATOM      8  C   UNL     1       4.915   6.493  18.317  0.00  0.00    +0.000 C 
ENDROOT
BRANCH   2   9
ATOM      9  C   UNL     1       3.819   2.785  18.096  0.00  0.00    +0.000 C 
BRANCH   9  10
ATOM     10  N   UNL     1       2.972   2.722  19.285  0.00  0.00    +0.000 N 
ATOM     11  N   UNL     1       3.628   2.571  20.491  0.00  0.00    +0.000 NA
ATOM     12  C   UNL     1       2.904   2.520  21.558  0.00  0.00    +0.000 A 
ATOM     13  C   UNL     1       1.441   2.616  21.602  0.00  0.00    +0.000 A 
ATOM     14  C   UNL     1       0.821   2.691  20.425  0.00  0.00    +0.000 A 
ATOM     15  C   UNL     1       1.589   2.707  19.159  0.00  0.00    +0.000 A 
ATOM     16  O   UNL     1       0.972   2.724  18.097  0.00  0.00    +0.000 OA
ENDBRANCH   9  10
ENDBRANCH   2   9
BRANCH   6  17
ATOM     17  O   UNL     1       2.641   8.523  18.661  0.00  0.00    +0.000 OA
BRANCH  17  18
ATOM     18  C   UNL     1       1.408   9.052  18.989  0.00  0.00    +0.000 A 
ATOM     19  C   UNL     1       0.706   9.525  17.867  0.00  0.00    +0.000 A 
ATOM     20  C   UNL     1      -0.511  10.184  18.014  0.00  0.00    +0.000 A 
ATOM     21  C   UNL     1      -0.994  10.440  19.293  0.00  0.00    +0.000 A 
ATOM     22  C   UNL     1      -0.284  10.000  20.422  0.00  0.00    +0.000 A 
ATOM     23  C   UNL     1      -0.686  10.372  21.717  0.00  0.00    +0.000 A 
ATOM     24  C   UNL     1       0.013   9.923  22.829  0.00  0.00    +0.000 A 
ATOM     25  C   UNL     1       1.040   9.038  22.619  0.00  0.00    +0.000 A 
ATOM     26  N   UNL     1       1.459   8.684  21.388  0.00  0.00    +0.000 NA
ATOM     27  C   UNL     1       0.876   9.211  20.286  0.00  0.00    +0.000 A 
ENDBRANCH  17  18
ENDBRANCH   6  17
TORSDOF 4
ENDMDL
MODEL 6
REMARK VINA RESULT:      -6.9      3.260      9.177
REMARK  Name = 
REMARK  4 active torsions:
REMARK  status: ('A' for Active; 'I' for Inactive)
REMARK    1  A    between atoms: C_2  and  C_3
REMARK    2  A    between atoms: C_3  and  N_4
REMARK    3  A    between atoms: C_14  and  O_15
REMARK    4  A    between atoms: O_15  and  C_16
REMARK                            x       y       z     vdW  Elec       q    Type
REMARK                         _______ _______ _______ _____ _____    ______ ____
ROOT
ATOM      1  O   UNL     1      -1.346  12.136  20.705  0.00  0.00    +0.000 OA
ATOM      2  C   UNL     1      -1.037  11.322  21.584  0.00  0.00    +0.000 C 
ATOM      3  N   UNL     1      -0.646  10.028  21.253  0.00  0.00    +0.000 N 
ATOM      4  C   UNL     1      -0.142   9.036  22.192  0.00  0.00    +0.000 C 
ATOM      5  C   UNL     1       1.361   8.900  22.009  0.00  0.00    +0.000 C 
ATOM      6  C   UNL     1       1.718   8.491  20.563  0.00  0.00    +0.000 C 
ATOM      7  C   UNL     1       1.056   9.467  19.572  0.00  0.00    +0.000 C 
ATOM      8  C   UNL     1      -0.434   9.668  19.854  0.00  0.00    +0.000 C 
ENDROOT
BRANCH   2   9
ATOM      9  C   UNL     1      -1.082  11.744  23.060  0.00  0.00    +0.000 C 
BRANCH   9  10
ATOM     10  N   UNL     1      -2.165  12.684  23.344  0.00  0.00    +0.000 N 
ATOM     11  N   UNL     1      -3.449  12.198  23.184  0.00  0.00    +0.000 NA
ATOM     12  C   UNL     1      -4.424  13.005  23.435  0.00  0.00    +0.000 A 
ATOM     13  C   UNL     1      -4.287  14.395  23.884  0.00  0.00    +0.000 A 
ATOM     14  C   UNL     1      -3.044  14.868  23.965  0.00  0.00    +0.000 A 
ATOM     15  C   UNL     1      -1.880  14.009  23.646  0.00  0.00    +0.000 A 
ATOM     16  O   UNL     1      -0.756  14.503  23.684  0.00  0.00    +0.000 OA
ENDBRANCH   9  10
ENDBRANCH   2   9
BRANCH   6  17
ATOM     17  O   UNL     1       1.287   7.157  20.234  0.00  0.00    +0.000 OA
BRANCH  17  18
ATOM     18  C   UNL     1       2.081   6.366  19.428  0.00  0.00    +0.000 A 
ATOM     19  C   UNL     1       3.018   7.112  18.692  0.00  0.00    +0.000 A 
ATOM     20  C   UNL     1       3.837   6.498  17.750  0.00  0.00    +0.000 A 
ATOM     21  C   UNL     1       3.668   5.143  17.485  0.00  0.00    +0.000 A 
ATOM     22  C   UNL     1       2.713   4.394  18.192  0.00  0.00    +0.000 A 
ATOM     23  C   UNL     1       2.435   3.062  17.838  0.00  0.00    +0.000 A 
ATOM     24  C   UNL     1       1.499   2.324  18.550  0.00  0.00    +0.000 A 
ATOM     25  C   UNL     1       0.934   2.911  19.654  0.00  0.00    +0.000 A 
ATOM     26  N   UNL     1       1.165   4.192  20.000  0.00  0.00    +0.000 NA
ATOM     27  C   UNL     1       1.975   4.971  19.245  0.00  0.00    +0.000 A 
ENDBRANCH  17  18
ENDBRANCH   6  17
TORSDOF 4
ENDMDL
MODEL 7
REMARK VINA RESULT:      -6.9      2.603      4.389
REMARK  Name = 
REMARK  4 active torsions:
REMARK  status: ('A' for Active; 'I' for Inactive)
REMARK    1  A    between atoms: C_2  and  C_3
REMARK    2  A    between atoms: C_3  and  N_4
REMARK    3  A    between atoms: C_14  and  O_15
REMARK    4  A    between atoms: O_15  and  C_16
REMARK                            x       y       z     vdW  Elec       q    Type
REMARK                         _______ _______ _______ _____ _____    ______ ____
ROOT
ATOM      1  O   UNL     1       2.568   7.412  17.667  0.00  0.00    +0.000 OA
ATOM      2  C   UNL     1       2.245   7.568  18.851  0.00  0.00    +0.000 C 
ATOM      3  N   UNL     1       1.748   8.787  19.301  0.00  0.00    +0.000 N 
ATOM      4  C   UNL     1       1.222   9.040  20.635  0.00  0.00    +0.000 C 
ATOM      5  C   UNL     1      -0.294   9.126  20.560  0.00  0.00    +0.000 C 
ATOM      6  C   UNL     1      -0.750  10.239  19.590  0.00  0.00    +0.000 C 
ATOM      7  C   UNL     1      -0.069  10.041  18.222  0.00  0.00    +0.000 C 
ATOM      8  C   UNL     1       1.443   9.845  18.343  0.00  0.00    +0.000 C 
ENDROOT
BRANCH   2   9
ATOM      9  C   UNL     1       2.392   6.401  19.839  0.00  0.00    +0.000 C 
BRANCH   9  10
ATOM     10  N   UNL     1       2.720   5.140  19.177  0.00  0.00    +0.000 N 
ATOM     11  N   UNL     1       1.648   4.346  18.816  0.00  0.00    +0.000 NA
ATOM     12  C   UNL     1       1.909   3.230  18.223  0.00  0.00    +0.000 A 
ATOM     13  C   UNL     1       3.249   2.734  17.891  0.00  0.00    +0.000 A 
ATOM     14  C   UNL     1       4.273   3.478  18.308  0.00  0.00    +0.000 A 
ATOM     15  C   UNL     1       4.045   4.747  19.036  0.00  0.00    +0.000 A 
ATOM     16  O   UNL     1       5.019   5.374  19.446  0.00  0.00    +0.000 OA
ENDBRANCH   9  10
ENDBRANCH   2   9
BRANCH   6  17
ATOM     17  O   UNL     1      -0.430  11.561  20.063  0.00  0.00    +0.000 OA
BRANCH  17  18
ATOM     18  C   UNL     1      -1.267  12.178  20.971  0.00  0.00    +0.000 A 
ATOM     19  C   UNL     1      -0.631  12.454  22.194  0.00  0.00    +0.000 A 
ATOM     20  C   UNL     1      -1.344  12.982  23.266  0.00  0.00    +0.000 A 
ATOM     21  C   UNL     1      -2.717  13.164  23.143  0.00  0.00    +0.000 A 
ATOM     22  C   UNL     1      -3.369  12.861  21.936  0.00  0.00    +0.000 A 
ATOM     23  C   UNL     1      -4.771  12.907  21.843  0.00  0.00    +0.000 A 
ATOM     24  C   UNL     1      -5.408  12.619  20.644  0.00  0.00    +0.000 A 
ATOM     25  C   UNL     1      -4.619  12.383  19.546  0.00  0.00    +0.000 A 
ATOM     26  N   UNL     1      -3.276  12.310  19.614  0.00  0.00    +0.000 NA
ATOM     27  C   UNL     1      -2.639  12.459  20.799  0.00  0.00    +0.000 A 
ENDBRANCH  17  18
ENDBRANCH   6  17
TORSDOF 4
ENDMDL
MODEL 8
REMARK VINA RESULT:      -6.9      2.558      8.401
REMARK  Name = 
REMARK  4 active torsions:
REMARK  status: ('A' for Active; 'I' for Inactive)
REMARK    1  A    between atoms: C_2  and  C_3
REMARK    2  A    between atoms: C_3  and  N_4
REMARK    3  A    between atoms: C_14  and  O_15
REMARK    4  A    between atoms: O_15  and  C_16
REMARK                            x       y       z     vdW  Elec       q    Type
REMARK                         _______ _______ _______ _____ _____    ______ ____
ROOT
ATOM      1  O   UNL     1      -0.551  10.382  21.208  0.00  0.00    +0.000 OA
ATOM      2  C   UNL     1       0.011  10.659  20.141  0.00  0.00    +0.000 C 
ATOM      3  N   UNL     1       1.145   9.965  19.731  0.00  0.00    +0.000 N 
ATOM      4  C   UNL     1       1.807  10.121  18.444  0.00  0.00    +0.000 C 
ATOM      5  C   UNL     1       1.483   8.918  17.573  0.00  0.00    +0.000 C 
ATOM      6  C   UNL     1       1.931   7.599  18.242  0.00  0.00    +0.000 C 
ATOM      7  C   UNL     1       1.340   7.517  19.662  0.00  0.00    +0.000 C 
ATOM      8  C   UNL     1       1.586   8.789  20.475  0.00  0.00    +0.000 C 
ENDROOT
BRANCH   2   9
ATOM      9  C   UNL     1      -0.550  11.780  19.255  0.00  0.00    +0.000 C 
BRANCH   9  10
ATOM     10  N   UNL     1      -1.789  11.399  18.580  0.00  0.00    +0.000 N 
ATOM     11  N   UNL     1      -1.648  10.633  17.439  0.00  0.00    +0.000 NA
ATOM     12  C   UNL     1      -2.727  10.276  16.827  0.00  0.00    +0.000 A 
ATOM     13  C   UNL     1      -4.094  10.608  17.244  0.00  0.00    +0.000 A 
ATOM     14  C   UNL     1      -4.208  11.405  18.306  0.00  0.00    +0.000 A 
ATOM     15  C   UNL     1      -3.009  11.889  19.027  0.00  0.00    +0.000 A 
ATOM     16  O   UNL     1      -3.162  12.664  19.968  0.00  0.00    +0.000 OA
ENDBRANCH   9  10
ENDBRANCH   2   9
BRANCH   6  17
ATOM     17  O   UNL     1       3.362   7.479  18.344  0.00  0.00    +0.000 OA
BRANCH  17  18
ATOM     18  C   UNL     1       3.992   6.387  17.781  0.00  0.00    +0.000 A 
ATOM     19  C   UNL     1       4.702   6.715  16.612  0.00  0.00    +0.000 A 
ATOM     20  C   UNL     1       5.318   5.727  15.851  0.00  0.00    +0.000 A 
ATOM     21  C   UNL     1       5.160   4.394  16.215  0.00  0.00    +0.000 A 
ATOM     22  C   UNL     1       4.427   4.052  17.363  0.00  0.00    +0.000 A 
ATOM     23  C   UNL     1       4.141   2.709  17.664  0.00  0.00    +0.000 A 
ATOM     24  C   UNL     1       3.427   2.378  18.807  0.00  0.00    +0.000 A 
ATOM     25  C   UNL     1       3.096   3.396  19.666  0.00  0.00    +0.000 A 
ATOM     26  N   UNL     1       3.336   4.692  19.390  0.00  0.00    +0.000 NA
ATOM     27  C   UNL     1       3.916   5.049  18.220  0.00  0.00    +0.000 A 
ENDBRANCH  17  18
ENDBRANCH   6  17
TORSDOF 4
ENDMDL
MODEL 9
REMARK VINA RESULT:      -6.8      3.340      9.197
REMARK  Name = 
REMARK  4 active torsions:
REMARK  status: ('A' for Active; 'I' for Inactive)
REMARK    1  A    between atoms: C_2  and  C_3
REMARK    2  A    between atoms: C_3  and  N_4
REMARK    3  A    between atoms: C_14  and  O_15
REMARK    4  A    between atoms: O_15  and  C_16
REMARK                            x       y       z     vdW  Elec       q    Type
REMARK                         _______ _______ _______ _____ _____    ______ ____
ROOT
ATOM      1  O   UNL     1      -1.566  10.991  23.475  0.00  0.00    +0.000 OA
ATOM      2  C   UNL     1      -0.828  11.374  22.560  0.00  0.00    +0.000 C 
ATOM      3  N   UNL     1       0.186  10.556  22.070  0.00  0.00    +0.000 N 
ATOM      4  C   UNL     1       1.024  10.855  20.918  0.00  0.00    +0.000 C 
ATOM      5  C   UNL     1       0.578   9.996  19.745  0.00  0.00    +0.000 C 
ATOM      6  C   UNL     1       0.660   8.491  20.085  0.00  0.00    +0.000 C 
ATOM      7  C   UNL     1      -0.112   8.214  21.389  0.00  0.00    +0.000 C 
ATOM      8  C   UNL     1       0.281   9.170  22.517  0.00  0.00    +0.000 C 
ENDROOT
BRANCH   2   9
ATOM      9  C   UNL     1      -1.032  12.770  21.953  0.00  0.00    +0.000 C 
BRANCH   9  10
ATOM     10  N   UNL     1      -2.145  13.493  22.565  0.00  0.00    +0.000 N 
ATOM     11  N   UNL     1      -3.376  13.341  21.955  0.00  0.00    +0.000 NA
ATOM     12  C   UNL     1      -4.378  13.963  22.479  0.00  0.00    +0.000 A 
ATOM     13  C   UNL     1      -4.324  14.813  23.674  0.00  0.00    +0.000 A 
ATOM     14  C   UNL     1      -3.118  15.004  24.207  0.00  0.00    +0.000 A 
ATOM     15  C   UNL     1      -1.919  14.358  23.627  0.00  0.00    +0.000 A 
ATOM     16  O   UNL     1      -0.821  14.604  24.121  0.00  0.00    +0.000 OA
ENDBRANCH   9  10
ENDBRANCH   2   9
BRANCH   6  17
ATOM     17  O   UNL     1       2.012   8.027  20.257  0.00  0.00    +0.000 OA
BRANCH  17  18
ATOM     18  C   UNL     1       2.477   6.987  19.477  0.00  0.00    +0.000 A 
ATOM     19  C   UNL     1       3.270   7.428  18.403  0.00  0.00    +0.000 A 
ATOM     20  C   UNL     1       3.743   6.530  17.451  0.00  0.00    +0.000 A 
ATOM     21  C   UNL     1       3.360   5.196  17.527  0.00  0.00    +0.000 A 
ATOM     22  C   UNL     1       2.542   4.750  18.578  0.00  0.00    +0.000 A 
ATOM     23  C   UNL     1       2.033   3.440  18.590  0.00  0.00    +0.000 A 
ATOM     24  C   UNL     1       1.236   3.002  19.639  0.00  0.00    +0.000 A 
ATOM     25  C   UNL     1       1.045   3.859  20.692  0.00  0.00    +0.000 A 
ATOM     26  N   UNL     1       1.500   5.127  20.694  0.00  0.00    +0.000 NA
ATOM     27  C   UNL     1       2.170   5.618  19.625  0.00  0.00    +0.000 A 
ENDBRANCH  17  18
ENDBRANCH   6  17
TORSDOF 4
ENDMDL
