MODEL 1
REMARK VINA RESULT:      -7.4      0.000      0.000
REMARK  Name = 
REMARK  4 active torsions:
REMARK  status: ('A' for Active; 'I' for Inactive)
REMARK    1  A    between atoms: C_1  and  C_2
REMARK    2  A    between atoms: C_5  and  N_6
REMARK    3  A    between atoms: C_10  and  N_11
REMARK    4  A    between atoms: C_12  and  C_14
REMARK                            x       y       z     vdW  Elec       q    Type
REMARK                         _______ _______ _______ _____ _____    ______ ____
ROOT
ATOM      1  N   UNL     1      -0.096  12.220  18.946  0.00  0.00    +0.000 N 
ATOM      2  N   UNL     1      -1.290  12.827  19.215  0.00  0.00    +0.000 NA
ATOM      3  C   UNL     1      -2.187  12.000  18.688  0.00  0.00    +0.000 A 
ATOM      4  C   UNL     1      -1.627  10.791  18.243  0.00  0.00    +0.000 A 
ATOM      5  C   UNL     1      -0.270  10.947  18.377  0.00  0.00    +0.000 A 
ATOM      6  C   UNL     1      -2.614   9.752  17.864  0.00  0.00    +0.000 C 
ATOM      7  S   UNL     1      -4.145  10.728  17.631  0.00  0.00    +0.000 S 
ATOM      8  O   UNL     1      -4.233  11.099  16.230  0.00  0.00    +0.000 OA
ATOM      9  O   UNL     1      -5.240  10.061  18.306  0.00  0.00    +0.000 OA
ATOM     10  C   UNL     1      -3.652  12.195  18.589  0.00  0.00    +0.000 C 
ENDROOT
BRANCH   1  15
ATOM     11  C   UNL     1       4.764  15.003  20.097  0.00  0.00    +0.000 C 
ATOM     12  C   UNL     1       3.500  14.252  19.794  0.00  0.00    +0.000 A 
ATOM     13  C   UNL     1       3.076  14.067  18.473  0.00  0.00    +0.000 A 
ATOM     14  C   UNL     1       1.907  13.363  18.196  0.00  0.00    +0.000 A 
ATOM     15  C   UNL     1       1.123  12.870  19.246  0.00  0.00    +0.000 A 
ATOM     16  C   UNL     1       1.555  13.022  20.570  0.00  0.00    +0.000 A 
ATOM     17  C   UNL     1       2.745  13.703  20.837  0.00  0.00    +0.000 A 
ENDBRANCH   1  15
BRANCH   5  18
ATOM     18  N   UNL     1       0.732   9.997  18.159  0.00  0.00    +0.000 N 
ATOM     19  C   UNL     1       1.226   9.170  19.221  0.00  0.00    +0.000 C 
ATOM     20  O   UNL     1       0.828   9.338  20.360  0.00  0.00    +0.000 OA
ATOM     21  H   UNL     1       0.965   9.797  17.192  0.00  0.00    +0.000 HD
BRANCH  19  22
ATOM     22  C   UNL     1       2.188   8.086  18.872  0.00  0.00    +0.000 A 
ATOM     23  C   UNL     1       2.280   6.978  19.735  0.00  0.00    +0.000 A 
ATOM     24  C   UNL     1       3.131   5.910  19.442  0.00  0.00    +0.000 A 
ATOM     25  C   UNL     1       3.885   5.932  18.273  0.00  0.00    +0.000 A 
ATOM     26  F   UNL     1       4.685   4.899  17.982  0.00  0.00    +0.000 F 
ATOM     27  C   UNL     1       3.793   7.020  17.413  0.00  0.00    +0.000 A 
ATOM     28  F   UNL     1       4.508   7.036  16.278  0.00  0.00    +0.000 F 
ATOM     29  C   UNL     1       2.956   8.099  17.699  0.00  0.00    +0.000 A 
ENDBRANCH  19  22
ENDBRANCH   5  18
TORSDOF 3
ENDMDL
MODEL 2
REMARK VINA RESULT:      -7.4      0.488      1.259
REMARK  Name = 
REMARK  4 active torsions:
REMARK  status: ('A' for Active; 'I' for Inactive)
REMARK    1  A    between atoms: C_1  and  C_2
REMARK    2  A    between atoms: C_5  and  N_6
REMARK    3  A    between atoms: C_10  and  N_11
REMARK    4  A    between atoms: C_12  and  C_14
REMARK                            x       y       z     vdW  Elec       q    Type
REMARK                         _______ _______ _______ _____ _____    ______ ____
ROOT
ATOM      1  N   UNL     1      -0.130  12.198  18.942  0.00  0.00    +0.000 N 
ATOM      2  N   UNL     1      -1.317  12.821  19.205  0.00  0.00    +0.000 NA
ATOM      3  C   UNL     1      -2.223  12.002  18.682  0.00  0.00    +0.000 A 
ATOM      4  C   UNL     1      -1.676  10.784  18.244  0.00  0.00    +0.000 A 
ATOM      5  C   UNL     1      -0.318  10.924  18.380  0.00  0.00    +0.000 A 
ATOM      6  C   UNL     1      -2.675   9.755  17.870  0.00  0.00    +0.000 C 
ATOM      7  S   UNL     1      -4.195  10.748  17.629  0.00  0.00    +0.000 S 
ATOM      8  O   UNL     1      -4.276  11.112  16.226  0.00  0.00    +0.000 OA
ATOM      9  O   UNL     1      -5.298  10.098  18.307  0.00  0.00    +0.000 OA
ATOM     10  C   UNL     1      -3.685  12.214  18.580  0.00  0.00    +0.000 C 
ENDROOT
BRANCH   1  15
ATOM     11  C   UNL     1       4.763  14.928  20.082  0.00  0.00    +0.000 C 
ATOM     12  C   UNL     1       3.490  14.191  19.782  0.00  0.00    +0.000 A 
ATOM     13  C   UNL     1       3.071  13.993  18.461  0.00  0.00    +0.000 A 
ATOM     14  C   UNL     1       1.893  13.302  18.187  0.00  0.00    +0.000 A 
ATOM     15  C   UNL     1       1.097  12.835  19.240  0.00  0.00    +0.000 A 
ATOM     16  C   UNL     1       1.523  13.000  20.564  0.00  0.00    +0.000 A 
ATOM     17  C   UNL     1       2.721  13.668  20.829  0.00  0.00    +0.000 A 
ENDBRANCH   1  15
BRANCH   5  18
ATOM     18  N   UNL     1       0.673   9.961  18.169  0.00  0.00    +0.000 N 
ATOM     19  C   UNL     1       1.171   9.150  19.240  0.00  0.00    +0.000 C 
ATOM     20  O   UNL     1       0.788   9.344  20.380  0.00  0.00    +0.000 OA
ATOM     21  H   UNL     1       0.893   9.740  17.203  0.00  0.00    +0.000 HD
BRANCH  19  22
ATOM     22  C   UNL     1       2.120   8.050  18.901  0.00  0.00    +0.000 A 
ATOM     23  C   UNL     1       2.885   8.173  17.727  0.00  0.00    +0.000 A 
ATOM     24  C   UNL     1       3.821   7.197  17.377  0.00  0.00    +0.000 A 
ATOM     25  C   UNL     1       4.013   6.098  18.208  0.00  0.00    +0.000 A 
ATOM     26  F   UNL     1       4.925   5.173  17.881  0.00  0.00    +0.000 F 
ATOM     27  C   UNL     1       3.265   5.974  19.372  0.00  0.00    +0.000 A 
ATOM     28  F   UNL     1       3.459   4.923  20.182  0.00  0.00    +0.000 F 
ATOM     29  C   UNL     1       2.318   6.935  19.729  0.00  0.00    +0.000 A 
ENDBRANCH  19  22
ENDBRANCH   5  18
TORSDOF 3
ENDMDL
MODEL 3
REMARK VINA RESULT:      -7.4      4.342      6.737
REMARK  Name = 
REMARK  4 active torsions:
REMARK  status: ('A' for Active; 'I' for Inactive)
REMARK    1  A    between atoms: C_1  and  C_2
REMARK    2  A    between atoms: C_5  and  N_6
REMARK    3  A    between atoms: C_10  and  N_11
REMARK    4  A    between atoms: C_12  and  C_14
REMARK                            x       y       z     vdW  Elec       q    Type
REMARK                         _______ _______ _______ _____ _____    ______ ____
ROOT
ATOM      1  N   UNL     1      -4.134  12.039  19.277  0.00  0.00    +0.000 N 
ATOM      2  N   UNL     1      -5.372  11.876  19.830  0.00  0.00    +0.000 NA
ATOM      3  C   UNL     1      -5.262  12.454  21.020  0.00  0.00    +0.000 A 
ATOM      4  C   UNL     1      -4.048  13.142  21.188  0.00  0.00    +0.000 A 
ATOM      5  C   UNL     1      -3.304  12.844  20.075  0.00  0.00    +0.000 A 
ATOM      6  C   UNL     1      -3.979  13.990  22.402  0.00  0.00    +0.000 C 
ATOM      7  S   UNL     1      -5.334  13.317  23.433  0.00  0.00    +0.000 S 
ATOM      8  O   UNL     1      -4.773  12.300  24.304  0.00  0.00    +0.000 OA
ATOM      9  O   UNL     1      -6.118  14.416  23.961  0.00  0.00    +0.000 OA
ATOM     10  C   UNL     1      -6.269  12.495  22.106  0.00  0.00    +0.000 C 
ENDROOT
BRANCH   1  15
ATOM     11  C   UNL     1      -2.804   9.762  14.203  0.00  0.00    +0.000 C 
ATOM     12  C   UNL     1      -3.167  10.342  15.540  0.00  0.00    +0.000 A 
ATOM     13  C   UNL     1      -4.267  11.197  15.675  0.00  0.00    +0.000 A 
ATOM     14  C   UNL     1      -4.605  11.725  16.919  0.00  0.00    +0.000 A 
ATOM     15  C   UNL     1      -3.815  11.436  18.038  0.00  0.00    +0.000 A 
ATOM     16  C   UNL     1      -2.732  10.556  17.920  0.00  0.00    +0.000 A 
ATOM     17  C   UNL     1      -2.419  10.006  16.675  0.00  0.00    +0.000 A 
ENDBRANCH   1  15
BRANCH   5  18
ATOM     18  N   UNL     1      -2.054  13.355  19.712  0.00  0.00    +0.000 N 
ATOM     19  C   UNL     1      -0.840  12.658  20.020  0.00  0.00    +0.000 C 
ATOM     20  O   UNL     1      -0.876  11.633  20.677  0.00  0.00    +0.000 OA
ATOM     21  H   UNL     1      -2.054  14.143  19.073  0.00  0.00    +0.000 HD
BRANCH  19  22
ATOM     22  C   UNL     1       0.436  13.200  19.471  0.00  0.00    +0.000 A 
ATOM     23  C   UNL     1       1.322  12.304  18.844  0.00  0.00    +0.000 A 
ATOM     24  C   UNL     1       2.513  12.756  18.272  0.00  0.00    +0.000 A 
ATOM     25  C   UNL     1       2.820  14.113  18.305  0.00  0.00    +0.000 A 
ATOM     26  F   UNL     1       3.953  14.548  17.739  0.00  0.00    +0.000 F 
ATOM     27  C   UNL     1       1.946  15.004  18.916  0.00  0.00    +0.000 A 
ATOM     28  F   UNL     1       2.234  16.314  18.937  0.00  0.00    +0.000 F 
ATOM     29  C   UNL     1       0.758  14.565  19.502  0.00  0.00    +0.000 A 
ENDBRANCH  19  22
ENDBRANCH   5  18
TORSDOF 3
ENDMDL
MODEL 4
REMARK VINA RESULT:      -7.3      5.372      9.275
REMARK  Name = 
REMARK  4 active torsions:
REMARK  status: ('A' for Active; 'I' for Inactive)
REMARK    1  A    between atoms: C_1  and  C_2
REMARK    2  A    between atoms: C_5  and  N_6
REMARK    3  A    between atoms: C_10  and  N_11
REMARK    4  A    between atoms: C_12  and  C_14
REMARK                            x       y       z     vdW  Elec       q    Type
REMARK                         _______ _______ _______ _____ _____    ______ ____
ROOT
ATOM      1  N   UNL     1       3.915   3.940  18.122  0.00  0.00    +0.000 N 
ATOM      2  N   UNL     1       5.006   3.239  17.694  0.00  0.00    +0.000 NA
ATOM      3  C   UNL     1       5.405   3.908  16.618  0.00  0.00    +0.000 A 
ATOM      4  C   UNL     1       4.715   5.118  16.434  0.00  0.00    +0.000 A 
ATOM      5  C   UNL     1       3.727   5.122  17.387  0.00  0.00    +0.000 A 
ATOM      6  C   UNL     1       5.281   6.002  15.388  0.00  0.00    +0.000 C 
ATOM      7  S   UNL     1       6.320   4.850  14.416  0.00  0.00    +0.000 S 
ATOM      8  O   UNL     1       5.517   4.332  13.324  0.00  0.00    +0.000 OA
ATOM      9  O   UNL     1       7.613   5.462  14.181  0.00  0.00    +0.000 OA
ATOM     10  C   UNL     1       6.492   3.549  15.678  0.00  0.00    +0.000 C 
ENDROOT
BRANCH   1  15
ATOM     11  C   UNL     1       0.791   2.121  22.553  0.00  0.00    +0.000 C 
ATOM     12  C   UNL     1       1.610   2.578  21.380  0.00  0.00    +0.000 A 
ATOM     13  C   UNL     1       3.008   2.508  21.413  0.00  0.00    +0.000 A 
ATOM     14  C   UNL     1       3.764   2.924  20.319  0.00  0.00    +0.000 A 
ATOM     15  C   UNL     1       3.126   3.457  19.192  0.00  0.00    +0.000 A 
ATOM     16  C   UNL     1       1.727   3.502  19.137  0.00  0.00    +0.000 A 
ATOM     17  C   UNL     1       0.976   3.053  20.226  0.00  0.00    +0.000 A 
ENDBRANCH   1  15
BRANCH   5  18
ATOM     18  N   UNL     1       2.825   6.147  17.688  0.00  0.00    +0.000 N 
ATOM     19  C   UNL     1       2.917   6.893  18.908  0.00  0.00    +0.000 C 
ATOM     20  O   UNL     1       3.747   6.591  19.747  0.00  0.00    +0.000 OA
ATOM     21  H   UNL     1       2.220   6.455  16.934  0.00  0.00    +0.000 HD
BRANCH  19  22
ATOM     22  C   UNL     1       2.007   8.062  19.083  0.00  0.00    +0.000 A 
ATOM     23  C   UNL     1       1.696   8.835  17.949  0.00  0.00    +0.000 A 
ATOM     24  C   UNL     1       0.816   9.917  18.038  0.00  0.00    +0.000 A 
ATOM     25  C   UNL     1       0.226  10.224  19.260  0.00  0.00    +0.000 A 
ATOM     26  F   UNL     1      -0.632  11.249  19.341  0.00  0.00    +0.000 F 
ATOM     27  C   UNL     1       0.524   9.460  20.382  0.00  0.00    +0.000 A 
ATOM     28  F   UNL     1      -0.055   9.746  21.558  0.00  0.00    +0.000 F 
ATOM     29  C   UNL     1       1.409   8.384  20.310  0.00  0.00    +0.000 A 
ENDBRANCH  19  22
ENDBRANCH   5  18
TORSDOF 3
ENDMDL
MODEL 5
REMARK VINA RESULT:      -7.3      3.237      5.035
REMARK  Name = 
REMARK  4 active torsions:
REMARK  status: ('A' for Active; 'I' for Inactive)
REMARK    1  A    between atoms: C_1  and  C_2
REMARK    2  A    between atoms: C_5  and  N_6
REMARK    3  A    between atoms: C_10  and  N_11
REMARK    4  A    between atoms: C_12  and  C_14
REMARK                            x       y       z     vdW  Elec       q    Type
REMARK                         _______ _______ _______ _____ _____    ______ ____
ROOT
ATOM      1  N   UNL     1      -2.273  11.517  18.995  0.00  0.00    +0.000 N 
ATOM      2  N   UNL     1      -2.778  12.674  19.517  0.00  0.00    +0.000 NA
ATOM      3  C   UNL     1      -2.281  12.705  20.748  0.00  0.00    +0.000 A 
ATOM      4  C   UNL     1      -1.329  11.699  20.983  0.00  0.00    +0.000 A 
ATOM      5  C   UNL     1      -1.349  10.909  19.861  0.00  0.00    +0.000 A 
ATOM      6  C   UNL     1      -0.583  11.836  22.256  0.00  0.00    +0.000 C 
ATOM      7  S   UNL     1      -1.645  12.978  23.216  0.00  0.00    +0.000 S 
ATOM      8  O   UNL     1      -2.554  12.178  24.018  0.00  0.00    +0.000 OA
ATOM      9  O   UNL     1      -0.817  14.007  23.812  0.00  0.00    +0.000 OA
ATOM     10  C   UNL     1      -2.572  13.686  21.819  0.00  0.00    +0.000 C 
ENDROOT
BRANCH   1  15
ATOM     11  C   UNL     1      -3.907   9.852  13.775  0.00  0.00    +0.000 C 
ATOM     12  C   UNL     1      -3.490  10.272  15.154  0.00  0.00    +0.000 A 
ATOM     13  C   UNL     1      -4.243  11.205  15.877  0.00  0.00    +0.000 A 
ATOM     14  C   UNL     1      -3.858  11.585  17.160  0.00  0.00    +0.000 A 
ATOM     15  C   UNL     1      -2.685  11.064  17.720  0.00  0.00    +0.000 A 
ATOM     16  C   UNL     1      -1.942  10.106  17.018  0.00  0.00    +0.000 A 
ATOM     17  C   UNL     1      -2.353   9.708  15.744  0.00  0.00    +0.000 A 
ENDBRANCH   1  15
BRANCH   5  18
ATOM     18  N   UNL     1      -0.519   9.826  19.555  0.00  0.00    +0.000 N 
ATOM     19  C   UNL     1       0.863  10.011  19.223  0.00  0.00    +0.000 C 
ATOM     20  O   UNL     1       1.322  11.135  19.128  0.00  0.00    +0.000 OA
ATOM     21  H   UNL     1      -0.889   8.902  19.750  0.00  0.00    +0.000 HD
BRANCH  19  22
ATOM     22  C   UNL     1       1.709   8.795  19.053  0.00  0.00    +0.000 A 
ATOM     23  C   UNL     1       1.655   7.805  20.052  0.00  0.00    +0.000 A 
ATOM     24  C   UNL     1       2.392   6.624  19.931  0.00  0.00    +0.000 A 
ATOM     25  C   UNL     1       3.175   6.415  18.800  0.00  0.00    +0.000 A 
ATOM     26  F   UNL     1       3.864   5.274  18.675  0.00  0.00    +0.000 F 
ATOM     27  C   UNL     1       3.227   7.386  17.807  0.00  0.00    +0.000 A 
ATOM     28  F   UNL     1       3.970   7.180  16.710  0.00  0.00    +0.000 F 
ATOM     29  C   UNL     1       2.506   8.575  17.920  0.00  0.00    +0.000 A 
ENDBRANCH  19  22
ENDBRANCH   5  18
TORSDOF 3
ENDMDL
MODEL 6
REMARK VINA RESULT:      -7.3      3.276      5.193
REMARK  Name = 
REMARK  4 active torsions:
REMARK  status: ('A' for Active; 'I' for Inactive)
REMARK    1  A    between atoms: C_1  and  C_2
REMARK    2  A    between atoms: C_5  and  N_6
REMARK    3  A    between atoms: C_10  and  N_11
REMARK    4  A    between atoms: C_12  and  C_14
REMARK                            x       y       z     vdW  Elec       q    Type
REMARK                         _______ _______ _______ _____ _____    ______ ____
ROOT
ATOM      1  N   UNL     1      -2.214  11.526  18.976  0.00  0.00    +0.000 N 
ATOM      2  N   UNL     1      -2.682  12.703  19.487  0.00  0.00    +0.000 NA
ATOM      3  C   UNL     1      -2.182  12.730  20.717  0.00  0.00    +0.000 A 
ATOM      4  C   UNL     1      -1.263  11.697  20.961  0.00  0.00    +0.000 A 
ATOM      5  C   UNL     1      -1.310  10.897  19.847  0.00  0.00    +0.000 A 
ATOM      6  C   UNL     1      -0.511  11.822  22.232  0.00  0.00    +0.000 C 
ATOM      7  S   UNL     1      -1.535  13.006  23.182  0.00  0.00    +0.000 S 
ATOM      8  O   UNL     1      -2.468  12.244  23.992  0.00  0.00    +0.000 OA
ATOM      9  O   UNL     1      -0.673  14.014  23.767  0.00  0.00    +0.000 OA
ATOM     10  C   UNL     1      -2.440  13.730  21.779  0.00  0.00    +0.000 C 
ENDROOT
BRANCH   1  15
ATOM     11  C   UNL     1      -3.915   9.867  13.774  0.00  0.00    +0.000 C 
ATOM     12  C   UNL     1      -3.480  10.286  15.149  0.00  0.00    +0.000 A 
ATOM     13  C   UNL     1      -4.229  11.210  15.886  0.00  0.00    +0.000 A 
ATOM     14  C   UNL     1      -3.827  11.589  17.165  0.00  0.00    +0.000 A 
ATOM     15  C   UNL     1      -2.642  11.075  17.705  0.00  0.00    +0.000 A 
ATOM     16  C   UNL     1      -1.903  10.125  16.989  0.00  0.00    +0.000 A 
ATOM     17  C   UNL     1      -2.330   9.727  15.720  0.00  0.00    +0.000 A 
ENDBRANCH   1  15
BRANCH   5  18
ATOM     18  N   UNL     1      -0.515   9.786  19.550  0.00  0.00    +0.000 N 
ATOM     19  C   UNL     1       0.839   9.929  19.102  0.00  0.00    +0.000 C 
ATOM     20  O   UNL     1       1.299  11.038  18.898  0.00  0.00    +0.000 OA
ATOM     21  H   UNL     1      -0.877   8.881  19.834  0.00  0.00    +0.000 HD
BRANCH  19  22
ATOM     22  C   UNL     1       1.659   8.693  18.949  0.00  0.00    +0.000 A 
ATOM     23  C   UNL     1       2.477   8.577  17.810  0.00  0.00    +0.000 A 
ATOM     24  C   UNL     1       3.300   7.463  17.630  0.00  0.00    +0.000 A 
ATOM     25  C   UNL     1       3.326   6.463  18.597  0.00  0.00    +0.000 A 
ATOM     26  F   UNL     1       4.131   5.405  18.433  0.00  0.00    +0.000 F 
ATOM     27  C   UNL     1       2.526   6.575  19.727  0.00  0.00    +0.000 A 
ATOM     28  F   UNL     1       2.560   5.619  20.668  0.00  0.00    +0.000 F 
ATOM     29  C   UNL     1       1.690   7.676  19.915  0.00  0.00    +0.000 A 
ENDBRANCH  19  22
ENDBRANCH   5  18
TORSDOF 3
ENDMDL
MODEL 7
REMARK VINA RESULT:      -7.2      2.899      3.310
REMARK  Name = 
REMARK  4 active torsions:
REMARK  status: ('A' for Active; 'I' for Inactive)
REMARK    1  A    between atoms: C_1  and  C_2
REMARK    2  A    between atoms: C_5  and  N_6
REMARK    3  A    between atoms: C_10  and  N_11
REMARK    4  A    between atoms: C_12  and  C_14
REMARK                            x       y       z     vdW  Elec       q    Type
REMARK                         _______ _______ _______ _____ _____    ______ ____
ROOT
ATOM      1  N   UNL     1       0.454  13.347  21.285  0.00  0.00    +0.000 N 
ATOM      2  N   UNL     1      -0.303  14.313  21.885  0.00  0.00    +0.000 NA
ATOM      3  C   UNL     1      -1.299  13.630  22.438  0.00  0.00    +0.000 A 
ATOM      4  C   UNL     1      -1.118  12.238  22.368  0.00  0.00    +0.000 A 
ATOM      5  C   UNL     1      -0.002  12.055  21.591  0.00  0.00    +0.000 A 
ATOM      6  C   UNL     1      -2.080  11.446  23.171  0.00  0.00    +0.000 C 
ATOM      7  S   UNL     1      -3.432  12.646  23.464  0.00  0.00    +0.000 S 
ATOM      8  O   UNL     1      -4.416  12.480  22.411  0.00  0.00    +0.000 OA
ATOM      9  O   UNL     1      -3.807  12.603  24.864  0.00  0.00    +0.000 OA
ATOM     10  C   UNL     1      -2.486  14.167  23.141  0.00  0.00    +0.000 C 
ENDROOT
BRANCH   1  15
ATOM     11  C   UNL     1       4.811  14.916  17.930  0.00  0.00    +0.000 C 
ATOM     12  C   UNL     1       3.676  14.483  18.811  0.00  0.00    +0.000 A 
ATOM     13  C   UNL     1       2.491  13.983  18.259  0.00  0.00    +0.000 A 
ATOM     14  C   UNL     1       1.443  13.574  19.081  0.00  0.00    +0.000 A 
ATOM     15  C   UNL     1       1.556  13.702  20.471  0.00  0.00    +0.000 A 
ATOM     16  C   UNL     1       2.749  14.170  21.035  0.00  0.00    +0.000 A 
ATOM     17  C   UNL     1       3.807  14.549  20.204  0.00  0.00    +0.000 A 
ENDBRANCH   1  15
BRANCH   5  18
ATOM     18  N   UNL     1       0.654  10.856  21.295  0.00  0.00    +0.000 N 
ATOM     19  C   UNL     1       0.367  10.119  20.100  0.00  0.00    +0.000 C 
ATOM     20  O   UNL     1      -0.519  10.492  19.351  0.00  0.00    +0.000 OA
ATOM     21  H   UNL     1       1.459  10.626  21.868  0.00  0.00    +0.000 HD
BRANCH  19  22
ATOM     22  C   UNL     1       1.213   8.931  19.791  0.00  0.00    +0.000 A 
ATOM     23  C   UNL     1       1.274   7.895  20.742  0.00  0.00    +0.000 A 
ATOM     24  C   UNL     1       2.015   6.737  20.494  0.00  0.00    +0.000 A 
ATOM     25  C   UNL     1       2.689   6.597  19.284  0.00  0.00    +0.000 A 
ATOM     26  F   UNL     1       3.382   5.479  19.039  0.00  0.00    +0.000 F 
ATOM     27  C   UNL     1       2.627   7.614  18.339  0.00  0.00    +0.000 A 
ATOM     28  F   UNL     1       3.263   7.475  17.166  0.00  0.00    +0.000 F 
ATOM     29  C   UNL     1       1.900   8.780  18.577  0.00  0.00    +0.000 A 
ENDBRANCH  19  22
ENDBRANCH   5  18
TORSDOF 3
ENDMDL
MODEL 8
REMARK VINA RESULT:      -7.2      4.345      6.917
REMARK  Name = 
REMARK  4 active torsions:
REMARK  status: ('A' for Active; 'I' for Inactive)
REMARK    1  A    between atoms: C_1  and  C_2
REMARK    2  A    between atoms: C_5  and  N_6
REMARK    3  A    between atoms: C_10  and  N_11
REMARK    4  A    between atoms: C_12  and  C_14
REMARK                            x       y       z     vdW  Elec       q    Type
REMARK                         _______ _______ _______ _____ _____    ______ ____
ROOT
ATOM      1  N   UNL     1      -4.638  11.974  19.353  0.00  0.00    +0.000 N 
ATOM      2  N   UNL     1      -5.883  11.719  19.852  0.00  0.00    +0.000 NA
ATOM      3  C   UNL     1      -5.864  12.295  21.049  0.00  0.00    +0.000 A 
ATOM      4  C   UNL     1      -4.711  13.065  21.272  0.00  0.00    +0.000 A 
ATOM      5  C   UNL     1      -3.901  12.829  20.189  0.00  0.00    +0.000 A 
ATOM      6  C   UNL     1      -4.752  13.907  22.490  0.00  0.00    +0.000 C 
ATOM      7  S   UNL     1      -6.098  13.133  23.460  0.00  0.00    +0.000 S 
ATOM      8  O   UNL     1      -5.504  12.151  24.349  0.00  0.00    +0.000 OA
ATOM      9  O   UNL     1      -6.979  14.169  23.960  0.00  0.00    +0.000 OA
ATOM     10  C   UNL     1      -6.916  12.256  22.091  0.00  0.00    +0.000 C 
ENDROOT
BRANCH   1  15
ATOM     11  C   UNL     1      -2.898   9.826  14.348  0.00  0.00    +0.000 C 
ATOM     12  C   UNL     1      -3.371  10.374  15.663  0.00  0.00    +0.000 A 
ATOM     13  C   UNL     1      -4.343  11.380  15.711  0.00  0.00    +0.000 A 
ATOM     14  C   UNL     1      -4.785  11.879  16.934  0.00  0.00    +0.000 A 
ATOM     15  C   UNL     1      -4.226  11.403  18.126  0.00  0.00    +0.000 A 
ATOM     16  C   UNL     1      -3.276  10.374  18.090  0.00  0.00    +0.000 A 
ATOM     17  C   UNL     1      -2.861   9.858  16.860  0.00  0.00    +0.000 A 
ENDBRANCH   1  15
BRANCH   5  18
ATOM     18  N   UNL     1      -2.677  13.430  19.882  0.00  0.00    +0.000 N 
ATOM     19  C   UNL     1      -1.431  12.774  20.151  0.00  0.00    +0.000 C 
ATOM     20  O   UNL     1      -1.419  11.701  20.728  0.00  0.00    +0.000 OA
ATOM     21  H   UNL     1      -2.712  14.263  19.305  0.00  0.00    +0.000 HD
BRANCH  19  22
ATOM     22  C   UNL     1      -0.180  13.421  19.660  0.00  0.00    +0.000 A 
ATOM     23  C   UNL     1      -0.004  14.795  19.907  0.00  0.00    +0.000 A 
ATOM     24  C   UNL     1       1.165  15.450  19.510  0.00  0.00    +0.000 A 
ATOM     25  C   UNL     1       2.175  14.733  18.879  0.00  0.00    +0.000 A 
ATOM     26  F   UNL     1       3.303  15.357  18.516  0.00  0.00    +0.000 F 
ATOM     27  C   UNL     1       2.010  13.374  18.638  0.00  0.00    +0.000 A 
ATOM     28  F   UNL     1       2.989  12.677  18.043  0.00  0.00    +0.000 F 
ATOM     29  C   UNL     1       0.844  12.709  19.019  0.00  0.00    +0.000 A 
ENDBRANCH  19  22
ENDBRANCH   5  18
TORSDOF 3
ENDMDL
MODEL 9
REMARK VINA RESULT:      -7.1      2.976      3.636
REMARK  Name = 
REMARK  4 active torsions:
REMARK  status: ('A' for Active; 'I' for Inactive)
REMARK    1  A    between atoms: C_1  and  C_2
REMARK    2  A    between atoms: C_5  and  N_6
REMARK    3  A    between atoms: C_10  and  N_11
REMARK    4  A    between atoms: C_12  and  C_14
REMARK                            x       y       z     vdW  Elec       q    Type
REMARK                         _______ _______ _______ _____ _____    ______ ____
ROOT
ATOM      1  N   UNL     1       0.441  13.456  21.253  0.00  0.00    +0.000 N 
ATOM      2  N   UNL     1      -0.288  14.392  21.931  0.00  0.00    +0.000 NA
ATOM      3  C   UNL     1      -1.279  13.688  22.466  0.00  0.00    +0.000 A 
ATOM      4  C   UNL     1      -1.121  12.302  22.304  0.00  0.00    +0.000 A 
ATOM      5  C   UNL     1      -0.027  12.153  21.489  0.00  0.00    +0.000 A 
ATOM      6  C   UNL     1      -2.074  11.474  23.081  0.00  0.00    +0.000 C 
ATOM      7  S   UNL     1      -3.401  12.670  23.483  0.00  0.00    +0.000 S 
ATOM      8  O   UNL     1      -4.413  12.584  22.446  0.00  0.00    +0.000 OA
ATOM      9  O   UNL     1      -3.742  12.545  24.886  0.00  0.00    +0.000 OA
ATOM     10  C   UNL     1      -2.441  14.196  23.232  0.00  0.00    +0.000 C 
ENDROOT
BRANCH   1  15
ATOM     11  C   UNL     1       4.924  14.887  18.005  0.00  0.00    +0.000 C 
ATOM     12  C   UNL     1       3.740  14.533  18.857  0.00  0.00    +0.000 A 
ATOM     13  C   UNL     1       3.830  14.559  20.254  0.00  0.00    +0.000 A 
ATOM     14  C   UNL     1       2.727  14.238  21.042  0.00  0.00    +0.000 A 
ATOM     15  C   UNL     1       1.527  13.846  20.435  0.00  0.00    +0.000 A 
ATOM     16  C   UNL     1       1.417  13.848  19.039  0.00  0.00    +0.000 A 
ATOM     17  C   UNL     1       2.519  14.201  18.257  0.00  0.00    +0.000 A 
ENDBRANCH   1  15
BRANCH   5  18
ATOM     18  N   UNL     1       0.603  10.966  21.102  0.00  0.00    +0.000 N 
ATOM     19  C   UNL     1       0.331  10.351  19.837  0.00  0.00    +0.000 C 
ATOM     20  O   UNL     1      -0.520  10.818  19.102  0.00  0.00    +0.000 OA
ATOM     21  H   UNL     1       1.384  10.660  21.673  0.00  0.00    +0.000 HD
BRANCH  19  22
ATOM     22  C   UNL     1       1.153   9.170  19.443  0.00  0.00    +0.000 A 
ATOM     23  C   UNL     1       1.783   9.190  18.185  0.00  0.00    +0.000 A 
ATOM     24  C   UNL     1       2.601   8.133  17.776  0.00  0.00    +0.000 A 
ATOM     25  C   UNL     1       2.810   7.055  18.630  0.00  0.00    +0.000 A 
ATOM     26  F   UNL     1       3.609   6.052  18.246  0.00  0.00    +0.000 F 
ATOM     27  C   UNL     1       2.196   7.033  19.877  0.00  0.00    +0.000 A 
ATOM     28  F   UNL     1       2.408   6.001  20.708  0.00  0.00    +0.000 F 
ATOM     29  C   UNL     1       1.368   8.075  20.294  0.00  0.00    +0.000 A 
ENDBRANCH  19  22
ENDBRANCH   5  18
TORSDOF 3
ENDMDL
