MODEL 1
REMARK VINA RESULT:      -7.4      0.000      0.000
REMARK  Name = 
REMARK  2 active torsions:
REMARK  status: ('A' for Active; 'I' for Inactive)
REMARK    1  A    between atoms: C_2  and  C_3
REMARK    2  A    between atoms: C_3  and  N_4
REMARK                            x       y       z     vdW  Elec       q    Type
REMARK                         _______ _______ _______ _____ _____    ______ ____
ROOT
ATOM      1  N   UNL     1       0.146  11.758  19.260  0.00  0.00    +0.000 N 
ATOM      2  C   UNL     1      -0.143  10.430  19.414  0.00  0.00    +0.000 C 
ATOM      3  O   UNL     1       0.523   9.589  19.993  0.00  0.00    +0.000 OA
ATOM      4  C   UNL     1      -1.493  10.189  18.802  0.00  0.00    +0.000 C 
ATOM      5  C   UNL     1      -1.372  10.015  17.266  0.00  0.00    +0.000 C 
ATOM      6  C   UNL     1      -2.735  10.001  16.563  0.00  0.00    +0.000 C 
ATOM      7  C   UNL     1      -3.645  11.005  17.179  0.00  0.00    +0.000 A 
ATOM      8  N   UNL     1      -4.904  11.262  16.719  0.00  0.00    +0.000 N 
ATOM      9  C   UNL     1      -5.639  11.860  17.712  0.00  0.00    +0.000 A 
ATOM     10  C   UNL     1      -7.016  12.122  17.765  0.00  0.00    +0.000 A 
ATOM     11  C   UNL     1      -7.541  12.630  18.953  0.00  0.00    +0.000 A 
ATOM     12  C   UNL     1      -6.709  12.883  20.040  0.00  0.00    +0.000 A 
ATOM     13  C   UNL     1      -5.324  12.654  19.958  0.00  0.00    +0.000 A 
ATOM     14  C   UNL     1      -4.763  12.127  18.774  0.00  0.00    +0.000 A 
ATOM     15  C   UNL     1      -3.454  11.672  18.376  0.00  0.00    +0.000 A 
ATOM     16  C   UNL     1      -2.187  11.516  19.173  0.00  0.00    +0.000 C 
ATOM     17  C   UNL     1      -1.010  12.481  19.007  0.00  0.00    +0.000 C 
ATOM     18  O   UNL     1      -1.070  13.692  18.833  0.00  0.00    +0.000 OA
ATOM     19  H   UNL     1      -5.305  10.892  15.869  0.00  0.00    +0.000 HD
ENDROOT
BRANCH   1  20
ATOM     20  C   UNL     1       1.414  12.325  19.721  0.00  0.00    +0.000 C 
BRANCH  20  22
ATOM     21  O   UNL     1       2.907  12.190  17.802  0.00  0.00    +0.000 OA
ATOM     22  C   UNL     1       2.354  12.904  18.633  0.00  0.00    +0.000 C 
ATOM     23  N   UNL     1       2.518  14.290  18.648  0.00  0.00    +0.000 N 
ATOM     24  C   UNL     1       1.963  15.241  19.593  0.00  0.00    +0.000 C 
ATOM     25  C   UNL     1       1.868  16.528  18.789  0.00  0.00    +0.000 C 
ATOM     26  C   UNL     1       3.040  16.458  17.812  0.00  0.00    +0.000 C 
ATOM     27  C   UNL     1       3.427  14.978  17.745  0.00  0.00    +0.000 C 
ENDBRANCH  20  22
ENDBRANCH   1  20
TORSDOF 2
ENDMDL
MODEL 2
REMARK VINA RESULT:      -7.0      8.302     11.609
REMARK  Name = 
REMARK  2 active torsions:
REMARK  status: ('A' for Active; 'I' for Inactive)
REMARK    1  A    between atoms: C_2  and  C_3
REMARK    2  A    between atoms: C_3  and  N_4
REMARK                            x       y       z     vdW  Elec       q    Type
REMARK                         _______ _______ _______ _____ _____    ______ ____
ROOT
ATOM      1  N   UNL     1       3.615   4.002  18.742  0.00  0.00    +0.000 N 
ATOM      2  C   UNL     1       4.729   3.332  19.165  0.00  0.00    +0.000 C 
ATOM      3  O   UNL     1       4.802   2.507  20.060  0.00  0.00    +0.000 OA
ATOM      4  C   UNL     1       5.864   3.733  18.267  0.00  0.00    +0.000 C 
ATOM      5  C   UNL     1       6.468   5.087  18.724  0.00  0.00    +0.000 C 
ATOM      6  C   UNL     1       7.470   5.658  17.714  0.00  0.00    +0.000 C 
ATOM      7  C   UNL     1       6.987   5.433  16.324  0.00  0.00    +0.000 A 
ATOM      8  N   UNL     1       7.641   5.892  15.217  0.00  0.00    +0.000 N 
ATOM      9  C   UNL     1       7.239   5.172  14.119  0.00  0.00    +0.000 A 
ATOM     10  C   UNL     1       7.773   5.154  12.822  0.00  0.00    +0.000 A 
ATOM     11  C   UNL     1       7.257   4.231  11.913  0.00  0.00    +0.000 A 
ATOM     12  C   UNL     1       6.230   3.371  12.290  0.00  0.00    +0.000 A 
ATOM     13  C   UNL     1       5.677   3.427  13.581  0.00  0.00    +0.000 A 
ATOM     14  C   UNL     1       6.185   4.342  14.530  0.00  0.00    +0.000 A 
ATOM     15  C   UNL     1       5.956   4.599  15.929  0.00  0.00    +0.000 A 
ATOM     16  C   UNL     1       5.104   3.870  16.932  0.00  0.00    +0.000 C 
ATOM     17  C   UNL     1       3.784   4.456  17.442  0.00  0.00    +0.000 C 
ATOM     18  O   UNL     1       2.957   5.082  16.792  0.00  0.00    +0.000 OA
ATOM     19  H   UNL     1       8.439   6.511  15.221  0.00  0.00    +0.000 HD
ENDROOT
BRANCH   1  20
ATOM     20  C   UNL     1       2.329   3.862  19.427  0.00  0.00    +0.000 C 
BRANCH  20  22
ATOM     21  O   UNL     1       2.143   4.420  21.790  0.00  0.00    +0.000 OA
ATOM     22  C   UNL     1       2.074   4.808  20.628  0.00  0.00    +0.000 C 
ATOM     23  N   UNL     1       1.778   6.134  20.304  0.00  0.00    +0.000 N 
ATOM     24  C   UNL     1       1.623   6.713  18.982  0.00  0.00    +0.000 C 
ATOM     25  C   UNL     1       1.998   8.172  19.187  0.00  0.00    +0.000 C 
ATOM     26  C   UNL     1       1.561   8.484  20.617  0.00  0.00    +0.000 C 
ATOM     27  C   UNL     1       1.436   7.126  21.312  0.00  0.00    +0.000 C 
ENDBRANCH  20  22
ENDBRANCH   1  20
TORSDOF 2
ENDMDL
MODEL 3
REMARK VINA RESULT:      -7.0      1.117      1.366
REMARK  Name = 
REMARK  2 active torsions:
REMARK  status: ('A' for Active; 'I' for Inactive)
REMARK    1  A    between atoms: C_2  and  C_3
REMARK    2  A    between atoms: C_3  and  N_4
REMARK                            x       y       z     vdW  Elec       q    Type
REMARK                         _______ _______ _______ _____ _____    ______ ____
ROOT
ATOM      1  N   UNL     1       0.559  11.802  18.718  0.00  0.00    +0.000 N 
ATOM      2  C   UNL     1       0.303  10.510  19.086  0.00  0.00    +0.000 C 
ATOM      3  O   UNL     1       1.085   9.708  19.567  0.00  0.00    +0.000 OA
ATOM      4  C   UNL     1      -1.162  10.262  18.869  0.00  0.00    +0.000 C 
ATOM      5  C   UNL     1      -1.443   9.925  17.382  0.00  0.00    +0.000 C 
ATOM      6  C   UNL     1      -2.941   9.892  17.055  0.00  0.00    +0.000 C 
ATOM      7  C   UNL     1      -3.648  10.991  17.768  0.00  0.00    +0.000 A 
ATOM      8  N   UNL     1      -4.981  11.248  17.618  0.00  0.00    +0.000 N 
ATOM      9  C   UNL     1      -5.428  11.976  18.693  0.00  0.00    +0.000 A 
ATOM     10  C   UNL     1      -6.742  12.297  19.066  0.00  0.00    +0.000 A 
ATOM     11  C   UNL     1      -6.937  12.947  20.284  0.00  0.00    +0.000 A 
ATOM     12  C   UNL     1      -5.849  13.278  21.088  0.00  0.00    +0.000 A 
ATOM     13  C   UNL     1      -4.536  12.985  20.683  0.00  0.00    +0.000 A 
ATOM     14  C   UNL     1      -4.304  12.316  19.460  0.00  0.00    +0.000 A 
ATOM     15  C   UNL     1      -3.148  11.770  18.795  0.00  0.00    +0.000 A 
ATOM     16  C   UNL     1      -1.721  11.647  19.255  0.00  0.00    +0.000 C 
ATOM     17  C   UNL     1      -0.614  12.541  18.690  0.00  0.00    +0.000 C 
ATOM     18  O   UNL     1      -0.702  13.728  18.404  0.00  0.00    +0.000 OA
ATOM     19  H   UNL     1      -5.591  10.809  16.944  0.00  0.00    +0.000 HD
ENDROOT
BRANCH   1  20
ATOM     20  C   UNL     1       1.910  12.363  18.775  0.00  0.00    +0.000 C 
BRANCH  20  22
ATOM     21  O   UNL     1       2.185  12.918  21.130  0.00  0.00    +0.000 OA
ATOM     22  C   UNL     1       2.223  13.304  19.965  0.00  0.00    +0.000 C 
ATOM     23  N   UNL     1       2.571  14.614  19.628  0.00  0.00    +0.000 N 
ATOM     24  C   UNL     1       2.613  15.210  18.305  0.00  0.00    +0.000 C 
ATOM     25  C   UNL     1       3.651  16.312  18.445  0.00  0.00    +0.000 C 
ATOM     26  C   UNL     1       3.521  16.781  19.892  0.00  0.00    +0.000 C 
ATOM     27  C   UNL     1       2.816  15.639  20.630  0.00  0.00    +0.000 C 
ENDBRANCH  20  22
ENDBRANCH   1  20
TORSDOF 2
ENDMDL
MODEL 4
REMARK VINA RESULT:      -6.9      3.989      6.102
REMARK  Name = 
REMARK  2 active torsions:
REMARK  status: ('A' for Active; 'I' for Inactive)
REMARK    1  A    between atoms: C_2  and  C_3
REMARK    2  A    between atoms: C_3  and  N_4
REMARK                            x       y       z     vdW  Elec       q    Type
REMARK                         _______ _______ _______ _____ _____    ______ ____
ROOT
ATOM      1  N   UNL     1      -0.421  13.439  21.680  0.00  0.00    +0.000 N 
ATOM      2  C   UNL     1      -1.586  12.722  21.699  0.00  0.00    +0.000 C 
ATOM      3  O   UNL     1      -2.724  13.158  21.686  0.00  0.00    +0.000 OA
ATOM      4  C   UNL     1      -1.219  11.267  21.654  0.00  0.00    +0.000 C 
ATOM      5  C   UNL     1      -0.848  10.755  23.070  0.00  0.00    +0.000 C 
ATOM      6  C   UNL     1      -0.243   9.346  23.050  0.00  0.00    +0.000 C 
ATOM      7  C   UNL     1       0.671   9.193  21.885  0.00  0.00    +0.000 A 
ATOM      8  N   UNL     1       1.403   8.065  21.646  0.00  0.00    +0.000 N 
ATOM      9  C   UNL     1       1.771   8.033  20.324  0.00  0.00    +0.000 A 
ATOM     10  C   UNL     1       2.352   6.990  19.587  0.00  0.00    +0.000 A 
ATOM     11  C   UNL     1       2.513   7.168  18.214  0.00  0.00    +0.000 A 
ATOM     12  C   UNL     1       2.122   8.359  17.608  0.00  0.00    +0.000 A 
ATOM     13  C   UNL     1       1.579   9.411  18.365  0.00  0.00    +0.000 A 
ATOM     14  C   UNL     1       1.390   9.257  19.757  0.00  0.00    +0.000 A 
ATOM     15  C   UNL     1       0.780  10.043  20.800  0.00  0.00    +0.000 A 
ATOM     16  C   UNL     1       0.014  11.337  20.731  0.00  0.00    +0.000 C 
ATOM     17  C   UNL     1       0.624  12.657  21.211  0.00  0.00    +0.000 C 
ATOM     18  O   UNL     1       1.783  13.025  21.074  0.00  0.00    +0.000 OA
ATOM     19  H   UNL     1       1.488   7.277  22.273  0.00  0.00    +0.000 HD
ENDROOT
BRANCH   1  20
ATOM     20  C   UNL     1      -0.420  14.901  21.747  0.00  0.00    +0.000 C 
BRANCH  20  22
ATOM     21  O   UNL     1      -2.157  15.803  20.299  0.00  0.00    +0.000 OA
ATOM     22  C   UNL     1      -0.956  15.655  20.505  0.00  0.00    +0.000 C 
ATOM     23  N   UNL     1       0.014  16.172  19.643  0.00  0.00    +0.000 N 
ATOM     24  C   UNL     1       1.455  16.034  19.742  0.00  0.00    +0.000 C 
ATOM     25  C   UNL     1       1.980  17.275  19.038  0.00  0.00    +0.000 C 
ATOM     26  C   UNL     1       0.945  17.570  17.955  0.00  0.00    +0.000 C 
ATOM     27  C   UNL     1      -0.326  16.836  18.394  0.00  0.00    +0.000 C 
ENDBRANCH  20  22
ENDBRANCH   1  20
TORSDOF 2
ENDMDL
MODEL 5
REMARK VINA RESULT:      -6.8      3.137      6.368
REMARK  Name = 
REMARK  2 active torsions:
REMARK  status: ('A' for Active; 'I' for Inactive)
REMARK    1  A    between atoms: C_2  and  C_3
REMARK    2  A    between atoms: C_3  and  N_4
REMARK                            x       y       z     vdW  Elec       q    Type
REMARK                         _______ _______ _______ _____ _____    ______ ____
ROOT
ATOM      1  N   UNL     1      -0.116  12.346  18.844  0.00  0.00    +0.000 N 
ATOM      2  C   UNL     1      -1.224  11.545  18.839  0.00  0.00    +0.000 C 
ATOM      3  O   UNL     1      -2.339  11.825  18.434  0.00  0.00    +0.000 OA
ATOM      4  C   UNL     1      -0.808  10.197  19.355  0.00  0.00    +0.000 C 
ATOM      5  C   UNL     1      -0.776  10.193  20.905  0.00  0.00    +0.000 C 
ATOM      6  C   UNL     1      -0.136   8.924  21.480  0.00  0.00    +0.000 C 
ATOM      7  C   UNL     1       1.039   8.521  20.661  0.00  0.00    +0.000 A 
ATOM      8  N   UNL     1       1.846   7.464  20.971  0.00  0.00    +0.000 N 
ATOM      9  C   UNL     1       2.527   7.066  19.848  0.00  0.00    +0.000 A 
ATOM     10  C   UNL     1       3.306   5.917  19.639  0.00  0.00    +0.000 A 
ATOM     11  C   UNL     1       3.792   5.679  18.354  0.00  0.00    +0.000 A 
ATOM     12  C   UNL     1       3.520   6.573  17.322  0.00  0.00    +0.000 A 
ATOM     13  C   UNL     1       2.772   7.740  17.554  0.00  0.00    +0.000 A 
ATOM     14  C   UNL     1       2.254   8.004  18.842  0.00  0.00    +0.000 A 
ATOM     15  C   UNL     1       1.381   9.001  19.410  0.00  0.00    +0.000 A 
ATOM     16  C   UNL     1       0.611  10.116  18.755  0.00  0.00    +0.000 C 
ATOM     17  C   UNL     1       1.039  11.579  18.898  0.00  0.00    +0.000 C 
ATOM     18  O   UNL     1       2.183  12.014  18.908  0.00  0.00    +0.000 OA
ATOM     19  H   UNL     1       1.802   6.923  21.823  0.00  0.00    +0.000 HD
ENDROOT
BRANCH   1  20
ATOM     20  C   UNL     1      -0.181  13.748  18.428  0.00  0.00    +0.000 C 
BRANCH  20  22
ATOM     21  O   UNL     1      -0.979  14.945  20.392  0.00  0.00    +0.000 OA
ATOM     22  C   UNL     1      -0.095  14.812  19.551  0.00  0.00    +0.000 C 
ATOM     23  N   UNL     1       1.060  15.597  19.556  0.00  0.00    +0.000 N 
ATOM     24  C   UNL     1       2.154  15.574  18.604  0.00  0.00    +0.000 C 
ATOM     25  C   UNL     1       3.344  16.057  19.417  0.00  0.00    +0.000 C 
ATOM     26  C   UNL     1       2.747  17.031  20.431  0.00  0.00    +0.000 C 
ATOM     27  C   UNL     1       1.255  16.691  20.495  0.00  0.00    +0.000 C 
ENDBRANCH  20  22
ENDBRANCH   1  20
TORSDOF 2
ENDMDL
MODEL 6
REMARK VINA RESULT:      -6.8      9.102      9.773
REMARK  Name = 
REMARK  2 active torsions:
REMARK  status: ('A' for Active; 'I' for Inactive)
REMARK    1  A    between atoms: C_2  and  C_3
REMARK    2  A    between atoms: C_3  and  N_4
REMARK                            x       y       z     vdW  Elec       q    Type
REMARK                         _______ _______ _______ _____ _____    ______ ____
ROOT
ATOM      1  N   UNL     1       6.525   6.416  17.116  0.00  0.00    +0.000 N 
ATOM      2  C   UNL     1       6.993   5.148  16.906  0.00  0.00    +0.000 C 
ATOM      3  O   UNL     1       8.147   4.808  16.705  0.00  0.00    +0.000 OA
ATOM      4  C   UNL     1       5.830   4.209  17.047  0.00  0.00    +0.000 C 
ATOM      5  C   UNL     1       5.010   4.156  15.732  0.00  0.00    +0.000 C 
ATOM      6  C   UNL     1       3.685   3.400  15.891  0.00  0.00    +0.000 C 
ATOM      7  C   UNL     1       3.061   3.722  17.204  0.00  0.00    +0.000 A 
ATOM      8  N   UNL     1       1.843   3.245  17.595  0.00  0.00    +0.000 N 
ATOM      9  C   UNL     1       1.741   3.321  18.962  0.00  0.00    +0.000 A 
ATOM     10  C   UNL     1       0.769   2.775  19.813  0.00  0.00    +0.000 A 
ATOM     11  C   UNL     1       0.966   2.889  21.189  0.00  0.00    +0.000 A 
ATOM     12  C   UNL     1       2.088   3.543  21.689  0.00  0.00    +0.000 A 
ATOM     13  C   UNL     1       3.033   4.120  20.824  0.00  0.00    +0.000 A 
ATOM     14  C   UNL     1       2.871   4.012  19.424  0.00  0.00    +0.000 A 
ATOM     15  C   UNL     1       3.661   4.364  18.272  0.00  0.00    +0.000 A 
ATOM     16  C   UNL     1       5.055   4.923  18.174  0.00  0.00    +0.000 C 
ATOM     17  C   UNL     1       5.309   6.381  17.782  0.00  0.00    +0.000 C 
ATOM     18  O   UNL     1       4.652   7.359  18.114  0.00  0.00    +0.000 OA
ATOM     19  H   UNL     1       1.200   2.729  17.011  0.00  0.00    +0.000 HD
ENDROOT
BRANCH   1  20
ATOM     20  C   UNL     1       7.403   7.583  17.017  0.00  0.00    +0.000 C 
BRANCH  20  22
ATOM     21  O   UNL     1       8.577   7.110  19.098  0.00  0.00    +0.000 OA
ATOM     22  C   UNL     1       8.211   7.955  18.286  0.00  0.00    +0.000 C 
ATOM     23  N   UNL     1       8.512   9.310  18.438  0.00  0.00    +0.000 N 
ATOM     24  C   UNL     1       8.107  10.412  17.584  0.00  0.00    +0.000 C 
ATOM     25  C   UNL     1       9.207  11.442  17.787  0.00  0.00    +0.000 C 
ATOM     26  C   UNL     1       9.663  11.238  19.231  0.00  0.00    +0.000 C 
ATOM     27  C   UNL     1       9.194   9.832  19.613  0.00  0.00    +0.000 C 
ENDBRANCH  20  22
ENDBRANCH   1  20
TORSDOF 2
ENDMDL
MODEL 7
REMARK VINA RESULT:      -6.8      5.547     11.077
REMARK  Name = 
REMARK  2 active torsions:
REMARK  status: ('A' for Active; 'I' for Inactive)
REMARK    1  A    between atoms: C_2  and  C_3
REMARK    2  A    between atoms: C_3  and  N_4
REMARK                            x       y       z     vdW  Elec       q    Type
REMARK                         _______ _______ _______ _____ _____    ______ ____
ROOT
ATOM      1  N   UNL     1       5.050  15.893  19.369  0.00  0.00    +0.000 N 
ATOM      2  C   UNL     1       5.845  16.490  20.307  0.00  0.00    +0.000 C 
ATOM      3  O   UNL     1       5.495  17.006  21.355  0.00  0.00    +0.000 OA
ATOM      4  C   UNL     1       7.269  16.329  19.860  0.00  0.00    +0.000 C 
ATOM      5  C   UNL     1       7.638  17.414  18.815  0.00  0.00    +0.000 C 
ATOM      6  C   UNL     1       8.997  17.158  18.151  0.00  0.00    +0.000 C 
ATOM      7  C   UNL     1       9.176  15.705  17.884  0.00  0.00    +0.000 A 
ATOM      8  N   UNL     1      10.264  15.186  17.242  0.00  0.00    +0.000 N 
ATOM      9  C   UNL     1      10.375  13.850  17.539  0.00  0.00    +0.000 A 
ATOM     10  C   UNL     1      11.429  12.964  17.272  0.00  0.00    +0.000 A 
ATOM     11  C   UNL     1      11.349  11.674  17.797  0.00  0.00    +0.000 A 
ATOM     12  C   UNL     1      10.242  11.286  18.546  0.00  0.00    +0.000 A 
ATOM     13  C   UNL     1       9.175  12.172  18.771  0.00  0.00    +0.000 A 
ATOM     14  C   UNL     1       9.230  13.490  18.265  0.00  0.00    +0.000 A 
ATOM     15  C   UNL     1       8.410  14.669  18.386  0.00  0.00    +0.000 A 
ATOM     16  C   UNL     1       7.184  14.927  19.221  0.00  0.00    +0.000 C 
ATOM     17  C   UNL     1       5.789  15.010  18.596  0.00  0.00    +0.000 C 
ATOM     18  O   UNL     1       5.350  14.324  17.681  0.00  0.00    +0.000 OA
ATOM     19  H   UNL     1      10.991  15.724  16.792  0.00  0.00    +0.000 HD
ENDROOT
BRANCH   1  20
ATOM     20  C   UNL     1       3.591  15.899  19.484  0.00  0.00    +0.000 C 
BRANCH  20  22
ATOM     21  O   UNL     1       3.363  17.258  17.477  0.00  0.00    +0.000 OA
ATOM     22  C   UNL     1       2.814  16.756  18.454  0.00  0.00    +0.000 C 
ATOM     23  N   UNL     1       1.448  16.907  18.698  0.00  0.00    +0.000 N 
ATOM     24  C   UNL     1       0.685  16.410  19.827  0.00  0.00    +0.000 C 
ATOM     25  C   UNL     1      -0.718  16.248  19.266  0.00  0.00    +0.000 C 
ATOM     26  C   UNL     1      -0.842  17.350  18.217  0.00  0.00    +0.000 C 
ATOM     27  C   UNL     1       0.595  17.747  17.869  0.00  0.00    +0.000 C 
ENDBRANCH  20  22
ENDBRANCH   1  20
TORSDOF 2
ENDMDL
MODEL 8
REMARK VINA RESULT:      -6.7      4.035      6.243
REMARK  Name = 
REMARK  2 active torsions:
REMARK  status: ('A' for Active; 'I' for Inactive)
REMARK    1  A    between atoms: C_2  and  C_3
REMARK    2  A    between atoms: C_3  and  N_4
REMARK                            x       y       z     vdW  Elec       q    Type
REMARK                         _______ _______ _______ _____ _____    ______ ____
ROOT
ATOM      1  N   UNL     1      -0.132  13.694  21.121  0.00  0.00    +0.000 N 
ATOM      2  C   UNL     1      -1.348  13.071  21.146  0.00  0.00    +0.000 C 
ATOM      3  O   UNL     1      -2.447  13.587  21.033  0.00  0.00    +0.000 OA
ATOM      4  C   UNL     1      -1.096  11.595  21.258  0.00  0.00    +0.000 C 
ATOM      5  C   UNL     1      -0.830  11.198  22.733  0.00  0.00    +0.000 C 
ATOM      6  C   UNL     1      -0.337   9.753  22.877  0.00  0.00    +0.000 C 
ATOM      7  C   UNL     1       0.613   9.420  21.781  0.00  0.00    +0.000 A 
ATOM      8  N   UNL     1       1.263   8.223  21.688  0.00  0.00    +0.000 N 
ATOM      9  C   UNL     1       1.687   8.034  20.395  0.00  0.00    +0.000 A 
ATOM     10  C   UNL     1       2.216   6.884  19.791  0.00  0.00    +0.000 A 
ATOM     11  C   UNL     1       2.452   6.915  18.417  0.00  0.00    +0.000 A 
ATOM     12  C   UNL     1       2.184   8.067  17.682  0.00  0.00    +0.000 A 
ATOM     13  C   UNL     1       1.692   9.225  18.308  0.00  0.00    +0.000 A 
ATOM     14  C   UNL     1       1.429   9.223  19.696  0.00  0.00    +0.000 A 
ATOM     15  C   UNL     1       0.837  10.149  20.628  0.00  0.00    +0.000 A 
ATOM     16  C   UNL     1       0.179  11.483  20.398  0.00  0.00    +0.000 C 
ATOM     17  C   UNL     1       0.869  12.796  20.782  0.00  0.00    +0.000 C 
ATOM     18  O   UNL     1       2.059  13.062  20.673  0.00  0.00    +0.000 OA
ATOM     19  H   UNL     1       1.258   7.496  22.389  0.00  0.00    +0.000 HD
ENDROOT
BRANCH   1  20
ATOM     20  C   UNL     1      -0.018  15.152  21.051  0.00  0.00    +0.000 C 
BRANCH  20  22
ATOM     21  O   UNL     1       0.501  15.346  18.680  0.00  0.00    +0.000 OA
ATOM     22  C   UNL     1      -0.117  15.790  19.642  0.00  0.00    +0.000 C 
ATOM     23  N   UNL     1      -0.969  16.892  19.534  0.00  0.00    +0.000 N 
ATOM     24  C   UNL     1      -1.720  17.542  20.591  0.00  0.00    +0.000 C 
ATOM     25  C   UNL     1      -2.910  18.146  19.863  0.00  0.00    +0.000 C 
ATOM     26  C   UNL     1      -2.374  18.497  18.476  0.00  0.00    +0.000 C 
ATOM     27  C   UNL     1      -1.110  17.651  18.301  0.00  0.00    +0.000 C 
ENDBRANCH  20  22
ENDBRANCH   1  20
TORSDOF 2
ENDMDL
MODEL 9
REMARK VINA RESULT:      -6.7      7.412     10.653
REMARK  Name = 
REMARK  2 active torsions:
REMARK  status: ('A' for Active; 'I' for Inactive)
REMARK    1  A    between atoms: C_2  and  C_3
REMARK    2  A    between atoms: C_3  and  N_4
REMARK                            x       y       z     vdW  Elec       q    Type
REMARK                         _______ _______ _______ _____ _____    ______ ____
ROOT
ATOM      1  N   UNL     1       3.315   6.053  18.889  0.00  0.00    +0.000 N 
ATOM      2  C   UNL     1       3.992   4.994  19.429  0.00  0.00    +0.000 C 
ATOM      3  O   UNL     1       3.677   4.332  20.403  0.00  0.00    +0.000 OA
ATOM      4  C   UNL     1       5.180   4.724  18.551  0.00  0.00    +0.000 C 
ATOM      5  C   UNL     1       6.346   5.686  18.901  0.00  0.00    +0.000 C 
ATOM      6  C   UNL     1       7.494   5.615  17.887  0.00  0.00    +0.000 C 
ATOM      7  C   UNL     1       6.957   5.488  16.505  0.00  0.00    +0.000 A 
ATOM      8  N   UNL     1       7.745   5.469  15.390  0.00  0.00    +0.000 N 
ATOM      9  C   UNL     1       7.050   4.901  14.351  0.00  0.00    +0.000 A 
ATOM     10  C   UNL     1       7.510   4.496  13.089  0.00  0.00    +0.000 A 
ATOM     11  C   UNL     1       6.621   3.823  12.252  0.00  0.00    +0.000 A 
ATOM     12  C   UNL     1       5.312   3.582  12.663  0.00  0.00    +0.000 A 
ATOM     13  C   UNL     1       4.854   4.029  13.914  0.00  0.00    +0.000 A 
ATOM     14  C   UNL     1       5.733   4.703  14.791  0.00  0.00    +0.000 A 
ATOM     15  C   UNL     1       5.655   5.188  16.146  0.00  0.00    +0.000 A 
ATOM     16  C   UNL     1       4.565   5.050  17.175  0.00  0.00    +0.000 C 
ATOM     17  C   UNL     1       3.671   6.231  17.561  0.00  0.00    +0.000 C 
ATOM     18  O   UNL     1       3.227   7.093  16.814  0.00  0.00    +0.000 OA
ATOM     19  H   UNL     1       8.739   5.645  15.372  0.00  0.00    +0.000 HD
ENDROOT
BRANCH   1  20
ATOM     20  C   UNL     1       2.114   6.599  19.523  0.00  0.00    +0.000 C 
BRANCH  20  22
ATOM     21  O   UNL     1       2.351   8.806  18.524  0.00  0.00    +0.000 OA
ATOM     22  C   UNL     1       1.934   8.137  19.463  0.00  0.00    +0.000 C 
ATOM     23  N   UNL     1       1.249   8.709  20.538  0.00  0.00    +0.000 N 
ATOM     24  C   UNL     1       0.744   8.046  21.725  0.00  0.00    +0.000 C 
ATOM     25  C   UNL     1      -0.425   8.920  22.151  0.00  0.00    +0.000 C 
ATOM     26  C   UNL     1      -0.024  10.332  21.728  0.00  0.00    +0.000 C 
ATOM     27  C   UNL     1       1.067  10.147  20.670  0.00  0.00    +0.000 C 
ENDBRANCH  20  22
ENDBRANCH   1  20
TORSDOF 2
ENDMDL
