MODEL 1
REMARK VINA RESULT:      -7.8      0.000      0.000
REMARK  Name = 
REMARK  6 active torsions:
REMARK  status: ('A' for Active; 'I' for Inactive)
REMARK    1  A    between atoms: C_1  and  N_2
REMARK    2  A    between atoms: N_2  and  C_3
REMARK    3  A    between atoms: C_3  and  C_4
REMARK    4  A    between atoms: C_6  and  C_7
REMARK    5  A    between atoms: C_13  and  C_14
REMARK    6  A    between atoms: N_20  and  C_21
REMARK                            x       y       z     vdW  Elec       q    Type
REMARK                         _______ _______ _______ _____ _____    ______ ____
ROOT
ATOM      1  C   UNL     1       2.260   8.594  18.764  0.00  0.00    +0.000 A 
ATOM      2  N   UNL     1       3.076   8.089  17.859  0.00  0.00    +0.000 NA
ATOM      3  C   UNL     1       3.113   6.731  18.085  0.00  0.00    +0.000 A 
ATOM      4  C   UNL     1       2.321   6.381  19.181  0.00  0.00    +0.000 A 
ATOM      5  N   UNL     1       1.794   7.600  19.597  0.00  0.00    +0.000 N 
ATOM      6  C   UNL     1       0.945   7.848  20.743  0.00  0.00    +0.000 C 
ENDROOT
BRANCH   3   7
ATOM      7  C   UNL     1       3.940   5.857  17.256  0.00  0.00    +0.000 A 
ATOM      8  C   UNL     1       4.860   6.429  16.366  0.00  0.00    +0.000 A 
ATOM      9  C   UNL     1       5.724   5.627  15.611  0.00  0.00    +0.000 A 
ATOM     10  C   UNL     1       5.682   4.239  15.746  0.00  0.00    +0.000 A 
ATOM     11  C   UNL     1       4.752   3.657  16.600  0.00  0.00    +0.000 A 
ATOM     12  C   UNL     1       3.867   4.461  17.325  0.00  0.00    +0.000 A 
ENDBRANCH   3   7
BRANCH   4  13
ATOM     13  C   UNL     1       2.081   5.083  19.836  0.00  0.00    +0.000 A 
ATOM     14  C   UNL     1       1.206   4.146  19.256  0.00  0.00    +0.000 A 
ATOM     15  C   UNL     1       0.843   2.978  19.935  0.00  0.00    +0.000 A 
ATOM     16  C   UNL     1       1.401   2.694  21.177  0.00  0.00    +0.000 A 
ATOM     17  C   UNL     1       2.309   3.581  21.746  0.00  0.00    +0.000 A 
ATOM     18  C   UNL     1       2.613   4.783  21.099  0.00  0.00    +0.000 A 
ENDBRANCH   4  13
BRANCH   1  19
ATOM     19  C   UNL     1       1.855  10.047  18.846  0.00  0.00    +0.000 C 
BRANCH  19  21
ATOM     20  C   UNL     1      -0.443   9.936  17.863  0.00  0.00    +0.000 C 
ATOM     21  N   UNL     1       0.423  10.353  18.956  0.00  0.00    +0.000 N 
ATOM     22  C   UNL     1      -0.017  11.319  19.848  0.00  0.00    +0.000 A 
ATOM     23  C   UNL     1      -1.376  11.476  20.138  0.00  0.00    +0.000 A 
ATOM     24  C   UNL     1      -1.808  12.489  20.996  0.00  0.00    +0.000 A 
ATOM     25  C   UNL     1      -0.879  13.354  21.540  0.00  0.00    +0.000 A 
ATOM     26  C   UNL     1       0.450  13.122  21.249  0.00  0.00    +0.000 A 
ATOM     27  N   UNL     1       0.885  12.116  20.446  0.00  0.00    +0.000 NA
ENDBRANCH  19  21
ENDBRANCH   1  19
TORSDOF 4
ENDMDL
MODEL 2
REMARK VINA RESULT:      -7.7      0.609      1.101
REMARK  Name = 
REMARK  6 active torsions:
REMARK  status: ('A' for Active; 'I' for Inactive)
REMARK    1  A    between atoms: C_1  and  N_2
REMARK    2  A    between atoms: N_2  and  C_3
REMARK    3  A    between atoms: C_3  and  C_4
REMARK    4  A    between atoms: C_6  and  C_7
REMARK    5  A    between atoms: C_13  and  C_14
REMARK    6  A    between atoms: N_20  and  C_21
REMARK                            x       y       z     vdW  Elec       q    Type
REMARK                         _______ _______ _______ _____ _____    ______ ____
ROOT
ATOM      1  C   UNL     1       1.891   8.695  19.202  0.00  0.00    +0.000 A 
ATOM      2  N   UNL     1       2.685   8.220  18.262  0.00  0.00    +0.000 NA
ATOM      3  C   UNL     1       2.752   6.859  18.463  0.00  0.00    +0.000 A 
ATOM      4  C   UNL     1       2.001   6.477  19.578  0.00  0.00    +0.000 A 
ATOM      5  N   UNL     1       1.468   7.679  20.032  0.00  0.00    +0.000 N 
ATOM      6  C   UNL     1       0.653   7.893  21.209  0.00  0.00    +0.000 C 
ENDROOT
BRANCH   3   7
ATOM      7  C   UNL     1       3.564   6.014  17.592  0.00  0.00    +0.000 A 
ATOM      8  C   UNL     1       4.569   6.603  16.810  0.00  0.00    +0.000 A 
ATOM      9  C   UNL     1       5.420   5.818  16.023  0.00  0.00    +0.000 A 
ATOM     10  C   UNL     1       5.279   4.430  16.016  0.00  0.00    +0.000 A 
ATOM     11  C   UNL     1       4.267   3.835  16.759  0.00  0.00    +0.000 A 
ATOM     12  C   UNL     1       3.397   4.626  17.517  0.00  0.00    +0.000 A 
ENDBRANCH   3   7
BRANCH   4  13
ATOM     13  C   UNL     1       1.804   5.164  20.217  0.00  0.00    +0.000 A 
ATOM     14  C   UNL     1       2.666   4.737  21.243  0.00  0.00    +0.000 A 
ATOM     15  C   UNL     1       2.596   3.436  21.753  0.00  0.00    +0.000 A 
ATOM     16  C   UNL     1       1.618   2.561  21.293  0.00  0.00    +0.000 A 
ATOM     17  C   UNL     1       0.721   2.979  20.315  0.00  0.00    +0.000 A 
ATOM     18  C   UNL     1       0.840   4.255  19.754  0.00  0.00    +0.000 A 
ENDBRANCH   4  13
BRANCH   1  19
ATOM     19  C   UNL     1       1.465  10.140  19.323  0.00  0.00    +0.000 C 
BRANCH  19  21
ATOM     20  C   UNL     1      -0.529   9.917  17.828  0.00  0.00    +0.000 C 
ATOM     21  N   UNL     1       0.062  10.466  19.040  0.00  0.00    +0.000 N 
ATOM     22  C   UNL     1      -0.546  11.540  19.672  0.00  0.00    +0.000 A 
ATOM     23  C   UNL     1      -1.928  11.740  19.600  0.00  0.00    +0.000 A 
ATOM     24  C   UNL     1      -2.517  12.857  20.195  0.00  0.00    +0.000 A 
ATOM     25  C   UNL     1      -1.716  13.779  20.840  0.00  0.00    +0.000 A 
ATOM     26  C   UNL     1      -0.366  13.505  20.914  0.00  0.00    +0.000 A 
ATOM     27  N   UNL     1       0.213  12.401  20.372  0.00  0.00    +0.000 NA
ENDBRANCH  19  21
ENDBRANCH   1  19
TORSDOF 4
ENDMDL
MODEL 3
REMARK VINA RESULT:      -7.7      3.083      6.445
REMARK  Name = 
REMARK  6 active torsions:
REMARK  status: ('A' for Active; 'I' for Inactive)
REMARK    1  A    between atoms: C_1  and  N_2
REMARK    2  A    between atoms: N_2  and  C_3
REMARK    3  A    between atoms: C_3  and  C_4
REMARK    4  A    between atoms: C_6  and  C_7
REMARK    5  A    between atoms: C_13  and  C_14
REMARK    6  A    between atoms: N_20  and  C_21
REMARK                            x       y       z     vdW  Elec       q    Type
REMARK                         _______ _______ _______ _____ _____    ______ ____
ROOT
ATOM      1  C   UNL     1       5.226   6.713  17.544  0.00  0.00    +0.000 A 
ATOM      2  N   UNL     1       4.423   7.741  17.735  0.00  0.00    +0.000 NA
ATOM      3  C   UNL     1       3.270   7.234  18.290  0.00  0.00    +0.000 A 
ATOM      4  C   UNL     1       3.343   5.844  18.423  0.00  0.00    +0.000 A 
ATOM      5  N   UNL     1       4.607   5.542  17.929  0.00  0.00    +0.000 N 
ATOM      6  C   UNL     1       5.200   4.231  17.765  0.00  0.00    +0.000 C 
ENDROOT
BRANCH   3   7
ATOM      7  C   UNL     1       2.151   8.113  18.624  0.00  0.00    +0.000 A 
ATOM      8  C   UNL     1       1.751   8.231  19.962  0.00  0.00    +0.000 A 
ATOM      9  C   UNL     1       0.736   9.122  20.333  0.00  0.00    +0.000 A 
ATOM     10  C   UNL     1       0.115   9.912  19.366  0.00  0.00    +0.000 A 
ATOM     11  C   UNL     1       0.479   9.781  18.031  0.00  0.00    +0.000 A 
ATOM     12  C   UNL     1       1.469   8.865  17.661  0.00  0.00    +0.000 A 
ENDBRANCH   3   7
BRANCH   4  13
ATOM     13  C   UNL     1       2.360   4.858  18.906  0.00  0.00    +0.000 A 
ATOM     14  C   UNL     1       2.173   4.660  20.287  0.00  0.00    +0.000 A 
ATOM     15  C   UNL     1       1.365   3.625  20.766  0.00  0.00    +0.000 A 
ATOM     16  C   UNL     1       0.675   2.811  19.874  0.00  0.00    +0.000 A 
ATOM     17  C   UNL     1       0.804   3.022  18.505  0.00  0.00    +0.000 A 
ATOM     18  C   UNL     1       1.671   4.010  18.027  0.00  0.00    +0.000 A 
ENDBRANCH   4  13
BRANCH   1  19
ATOM     19  C   UNL     1       6.642   6.808  17.024  0.00  0.00    +0.000 C 
BRANCH  19  21
ATOM     20  C   UNL     1       7.999   6.290  19.062  0.00  0.00    +0.000 C 
ATOM     21  N   UNL     1       7.694   7.203  17.969  0.00  0.00    +0.000 N 
ATOM     22  C   UNL     1       8.096   8.527  18.051  0.00  0.00    +0.000 A 
ATOM     23  C   UNL     1       9.237   8.898  18.769  0.00  0.00    +0.000 A 
ATOM     24  C   UNL     1       9.598  10.241  18.887  0.00  0.00    +0.000 A 
ATOM     25  C   UNL     1       8.801  11.208  18.306  0.00  0.00    +0.000 A 
ATOM     26  C   UNL     1       7.712  10.777  17.576  0.00  0.00    +0.000 A 
ATOM     27  N   UNL     1       7.374   9.470  17.421  0.00  0.00    +0.000 NA
ENDBRANCH  19  21
ENDBRANCH   1  19
TORSDOF 4
ENDMDL
MODEL 4
REMARK VINA RESULT:      -7.6      0.429      1.019
REMARK  Name = 
REMARK  6 active torsions:
REMARK  status: ('A' for Active; 'I' for Inactive)
REMARK    1  A    between atoms: C_1  and  N_2
REMARK    2  A    between atoms: N_2  and  C_3
REMARK    3  A    between atoms: C_3  and  C_4
REMARK    4  A    between atoms: C_6  and  C_7
REMARK    5  A    between atoms: C_13  and  C_14
REMARK    6  A    between atoms: N_20  and  C_21
REMARK                            x       y       z     vdW  Elec       q    Type
REMARK                         _______ _______ _______ _____ _____    ______ ____
ROOT
ATOM      1  C   UNL     1       2.167   8.560  18.937  0.00  0.00    +0.000 A 
ATOM      2  N   UNL     1       3.032   8.134  18.038  0.00  0.00    +0.000 NA
ATOM      3  C   UNL     1       3.115   6.769  18.197  0.00  0.00    +0.000 A 
ATOM      4  C   UNL     1       2.300   6.333  19.244  0.00  0.00    +0.000 A 
ATOM      5  N   UNL     1       1.712   7.507  19.702  0.00  0.00    +0.000 N 
ATOM      6  C   UNL     1       0.815   7.663  20.828  0.00  0.00    +0.000 C 
ENDROOT
BRANCH   3   7
ATOM      7  C   UNL     1       4.003   5.972  17.354  0.00  0.00    +0.000 A 
ATOM      8  C   UNL     1       4.015   4.578  17.501  0.00  0.00    +0.000 A 
ATOM      9  C   UNL     1       4.793   3.772  16.660  0.00  0.00    +0.000 A 
ATOM     10  C   UNL     1       5.563   4.356  15.654  0.00  0.00    +0.000 A 
ATOM     11  C   UNL     1       5.587   5.739  15.518  0.00  0.00    +0.000 A 
ATOM     12  C   UNL     1       4.835   6.541  16.383  0.00  0.00    +0.000 A 
ENDBRANCH   3   7
BRANCH   4  13
ATOM     13  C   UNL     1       2.089   4.994  19.823  0.00  0.00    +0.000 A 
ATOM     14  C   UNL     1       1.275   4.055  19.163  0.00  0.00    +0.000 A 
ATOM     15  C   UNL     1       0.935   2.841  19.768  0.00  0.00    +0.000 A 
ATOM     16  C   UNL     1       1.459   2.514  21.015  0.00  0.00    +0.000 A 
ATOM     17  C   UNL     1       2.308   3.405  21.662  0.00  0.00    +0.000 A 
ATOM     18  C   UNL     1       2.587   4.650  21.089  0.00  0.00    +0.000 A 
ENDBRANCH   4  13
BRANCH   1  19
ATOM     19  C   UNL     1       1.701   9.991  19.079  0.00  0.00    +0.000 C 
BRANCH  19  21
ATOM     20  C   UNL     1      -0.393   9.634  17.758  0.00  0.00    +0.000 C 
ATOM     21  N   UNL     1       0.273  10.269  18.886  0.00  0.00    +0.000 N 
ATOM     22  C   UNL     1      -0.313  11.366  19.498  0.00  0.00    +0.000 A 
ATOM     23  C   UNL     1      -1.702  11.532  19.520  0.00  0.00    +0.000 A 
ATOM     24  C   UNL     1      -2.273  12.670  20.092  0.00  0.00    +0.000 A 
ATOM     25  C   UNL     1      -1.450  13.647  20.617  0.00  0.00    +0.000 A 
ATOM     26  C   UNL     1      -0.091  13.407  20.603  0.00  0.00    +0.000 A 
ATOM     27  N   UNL     1       0.474  12.285  20.084  0.00  0.00    +0.000 NA
ENDBRANCH  19  21
ENDBRANCH   1  19
TORSDOF 4
ENDMDL
MODEL 5
REMARK VINA RESULT:      -7.6      0.221      1.327
REMARK  Name = 
REMARK  6 active torsions:
REMARK  status: ('A' for Active; 'I' for Inactive)
REMARK    1  A    between atoms: C_1  and  N_2
REMARK    2  A    between atoms: N_2  and  C_3
REMARK    3  A    between atoms: C_3  and  C_4
REMARK    4  A    between atoms: C_6  and  C_7
REMARK    5  A    between atoms: C_13  and  C_14
REMARK    6  A    between atoms: N_20  and  C_21
REMARK                            x       y       z     vdW  Elec       q    Type
REMARK                         _______ _______ _______ _____ _____    ______ ____
ROOT
ATOM      1  C   UNL     1       2.143   8.653  18.906  0.00  0.00    +0.000 A 
ATOM      2  N   UNL     1       2.978   8.138  18.025  0.00  0.00    +0.000 NA
ATOM      3  C   UNL     1       2.997   6.781  18.255  0.00  0.00    +0.000 A 
ATOM      4  C   UNL     1       2.172   6.441  19.330  0.00  0.00    +0.000 A 
ATOM      5  N   UNL     1       1.646   7.665  19.729  0.00  0.00    +0.000 N 
ATOM      6  C   UNL     1       0.769   7.923  20.852  0.00  0.00    +0.000 C 
ENDROOT
BRANCH   3   7
ATOM      7  C   UNL     1       3.837   5.898  17.449  0.00  0.00    +0.000 A 
ATOM      8  C   UNL     1       3.681   4.510  17.568  0.00  0.00    +0.000 A 
ATOM      9  C   UNL     1       4.411   3.632  16.757  0.00  0.00    +0.000 A 
ATOM     10  C   UNL     1       5.302   4.137  15.810  0.00  0.00    +0.000 A 
ATOM     11  C   UNL     1       5.492   5.510  15.704  0.00  0.00    +0.000 A 
ATOM     12  C   UNL     1       4.786   6.381  16.540  0.00  0.00    +0.000 A 
ENDBRANCH   3   7
BRANCH   4  13
ATOM     13  C   UNL     1       1.904   5.146  19.981  0.00  0.00    +0.000 A 
ATOM     14  C   UNL     1       2.575   4.794  21.166  0.00  0.00    +0.000 A 
ATOM     15  C   UNL     1       2.454   3.512  21.712  0.00  0.00    +0.000 A 
ATOM     16  C   UNL     1       1.606   2.581  21.121  0.00  0.00    +0.000 A 
ATOM     17  C   UNL     1       0.892   2.925  19.977  0.00  0.00    +0.000 A 
ATOM     18  C   UNL     1       1.072   4.182  19.391  0.00  0.00    +0.000 A 
ENDBRANCH   4  13
BRANCH   1  19
ATOM     19  C   UNL     1       1.748  10.110  18.975  0.00  0.00    +0.000 C 
BRANCH  19  21
ATOM     20  C   UNL     1      -0.498  10.023  17.878  0.00  0.00    +0.000 C 
ATOM     21  N   UNL     1       0.316  10.430  19.013  0.00  0.00    +0.000 N 
ATOM     22  C   UNL     1      -0.158  11.399  19.884  0.00  0.00    +0.000 A 
ATOM     23  C   UNL     1      -1.529  11.570  20.106  0.00  0.00    +0.000 A 
ATOM     24  C   UNL     1      -1.993  12.586  20.943  0.00  0.00    +0.000 A 
ATOM     25  C   UNL     1      -1.083  13.441  21.534  0.00  0.00    +0.000 A 
ATOM     26  C   UNL     1       0.256  13.196  21.310  0.00  0.00    +0.000 A 
ATOM     27  N   UNL     1       0.721  12.186  20.528  0.00  0.00    +0.000 NA
ENDBRANCH  19  21
ENDBRANCH   1  19
TORSDOF 4
ENDMDL
MODEL 6
REMARK VINA RESULT:      -7.5      3.450      7.373
REMARK  Name = 
REMARK  6 active torsions:
REMARK  status: ('A' for Active; 'I' for Inactive)
REMARK    1  A    between atoms: C_1  and  N_2
REMARK    2  A    between atoms: N_2  and  C_3
REMARK    3  A    between atoms: C_3  and  C_4
REMARK    4  A    between atoms: C_6  and  C_7
REMARK    5  A    between atoms: C_13  and  C_14
REMARK    6  A    between atoms: N_20  and  C_21
REMARK                            x       y       z     vdW  Elec       q    Type
REMARK                         _______ _______ _______ _____ _____    ______ ____
ROOT
ATOM      1  C   UNL     1      -1.867  12.306  20.148  0.00  0.00    +0.000 A 
ATOM      2  N   UNL     1      -1.401  11.095  19.913  0.00  0.00    +0.000 NA
ATOM      3  C   UNL     1      -0.047  11.233  19.710  0.00  0.00    +0.000 A 
ATOM      4  C   UNL     1       0.342  12.573  19.792  0.00  0.00    +0.000 A 
ATOM      5  N   UNL     1      -0.851  13.234  20.067  0.00  0.00    +0.000 N 
ATOM      6  C   UNL     1      -1.058  14.662  20.194  0.00  0.00    +0.000 C 
ENDROOT
BRANCH   3   7
ATOM      7  C   UNL     1       0.787  10.070  19.412  0.00  0.00    +0.000 A 
ATOM      8  C   UNL     1       1.041   9.134  20.423  0.00  0.00    +0.000 A 
ATOM      9  C   UNL     1       1.769   7.967  20.157  0.00  0.00    +0.000 A 
ATOM     10  C   UNL     1       2.245   7.722  18.869  0.00  0.00    +0.000 A 
ATOM     11  C   UNL     1       2.030   8.658  17.864  0.00  0.00    +0.000 A 
ATOM     12  C   UNL     1       1.332   9.838  18.144  0.00  0.00    +0.000 A 
ENDBRANCH   3   7
BRANCH   4  13
ATOM     13  C   UNL     1       1.651  13.222  19.601  0.00  0.00    +0.000 A 
ATOM     14  C   UNL     1       2.437  13.575  20.713  0.00  0.00    +0.000 A 
ATOM     15  C   UNL     1       3.605  14.329  20.563  0.00  0.00    +0.000 A 
ATOM     16  C   UNL     1       4.043  14.688  19.292  0.00  0.00    +0.000 A 
ATOM     17  C   UNL     1       3.309  14.305  18.175  0.00  0.00    +0.000 A 
ATOM     18  C   UNL     1       2.102  13.614  18.332  0.00  0.00    +0.000 A 
ENDBRANCH   4  13
BRANCH   1  19
ATOM     19  C   UNL     1      -3.300  12.626  20.505  0.00  0.00    +0.000 C 
BRANCH  19  21
ATOM     20  C   UNL     1      -2.585  12.498  22.899  0.00  0.00    +0.000 C 
ATOM     21  N   UNL     1      -3.644  12.731  21.928  0.00  0.00    +0.000 N 
ATOM     22  C   UNL     1      -4.969  12.668  22.332  0.00  0.00    +0.000 A 
ATOM     23  C   UNL     1      -5.347  12.986  23.640  0.00  0.00    +0.000 A 
ATOM     24  C   UNL     1      -6.677  12.864  24.045  0.00  0.00    +0.000 A 
ATOM     25  C   UNL     1      -7.617  12.400  23.145  0.00  0.00    +0.000 A 
ATOM     26  C   UNL     1      -7.190  12.142  21.859  0.00  0.00    +0.000 A 
ATOM     27  N   UNL     1      -5.906  12.295  21.442  0.00  0.00    +0.000 NA
ENDBRANCH  19  21
ENDBRANCH   1  19
TORSDOF 4
ENDMDL
MODEL 7
REMARK VINA RESULT:      -7.5      3.593      7.242
REMARK  Name = 
REMARK  6 active torsions:
REMARK  status: ('A' for Active; 'I' for Inactive)
REMARK    1  A    between atoms: C_1  and  N_2
REMARK    2  A    between atoms: N_2  and  C_3
REMARK    3  A    between atoms: C_3  and  C_4
REMARK    4  A    between atoms: C_6  and  C_7
REMARK    5  A    between atoms: C_13  and  C_14
REMARK    6  A    between atoms: N_20  and  C_21
REMARK                            x       y       z     vdW  Elec       q    Type
REMARK                         _______ _______ _______ _____ _____    ______ ____
ROOT
ATOM      1  C   UNL     1       0.253  13.931  19.860  0.00  0.00    +0.000 A 
ATOM      2  N   UNL     1      -0.859  13.637  19.216  0.00  0.00    +0.000 NA
ATOM      3  C   UNL     1      -0.837  12.278  19.003  0.00  0.00    +0.000 A 
ATOM      4  C   UNL     1       0.337  11.708  19.504  0.00  0.00    +0.000 A 
ATOM      5  N   UNL     1       1.016  12.797  20.041  0.00  0.00    +0.000 N 
ATOM      6  C   UNL     1       2.333  12.805  20.642  0.00  0.00    +0.000 C 
ENDROOT
BRANCH   3   7
ATOM      7  C   UNL     1      -1.930  11.613  18.297  0.00  0.00    +0.000 A 
ATOM      8  C   UNL     1      -3.239  11.748  18.781  0.00  0.00    +0.000 A 
ATOM      9  C   UNL     1      -4.322  11.193  18.089  0.00  0.00    +0.000 A 
ATOM     10  C   UNL     1      -4.107  10.500  16.898  0.00  0.00    +0.000 A 
ATOM     11  C   UNL     1      -2.811  10.329  16.424  0.00  0.00    +0.000 A 
ATOM     12  C   UNL     1      -1.730  10.857  17.137  0.00  0.00    +0.000 A 
ENDBRANCH   3   7
BRANCH   4  13
ATOM     13  C   UNL     1       0.838  10.323  19.475  0.00  0.00    +0.000 A 
ATOM     14  C   UNL     1       0.770   9.518  20.626  0.00  0.00    +0.000 A 
ATOM     15  C   UNL     1       1.379   8.260  20.667  0.00  0.00    +0.000 A 
ATOM     16  C   UNL     1       2.010   7.756  19.534  0.00  0.00    +0.000 A 
ATOM     17  C   UNL     1       2.045   8.513  18.368  0.00  0.00    +0.000 A 
ATOM     18  C   UNL     1       1.500   9.801  18.353  0.00  0.00    +0.000 A 
ENDBRANCH   4  13
BRANCH   1  19
ATOM     19  C   UNL     1       0.617  15.305  20.373  0.00  0.00    +0.000 C 
BRANCH  19  21
ATOM     20  C   UNL     1       2.832  16.416  20.030  0.00  0.00    +0.000 C 
ATOM     21  N   UNL     1       1.491  16.138  19.538  0.00  0.00    +0.000 N 
ATOM     22  C   UNL     1       0.951  16.932  18.538  0.00  0.00    +0.000 A 
ATOM     23  C   UNL     1       1.763  17.558  17.587  0.00  0.00    +0.000 A 
ATOM     24  C   UNL     1       1.208  18.399  16.621  0.00  0.00    +0.000 A 
ATOM     25  C   UNL     1      -0.155  18.628  16.627  0.00  0.00    +0.000 A 
ATOM     26  C   UNL     1      -0.907  17.949  17.565  0.00  0.00    +0.000 A 
ATOM     27  N   UNL     1      -0.383  17.098  18.485  0.00  0.00    +0.000 NA
ENDBRANCH  19  21
ENDBRANCH   1  19
TORSDOF 4
ENDMDL
MODEL 8
REMARK VINA RESULT:      -7.5      2.619      8.057
REMARK  Name = 
REMARK  6 active torsions:
REMARK  status: ('A' for Active; 'I' for Inactive)
REMARK    1  A    between atoms: C_1  and  N_2
REMARK    2  A    between atoms: N_2  and  C_3
REMARK    3  A    between atoms: C_3  and  C_4
REMARK    4  A    between atoms: C_6  and  C_7
REMARK    5  A    between atoms: C_13  and  C_14
REMARK    6  A    between atoms: N_20  and  C_21
REMARK                            x       y       z     vdW  Elec       q    Type
REMARK                         _______ _______ _______ _____ _____    ______ ____
ROOT
ATOM      1  C   UNL     1       5.070   5.351  17.417  0.00  0.00    +0.000 A 
ATOM      2  N   UNL     1       4.512   4.437  18.187  0.00  0.00    +0.000 NA
ATOM      3  C   UNL     1       3.434   5.043  18.791  0.00  0.00    +0.000 A 
ATOM      4  C   UNL     1       3.332   6.384  18.410  0.00  0.00    +0.000 A 
ATOM      5  N   UNL     1       4.400   6.550  17.535  0.00  0.00    +0.000 N 
ATOM      6  C   UNL     1       4.820   7.770  16.879  0.00  0.00    +0.000 C 
ENDROOT
BRANCH   3   7
ATOM      7  C   UNL     1       2.590   4.306  19.728  0.00  0.00    +0.000 A 
ATOM      8  C   UNL     1       1.394   3.737  19.268  0.00  0.00    +0.000 A 
ATOM      9  C   UNL     1       0.596   2.957  20.114  0.00  0.00    +0.000 A 
ATOM     10  C   UNL     1       0.993   2.731  21.432  0.00  0.00    +0.000 A 
ATOM     11  C   UNL     1       2.159   3.316  21.911  0.00  0.00    +0.000 A 
ATOM     12  C   UNL     1       2.934   4.123  21.072  0.00  0.00    +0.000 A 
ENDBRANCH   3   7
BRANCH   4  13
ATOM     13  C   UNL     1       2.393   7.444  18.819  0.00  0.00    +0.000 A 
ATOM     14  C   UNL     1       1.939   8.390  17.882  0.00  0.00    +0.000 A 
ATOM     15  C   UNL     1       1.176   9.493  18.279  0.00  0.00    +0.000 A 
ATOM     16  C   UNL     1       0.797   9.633  19.610  0.00  0.00    +0.000 A 
ATOM     17  C   UNL     1       1.191   8.681  20.545  0.00  0.00    +0.000 A 
ATOM     18  C   UNL     1       2.015   7.620  20.159  0.00  0.00    +0.000 A 
ENDBRANCH   4  13
BRANCH   1  19
ATOM     19  C   UNL     1       6.245   5.108  16.499  0.00  0.00    +0.000 C 
BRANCH  19  21
ATOM     20  C   UNL     1       5.633   2.822  15.689  0.00  0.00    +0.000 C 
ATOM     21  N   UNL     1       6.058   4.178  15.378  0.00  0.00    +0.000 N 
ATOM     22  C   UNL     1       6.624   4.453  14.143  0.00  0.00    +0.000 A 
ATOM     23  C   UNL     1       6.282   3.714  13.006  0.00  0.00    +0.000 A 
ATOM     24  C   UNL     1       6.902   3.966  11.781  0.00  0.00    +0.000 A 
ATOM     25  C   UNL     1       7.878   4.941  11.706  0.00  0.00    +0.000 A 
ATOM     26  C   UNL     1       8.141   5.663  12.852  0.00  0.00    +0.000 A 
ATOM     27  N   UNL     1       7.516   5.453  14.041  0.00  0.00    +0.000 NA
ENDBRANCH  19  21
ENDBRANCH   1  19
TORSDOF 4
ENDMDL
MODEL 9
REMARK VINA RESULT:      -7.4      2.388      8.911
REMARK  Name = 
REMARK  6 active torsions:
REMARK  status: ('A' for Active; 'I' for Inactive)
REMARK    1  A    between atoms: C_1  and  N_2
REMARK    2  A    between atoms: N_2  and  C_3
REMARK    3  A    between atoms: C_3  and  C_4
REMARK    4  A    between atoms: C_6  and  C_7
REMARK    5  A    between atoms: C_13  and  C_14
REMARK    6  A    between atoms: N_20  and  C_21
REMARK                            x       y       z     vdW  Elec       q    Type
REMARK                         _______ _______ _______ _____ _____    ______ ____
ROOT
ATOM      1  C   UNL     1       0.158  10.219  19.876  0.00  0.00    +0.000 A 
ATOM      2  N   UNL     1      -1.006  10.067  19.275  0.00  0.00    +0.000 NA
ATOM      3  C   UNL     1      -1.500  11.333  19.059  0.00  0.00    +0.000 A 
ATOM      4  C   UNL     1      -0.632  12.305  19.564  0.00  0.00    +0.000 A 
ATOM      5  N   UNL     1       0.417  11.556  20.087  0.00  0.00    +0.000 N 
ATOM      6  C   UNL     1       1.578  12.044  20.801  0.00  0.00    +0.000 C 
ENDROOT
BRANCH   3   7
ATOM      7  C   UNL     1      -2.794  11.531  18.411  0.00  0.00    +0.000 A 
ATOM      8  C   UNL     1      -2.932  11.224  17.050  0.00  0.00    +0.000 A 
ATOM      9  C   UNL     1      -4.175  11.325  16.412  0.00  0.00    +0.000 A 
ATOM     10  C   UNL     1      -5.298  11.728  17.135  0.00  0.00    +0.000 A 
ATOM     11  C   UNL     1      -5.169  12.068  18.477  0.00  0.00    +0.000 A 
ATOM     12  C   UNL     1      -3.919  11.999  19.100  0.00  0.00    +0.000 A 
ENDBRANCH   3   7
BRANCH   4  13
ATOM     13  C   UNL     1      -0.740  13.774  19.620  0.00  0.00    +0.000 A 
ATOM     14  C   UNL     1      -1.565  14.390  20.578  0.00  0.00    +0.000 A 
ATOM     15  C   UNL     1      -1.804  15.768  20.549  0.00  0.00    +0.000 A 
ATOM     16  C   UNL     1      -1.169  16.564  19.601  0.00  0.00    +0.000 A 
ATOM     17  C   UNL     1      -0.307  15.983  18.676  0.00  0.00    +0.000 A 
ATOM     18  C   UNL     1      -0.128  14.596  18.661  0.00  0.00    +0.000 A 
ENDBRANCH   4  13
BRANCH   1  19
ATOM     19  C   UNL     1       1.098   9.092  20.237  0.00  0.00    +0.000 C 
BRANCH  19  21
ATOM     20  C   UNL     1       1.804   9.092  17.837  0.00  0.00    +0.000 C 
ATOM     21  N   UNL     1       1.881   8.482  19.156  0.00  0.00    +0.000 N 
ATOM     22  C   UNL     1       2.353   7.184  19.283  0.00  0.00    +0.000 A 
ATOM     23  C   UNL     1       3.282   6.655  18.381  0.00  0.00    +0.000 A 
ATOM     24  C   UNL     1       3.704   5.329  18.491  0.00  0.00    +0.000 A 
ATOM     25  C   UNL     1       3.176   4.533  19.488  0.00  0.00    +0.000 A 
ATOM     26  C   UNL     1       2.295   5.123  20.371  0.00  0.00    +0.000 A 
ATOM     27  N   UNL     1       1.907   6.423  20.298  0.00  0.00    +0.000 NA
ENDBRANCH  19  21
ENDBRANCH   1  19
TORSDOF 4
ENDMDL
