MODEL 1
REMARK VINA RESULT:      -7.2      0.000      0.000
REMARK  Name = 
REMARK  12 active torsions:
REMARK  status: ('A' for Active; 'I' for Inactive)
REMARK    1  A    between atoms: C_1  and  C_2
REMARK    2  A    between atoms: C_2  and  N_3
REMARK    3  A    between atoms: N_3  and  C_4
REMARK    4  A    between atoms: N_3  and  S_11
REMARK    5  A    between atoms: C_4  and  C_5
REMARK    6  A    between atoms: N_8  and  C_9
REMARK    7  A    between atoms: S_11  and  C_14
REMARK    8  A    between atoms: C_17  and  N_18
REMARK    9  A    between atoms: C_19  and  C_21
REMARK   10  A    between atoms: C_21  and  C_22
REMARK   11  A    between atoms: C_21  and  C_23
REMARK   12  A    between atoms: C_21  and  C_24
REMARK                            x       y       z     vdW  Elec       q    Type
REMARK                         _______ _______ _______ _____ _____    ______ ____
ROOT
ATOM      1  C   UNL     1       4.068   6.012  18.511  0.00  0.00    +0.000 A 
ATOM      2  C   UNL     1       3.139   6.089  19.548  0.00  0.00    +0.000 A 
ATOM      3  C   UNL     1       2.201   7.118  19.564  0.00  0.00    +0.000 A 
ATOM      4  C   UNL     1       2.177   8.077  18.550  0.00  0.00    +0.000 A 
ATOM      5  C   UNL     1       3.113   7.990  17.508  0.00  0.00    +0.000 A 
ATOM      6  C   UNL     1       4.077   6.974  17.499  0.00  0.00    +0.000 A 
ENDROOT
BRANCH   4   7
ATOM      7  N   UNL     1       1.248   9.140  18.526  0.00  0.00    +0.000 N 
ATOM      8  C   UNL     1       0.799   9.854  19.629  0.00  0.00    +0.000 C 
ATOM      9  O   UNL     1       1.188   9.675  20.782  0.00  0.00    +0.000 OA
ATOM     10  H   UNL     1       0.973   9.468  17.610  0.00  0.00    +0.000 HD
BRANCH   8  11
ATOM     11  C   UNL     1      -0.245  10.946  19.314  0.00  0.00    +0.000 C 
ATOM     12  C   UNL     1      -0.997  11.338  20.593  0.00  0.00    +0.000 C 
ATOM     13  C   UNL     1       0.486  12.191  18.772  0.00  0.00    +0.000 C 
ATOM     14  C   UNL     1      -1.229  10.458  18.242  0.00  0.00    +0.000 C 
ENDBRANCH   8  11
ENDBRANCH   4   7
BRANCH   1  15
ATOM     15  S   UNL     1       5.322   4.757  18.600  0.00  0.00    +0.000 S 
ATOM     16  O   UNL     1       4.770   3.596  17.929  0.00  0.00    +0.000 OA
ATOM     17  O   UNL     1       5.767   4.686  19.975  0.00  0.00    +0.000 OA
BRANCH  15  18
ATOM     18  N   UNL     1       6.589   5.413  17.636  0.00  0.00    +0.000 NA
BRANCH  18  20
ATOM     19  C   UNL     1       7.663   7.698  17.550  0.00  0.00    +0.000 C 
ATOM     20  C   UNL     1       7.421   6.429  18.349  0.00  0.00    +0.000 C 
ENDBRANCH  18  20
BRANCH  18  21
ATOM     21  C   UNL     1       7.333   4.400  16.835  0.00  0.00    +0.000 C 
BRANCH  21  22
ATOM     22  C   UNL     1       7.008   4.503  15.390  0.00  0.00    +0.000 A 
ATOM     23  C   UNL     1       7.573   5.358  14.418  0.00  0.00    +0.000 A 
ATOM     24  N   UNL     1       7.149   5.086  13.181  0.00  0.00    +0.000 NA
ATOM     25  N   UNL     1       6.315   4.046  13.365  0.00  0.00    +0.000 N 
ATOM     26  C   UNL     1       5.834   3.281  12.239  0.00  0.00    +0.000 C 
ATOM     27  C   UNL     1       6.106   3.742  14.671  0.00  0.00    +0.000 A 
ENDBRANCH  21  22
ENDBRANCH  18  21
ENDBRANCH  15  18
ENDBRANCH   1  15
TORSDOF 7
ENDMDL
MODEL 2
REMARK VINA RESULT:      -7.0      3.172      7.071
REMARK  Name = 
REMARK  12 active torsions:
REMARK  status: ('A' for Active; 'I' for Inactive)
REMARK    1  A    between atoms: C_1  and  C_2
REMARK    2  A    between atoms: C_2  and  N_3
REMARK    3  A    between atoms: N_3  and  C_4
REMARK    4  A    between atoms: N_3  and  S_11
REMARK    5  A    between atoms: C_4  and  C_5
REMARK    6  A    between atoms: N_8  and  C_9
REMARK    7  A    between atoms: S_11  and  C_14
REMARK    8  A    between atoms: C_17  and  N_18
REMARK    9  A    between atoms: C_19  and  C_21
REMARK   10  A    between atoms: C_21  and  C_22
REMARK   11  A    between atoms: C_21  and  C_23
REMARK   12  A    between atoms: C_21  and  C_24
REMARK                            x       y       z     vdW  Elec       q    Type
REMARK                         _______ _______ _______ _____ _____    ______ ____
ROOT
ATOM      1  C   UNL     1       6.560   6.151  18.015  0.00  0.00    +0.000 A 
ATOM      2  C   UNL     1       7.709   6.199  18.805  0.00  0.00    +0.000 A 
ATOM      3  C   UNL     1       8.479   7.358  18.838  0.00  0.00    +0.000 A 
ATOM      4  C   UNL     1       8.117   8.479  18.089  0.00  0.00    +0.000 A 
ATOM      5  C   UNL     1       6.958   8.422  17.299  0.00  0.00    +0.000 A 
ATOM      6  C   UNL     1       6.192   7.252  17.238  0.00  0.00    +0.000 A 
ENDROOT
BRANCH   4   7
ATOM      7  N   UNL     1       8.868   9.673  18.087  0.00  0.00    +0.000 N 
ATOM      8  C   UNL     1       9.210  10.421  19.206  0.00  0.00    +0.000 C 
ATOM      9  O   UNL     1       8.930  10.113  20.364  0.00  0.00    +0.000 OA
ATOM     10  H   UNL     1       9.274   9.941  17.202  0.00  0.00    +0.000 HD
BRANCH   8  11
ATOM     11  C   UNL     1      10.012  11.705  18.909  0.00  0.00    +0.000 C 
ATOM     12  C   UNL     1       9.070  12.916  18.873  0.00  0.00    +0.000 C 
ATOM     13  C   UNL     1      11.044  11.918  20.035  0.00  0.00    +0.000 C 
ATOM     14  C   UNL     1      10.768  11.574  17.579  0.00  0.00    +0.000 C 
ENDBRANCH   8  11
ENDBRANCH   4   7
BRANCH   1  15
ATOM     15  S   UNL     1       5.680   4.612  17.908  0.00  0.00    +0.000 S 
ATOM     16  O   UNL     1       6.007   3.883  19.117  0.00  0.00    +0.000 OA
ATOM     17  O   UNL     1       5.945   4.051  16.600  0.00  0.00    +0.000 OA
BRANCH  15  18
ATOM     18  N   UNL     1       4.033   5.108  17.979  0.00  0.00    +0.000 NA
BRANCH  18  20
ATOM     19  C   UNL     1       2.897   2.853  17.904  0.00  0.00    +0.000 C 
ATOM     20  C   UNL     1       3.101   4.204  17.240  0.00  0.00    +0.000 C 
ENDBRANCH  18  20
BRANCH  18  21
ATOM     21  C   UNL     1       3.585   5.548  19.332  0.00  0.00    +0.000 C 
BRANCH  21  22
ATOM     22  C   UNL     1       2.744   6.769  19.257  0.00  0.00    +0.000 A 
ATOM     23  C   UNL     1       1.968   7.368  20.274  0.00  0.00    +0.000 A 
ATOM     24  N   UNL     1       1.449   8.541  19.905  0.00  0.00    +0.000 NA
ATOM     25  N   UNL     1       1.905   8.696  18.647  0.00  0.00    +0.000 N 
ATOM     26  C   UNL     1       1.780   9.965  17.970  0.00  0.00    +0.000 C 
ATOM     27  C   UNL     1       2.576   7.615  18.177  0.00  0.00    +0.000 A 
ENDBRANCH  21  22
ENDBRANCH  18  21
ENDBRANCH  15  18
ENDBRANCH   1  15
TORSDOF 7
ENDMDL
MODEL 3
REMARK VINA RESULT:      -7.0      1.276      1.541
REMARK  Name = 
REMARK  12 active torsions:
REMARK  status: ('A' for Active; 'I' for Inactive)
REMARK    1  A    between atoms: C_1  and  C_2
REMARK    2  A    between atoms: C_2  and  N_3
REMARK    3  A    between atoms: N_3  and  C_4
REMARK    4  A    between atoms: N_3  and  S_11
REMARK    5  A    between atoms: C_4  and  C_5
REMARK    6  A    between atoms: N_8  and  C_9
REMARK    7  A    between atoms: S_11  and  C_14
REMARK    8  A    between atoms: C_17  and  N_18
REMARK    9  A    between atoms: C_19  and  C_21
REMARK   10  A    between atoms: C_21  and  C_22
REMARK   11  A    between atoms: C_21  and  C_23
REMARK   12  A    between atoms: C_21  and  C_24
REMARK                            x       y       z     vdW  Elec       q    Type
REMARK                         _______ _______ _______ _____ _____    ______ ____
ROOT
ATOM      1  C   UNL     1       3.101   5.977  18.630  0.00  0.00    +0.000 A 
ATOM      2  C   UNL     1       2.405   6.186  19.821  0.00  0.00    +0.000 A 
ATOM      3  C   UNL     1       1.802   7.416  20.066  0.00  0.00    +0.000 A 
ATOM      4  C   UNL     1       1.882   8.450  19.130  0.00  0.00    +0.000 A 
ATOM      5  C   UNL     1       2.582   8.230  17.933  0.00  0.00    +0.000 A 
ATOM      6  C   UNL     1       3.214   7.005  17.691  0.00  0.00    +0.000 A 
ENDROOT
BRANCH   4   7
ATOM      7  N   UNL     1       1.291   9.714  19.336  0.00  0.00    +0.000 N 
ATOM      8  C   UNL     1       0.250  10.256  18.593  0.00  0.00    +0.000 C 
ATOM      9  O   UNL     1      -0.325   9.678  17.671  0.00  0.00    +0.000 OA
ATOM     10  H   UNL     1       1.589  10.215  20.161  0.00  0.00    +0.000 HD
BRANCH   8  11
ATOM     11  C   UNL     1      -0.180  11.676  19.017  0.00  0.00    +0.000 C 
ATOM     12  C   UNL     1       0.935  12.680  18.697  0.00  0.00    +0.000 C 
ATOM     13  C   UNL     1      -1.441  12.072  18.222  0.00  0.00    +0.000 C 
ATOM     14  C   UNL     1      -0.520  11.712  20.514  0.00  0.00    +0.000 C 
ENDBRANCH   8  11
ENDBRANCH   4   7
BRANCH   1  15
ATOM     15  S   UNL     1       3.957   4.436  18.418  0.00  0.00    +0.000 S 
ATOM     16  O   UNL     1       3.400   3.833  17.224  0.00  0.00    +0.000 OA
ATOM     17  O   UNL     1       3.929   3.746  19.690  0.00  0.00    +0.000 OA
BRANCH  15  18
ATOM     18  N   UNL     1       5.572   4.938  18.093  0.00  0.00    +0.000 NA
BRANCH  18  20
ATOM     19  C   UNL     1       7.696   5.960  19.001  0.00  0.00    +0.000 C 
ATOM     20  C   UNL     1       6.243   5.594  19.255  0.00  0.00    +0.000 C 
ENDBRANCH  18  20
BRANCH  18  21
ATOM     21  C   UNL     1       6.384   3.934  17.347  0.00  0.00    +0.000 C 
BRANCH  21  22
ATOM     22  C   UNL     1       6.462   4.263  15.901  0.00  0.00    +0.000 A 
ATOM     23  C   UNL     1       7.211   5.279  15.267  0.00  0.00    +0.000 A 
ATOM     24  N   UNL     1       7.163   5.202  13.935  0.00  0.00    +0.000 NA
ATOM     25  N   UNL     1       6.385   4.124  13.718  0.00  0.00    +0.000 N 
ATOM     26  C   UNL     1       6.287   3.541  12.401  0.00  0.00    +0.000 C 
ATOM     27  C   UNL     1       5.848   3.607  14.851  0.00  0.00    +0.000 A 
ENDBRANCH  21  22
ENDBRANCH  18  21
ENDBRANCH  15  18
ENDBRANCH   1  15
TORSDOF 7
ENDMDL
MODEL 4
REMARK VINA RESULT:      -7.0      2.226      3.578
REMARK  Name = 
REMARK  12 active torsions:
REMARK  status: ('A' for Active; 'I' for Inactive)
REMARK    1  A    between atoms: C_1  and  C_2
REMARK    2  A    between atoms: C_2  and  N_3
REMARK    3  A    between atoms: N_3  and  C_4
REMARK    4  A    between atoms: N_3  and  S_11
REMARK    5  A    between atoms: C_4  and  C_5
REMARK    6  A    between atoms: N_8  and  C_9
REMARK    7  A    between atoms: S_11  and  C_14
REMARK    8  A    between atoms: C_17  and  N_18
REMARK    9  A    between atoms: C_19  and  C_21
REMARK   10  A    between atoms: C_21  and  C_22
REMARK   11  A    between atoms: C_21  and  C_23
REMARK   12  A    between atoms: C_21  and  C_24
REMARK                            x       y       z     vdW  Elec       q    Type
REMARK                         _______ _______ _______ _____ _____    ______ ____
ROOT
ATOM      1  C   UNL     1       2.074   5.899  19.200  0.00  0.00    +0.000 A 
ATOM      2  C   UNL     1       2.230   6.591  17.999  0.00  0.00    +0.000 A 
ATOM      3  C   UNL     1       2.109   7.977  17.976  0.00  0.00    +0.000 A 
ATOM      4  C   UNL     1       1.834   8.689  19.145  0.00  0.00    +0.000 A 
ATOM      5  C   UNL     1       1.681   7.985  20.350  0.00  0.00    +0.000 A 
ATOM      6  C   UNL     1       1.774   6.588  20.377  0.00  0.00    +0.000 A 
ENDROOT
BRANCH   4   7
ATOM      7  N   UNL     1       1.698  10.094  19.171  0.00  0.00    +0.000 N 
ATOM      8  C   UNL     1       0.515  10.801  19.002  0.00  0.00    +0.000 C 
ATOM      9  O   UNL     1      -0.590  10.284  18.843  0.00  0.00    +0.000 OA
ATOM     10  H   UNL     1       2.522  10.614  19.440  0.00  0.00    +0.000 HD
BRANCH   8  11
ATOM     11  C   UNL     1       0.664  12.336  19.044  0.00  0.00    +0.000 C 
ATOM     12  C   UNL     1      -0.520  12.999  18.329  0.00  0.00    +0.000 C 
ATOM     13  C   UNL     1       0.669  12.794  20.517  0.00  0.00    +0.000 C 
ATOM     14  C   UNL     1       1.989  12.767  18.400  0.00  0.00    +0.000 C 
ENDBRANCH   8  11
ENDBRANCH   4   7
BRANCH   1  15
ATOM     15  S   UNL     1       2.113   4.124  19.157  0.00  0.00    +0.000 S 
ATOM     16  O   UNL     1       1.289   3.736  18.028  0.00  0.00    +0.000 OA
ATOM     17  O   UNL     1       1.823   3.651  20.494  0.00  0.00    +0.000 OA
BRANCH  15  18
ATOM     18  N   UNL     1       3.761   3.787  18.792  0.00  0.00    +0.000 NA
BRANCH  18  20
ATOM     19  C   UNL     1       3.778   1.264  18.664  0.00  0.00    +0.000 C 
ATOM     20  C   UNL     1       4.260   2.511  19.387  0.00  0.00    +0.000 C 
ENDBRANCH  18  20
BRANCH  18  21
ATOM     21  C   UNL     1       4.135   4.038  17.370  0.00  0.00    +0.000 C 
BRANCH  21  22
ATOM     22  C   UNL     1       5.432   4.753  17.265  0.00  0.00    +0.000 A 
ATOM     23  C   UNL     1       6.519   4.485  16.404  0.00  0.00    +0.000 A 
ATOM     24  N   UNL     1       7.474   5.416  16.473  0.00  0.00    +0.000 NA
ATOM     25  N   UNL     1       6.988   6.287  17.378  0.00  0.00    +0.000 N 
ATOM     26  C   UNL     1       7.604   7.581  17.557  0.00  0.00    +0.000 C 
ATOM     27  C   UNL     1       5.837   5.874  17.964  0.00  0.00    +0.000 A 
ENDBRANCH  21  22
ENDBRANCH  18  21
ENDBRANCH  15  18
ENDBRANCH   1  15
TORSDOF 7
ENDMDL
MODEL 5
REMARK VINA RESULT:      -7.0      1.873      2.333
REMARK  Name = 
REMARK  12 active torsions:
REMARK  status: ('A' for Active; 'I' for Inactive)
REMARK    1  A    between atoms: C_1  and  C_2
REMARK    2  A    between atoms: C_2  and  N_3
REMARK    3  A    between atoms: N_3  and  C_4
REMARK    4  A    between atoms: N_3  and  S_11
REMARK    5  A    between atoms: C_4  and  C_5
REMARK    6  A    between atoms: N_8  and  C_9
REMARK    7  A    between atoms: S_11  and  C_14
REMARK    8  A    between atoms: C_17  and  N_18
REMARK    9  A    between atoms: C_19  and  C_21
REMARK   10  A    between atoms: C_21  and  C_22
REMARK   11  A    between atoms: C_21  and  C_23
REMARK   12  A    between atoms: C_21  and  C_24
REMARK                            x       y       z     vdW  Elec       q    Type
REMARK                         _______ _______ _______ _____ _____    ______ ____
ROOT
ATOM      1  C   UNL     1       2.414   5.704  18.961  0.00  0.00    +0.000 A 
ATOM      2  C   UNL     1       2.496   6.815  18.122  0.00  0.00    +0.000 A 
ATOM      3  C   UNL     1       2.119   8.070  18.592  0.00  0.00    +0.000 A 
ATOM      4  C   UNL     1       1.657   8.233  19.899  0.00  0.00    +0.000 A 
ATOM      5  C   UNL     1       1.579   7.110  20.738  0.00  0.00    +0.000 A 
ATOM      6  C   UNL     1       1.932   5.840  20.265  0.00  0.00    +0.000 A 
ENDROOT
BRANCH   4   7
ATOM      7  N   UNL     1       1.259   9.483  20.419  0.00  0.00    +0.000 N 
ATOM      8  C   UNL     1       0.151  10.217  20.015  0.00  0.00    +0.000 C 
ATOM      9  O   UNL     1      -0.659   9.849  19.166  0.00  0.00    +0.000 OA
ATOM     10  H   UNL     1       1.772   9.813  21.225  0.00  0.00    +0.000 HD
BRANCH   8  11
ATOM     11  C   UNL     1      -0.027  11.571  20.734  0.00  0.00    +0.000 C 
ATOM     12  C   UNL     1      -0.406  11.341  22.203  0.00  0.00    +0.000 C 
ATOM     13  C   UNL     1       1.309  12.340  20.684  0.00  0.00    +0.000 C 
ATOM     14  C   UNL     1      -1.098  12.418  20.031  0.00  0.00    +0.000 C 
ENDBRANCH   8  11
ENDBRANCH   4   7
BRANCH   1  15
ATOM     15  S   UNL     1       2.788   4.108  18.279  0.00  0.00    +0.000 S 
ATOM     16  O   UNL     1       2.003   4.001  17.065  0.00  0.00    +0.000 OA
ATOM     17  O   UNL     1       2.654   3.139  19.346  0.00  0.00    +0.000 OA
BRANCH  15  18
ATOM     18  N   UNL     1       4.452   4.251  17.861  0.00  0.00    +0.000 NA
BRANCH  18  20
ATOM     19  C   UNL     1       6.096   5.532  19.288  0.00  0.00    +0.000 C 
ATOM     20  C   UNL     1       5.372   4.220  19.038  0.00  0.00    +0.000 C 
ENDBRANCH  18  20
BRANCH  18  21
ATOM     21  C   UNL     1       4.859   3.426  16.688  0.00  0.00    +0.000 C 
BRANCH  21  22
ATOM     22  C   UNL     1       5.787   4.167  15.797  0.00  0.00    +0.000 A 
ATOM     23  C   UNL     1       6.972   4.857  16.137  0.00  0.00    +0.000 A 
ATOM     24  N   UNL     1       7.642   5.290  15.066  0.00  0.00    +0.000 NA
ATOM     25  N   UNL     1       6.884   4.866  14.037  0.00  0.00    +0.000 N 
ATOM     26  C   UNL     1       7.389   4.910  12.685  0.00  0.00    +0.000 C 
ATOM     27  C   UNL     1       5.713   4.301  14.424  0.00  0.00    +0.000 A 
ENDBRANCH  21  22
ENDBRANCH  18  21
ENDBRANCH  15  18
ENDBRANCH   1  15
TORSDOF 7
ENDMDL
MODEL 6
REMARK VINA RESULT:      -7.0      2.327      3.528
REMARK  Name = 
REMARK  12 active torsions:
REMARK  status: ('A' for Active; 'I' for Inactive)
REMARK    1  A    between atoms: C_1  and  C_2
REMARK    2  A    between atoms: C_2  and  N_3
REMARK    3  A    between atoms: N_3  and  C_4
REMARK    4  A    between atoms: N_3  and  S_11
REMARK    5  A    between atoms: C_4  and  C_5
REMARK    6  A    between atoms: N_8  and  C_9
REMARK    7  A    between atoms: S_11  and  C_14
REMARK    8  A    between atoms: C_17  and  N_18
REMARK    9  A    between atoms: C_19  and  C_21
REMARK   10  A    between atoms: C_21  and  C_22
REMARK   11  A    between atoms: C_21  and  C_23
REMARK   12  A    between atoms: C_21  and  C_24
REMARK                            x       y       z     vdW  Elec       q    Type
REMARK                         _______ _______ _______ _____ _____    ______ ____
ROOT
ATOM      1  C   UNL     1       2.072   5.759  19.018  0.00  0.00    +0.000 A 
ATOM      2  C   UNL     1       2.268   6.524  17.868  0.00  0.00    +0.000 A 
ATOM      3  C   UNL     1       2.187   7.912  17.936  0.00  0.00    +0.000 A 
ATOM      4  C   UNL     1       1.911   8.552  19.146  0.00  0.00    +0.000 A 
ATOM      5  C   UNL     1       1.718   7.775  20.298  0.00  0.00    +0.000 A 
ATOM      6  C   UNL     1       1.771   6.377  20.233  0.00  0.00    +0.000 A 
ENDROOT
BRANCH   4   7
ATOM      7  N   UNL     1       1.815   9.955  19.264  0.00  0.00    +0.000 N 
ATOM      8  C   UNL     1       0.766  10.741  18.804  0.00  0.00    +0.000 C 
ATOM      9  O   UNL     1      -0.247  10.303  18.260  0.00  0.00    +0.000 OA
ATOM     10  H   UNL     1       2.527  10.404  19.824  0.00  0.00    +0.000 HD
BRANCH   8  11
ATOM     11  C   UNL     1       0.938  12.256  19.038  0.00  0.00    +0.000 C 
ATOM     12  C   UNL     1       1.137  12.537  20.534  0.00  0.00    +0.000 C 
ATOM     13  C   UNL     1       2.190  12.738  18.277  0.00  0.00    +0.000 C 
ATOM     14  C   UNL     1      -0.278  13.026  18.505  0.00  0.00    +0.000 C 
ENDBRANCH   8  11
ENDBRANCH   4   7
BRANCH   1  15
ATOM     15  S   UNL     1       2.062   3.990  18.856  0.00  0.00    +0.000 S 
ATOM     16  O   UNL     1       1.319   3.706  17.644  0.00  0.00    +0.000 OA
ATOM     17  O   UNL     1       1.654   3.441  20.131  0.00  0.00    +0.000 OA
BRANCH  15  18
ATOM     18  N   UNL     1       3.723   3.621  18.596  0.00  0.00    +0.000 NA
BRANCH  18  20
ATOM     19  C   UNL     1       3.905   1.105  18.739  0.00  0.00    +0.000 C 
ATOM     20  C   UNL     1       4.208   2.447  19.384  0.00  0.00    +0.000 C 
ENDBRANCH  18  20
BRANCH  18  21
ATOM     21  C   UNL     1       4.143   3.670  17.166  0.00  0.00    +0.000 C 
BRANCH  21  22
ATOM     22  C   UNL     1       5.184   4.703  16.939  0.00  0.00    +0.000 A 
ATOM     23  C   UNL     1       5.330   5.581  15.842  0.00  0.00    +0.000 A 
ATOM     24  N   UNL     1       6.295   6.484  16.028  0.00  0.00    +0.000 NA
ATOM     25  N   UNL     1       6.763   6.185  17.255  0.00  0.00    +0.000 N 
ATOM     26  C   UNL     1       7.653   7.090  17.944  0.00  0.00    +0.000 C 
ATOM     27  C   UNL     1       6.217   5.061  17.784  0.00  0.00    +0.000 A 
ENDBRANCH  21  22
ENDBRANCH  18  21
ENDBRANCH  15  18
ENDBRANCH   1  15
TORSDOF 7
ENDMDL
MODEL 7
REMARK VINA RESULT:      -6.9      2.753      8.493
REMARK  Name = 
REMARK  12 active torsions:
REMARK  status: ('A' for Active; 'I' for Inactive)
REMARK    1  A    between atoms: C_1  and  C_2
REMARK    2  A    between atoms: C_2  and  N_3
REMARK    3  A    between atoms: N_3  and  C_4
REMARK    4  A    between atoms: N_3  and  S_11
REMARK    5  A    between atoms: C_4  and  C_5
REMARK    6  A    between atoms: N_8  and  C_9
REMARK    7  A    between atoms: S_11  and  C_14
REMARK    8  A    between atoms: C_17  and  N_18
REMARK    9  A    between atoms: C_19  and  C_21
REMARK   10  A    between atoms: C_21  and  C_22
REMARK   11  A    between atoms: C_21  and  C_23
REMARK   12  A    between atoms: C_21  and  C_24
REMARK                            x       y       z     vdW  Elec       q    Type
REMARK                         _______ _______ _______ _____ _____    ______ ____
ROOT
ATOM      1  C   UNL     1       1.494   8.127  20.184  0.00  0.00    +0.000 A 
ATOM      2  C   UNL     1       1.893   8.617  18.940  0.00  0.00    +0.000 A 
ATOM      3  C   UNL     1       2.660   7.820  18.094  0.00  0.00    +0.000 A 
ATOM      4  C   UNL     1       3.036   6.531  18.475  0.00  0.00    +0.000 A 
ATOM      5  C   UNL     1       2.628   6.045  19.727  0.00  0.00    +0.000 A 
ATOM      6  C   UNL     1       1.879   6.850  20.595  0.00  0.00    +0.000 A 
ENDROOT
BRANCH   4   7
ATOM      7  N   UNL     1       3.816   5.688  17.654  0.00  0.00    +0.000 N 
ATOM      8  C   UNL     1       5.109   5.947  17.218  0.00  0.00    +0.000 C 
ATOM      9  O   UNL     1       5.764   6.941  17.527  0.00  0.00    +0.000 OA
ATOM     10  H   UNL     1       3.429   4.775  17.460  0.00  0.00    +0.000 HD
BRANCH   8  11
ATOM     11  C   UNL     1       5.713   4.864  16.300  0.00  0.00    +0.000 C 
ATOM     12  C   UNL     1       7.155   4.558  16.726  0.00  0.00    +0.000 C 
ATOM     13  C   UNL     1       4.876   3.575  16.435  0.00  0.00    +0.000 C 
ATOM     14  C   UNL     1       5.672   5.315  14.833  0.00  0.00    +0.000 C 
ENDBRANCH   8  11
ENDBRANCH   4   7
BRANCH   1  15
ATOM     15  S   UNL     1       0.624   9.224  21.277  0.00  0.00    +0.000 S 
ATOM     16  O   UNL     1       1.585   9.623  22.286  0.00  0.00    +0.000 OA
ATOM     17  O   UNL     1      -0.619   8.578  21.639  0.00  0.00    +0.000 OA
BRANCH  15  18
ATOM     18  N   UNL     1       0.277  10.574  20.267  0.00  0.00    +0.000 NA
BRANCH  18  20
ATOM     19  C   UNL     1      -1.077  10.314  18.150  0.00  0.00    +0.000 C 
ATOM     20  C   UNL     1      -1.085  10.532  19.653  0.00  0.00    +0.000 C 
ENDBRANCH  18  20
BRANCH  18  21
ATOM     21  C   UNL     1       0.699  11.886  20.835  0.00  0.00    +0.000 C 
BRANCH  21  22
ATOM     22  C   UNL     1       1.719  12.547  19.982  0.00  0.00    +0.000 A 
ATOM     23  C   UNL     1       2.012  12.314  18.620  0.00  0.00    +0.000 A 
ATOM     24  N   UNL     1       2.892  13.188  18.124  0.00  0.00    +0.000 NA
ATOM     25  N   UNL     1       3.155  13.988  19.175  0.00  0.00    +0.000 N 
ATOM     26  C   UNL     1       3.873  15.228  18.994  0.00  0.00    +0.000 C 
ATOM     27  C   UNL     1       2.575  13.574  20.330  0.00  0.00    +0.000 A 
ENDBRANCH  21  22
ENDBRANCH  18  21
ENDBRANCH  15  18
ENDBRANCH   1  15
TORSDOF 7
ENDMDL
MODEL 8
REMARK VINA RESULT:      -6.9      1.662      2.298
REMARK  Name = 
REMARK  12 active torsions:
REMARK  status: ('A' for Active; 'I' for Inactive)
REMARK    1  A    between atoms: C_1  and  C_2
REMARK    2  A    between atoms: C_2  and  N_3
REMARK    3  A    between atoms: N_3  and  C_4
REMARK    4  A    between atoms: N_3  and  S_11
REMARK    5  A    between atoms: C_4  and  C_5
REMARK    6  A    between atoms: N_8  and  C_9
REMARK    7  A    between atoms: S_11  and  C_14
REMARK    8  A    between atoms: C_17  and  N_18
REMARK    9  A    between atoms: C_19  and  C_21
REMARK   10  A    between atoms: C_21  and  C_22
REMARK   11  A    between atoms: C_21  and  C_23
REMARK   12  A    between atoms: C_21  and  C_24
REMARK                            x       y       z     vdW  Elec       q    Type
REMARK                         _______ _______ _______ _____ _____    ______ ____
ROOT
ATOM      1  C   UNL     1       2.443   6.267  19.016  0.00  0.00    +0.000 A 
ATOM      2  C   UNL     1       2.397   7.344  18.130  0.00  0.00    +0.000 A 
ATOM      3  C   UNL     1       1.897   8.571  18.556  0.00  0.00    +0.000 A 
ATOM      4  C   UNL     1       1.440   8.740  19.864  0.00  0.00    +0.000 A 
ATOM      5  C   UNL     1       1.492   7.652  20.750  0.00  0.00    +0.000 A 
ATOM      6  C   UNL     1       1.969   6.407  20.322  0.00  0.00    +0.000 A 
ENDROOT
BRANCH   4   7
ATOM      7  N   UNL     1       0.921   9.964  20.340  0.00  0.00    +0.000 N 
ATOM      8  C   UNL     1      -0.282  10.541  19.957  0.00  0.00    +0.000 C 
ATOM      9  O   UNL     1      -1.080  10.035  19.169  0.00  0.00    +0.000 OA
ATOM     10  H   UNL     1       1.427  10.394  21.102  0.00  0.00    +0.000 HD
BRANCH   8  11
ATOM     11  C   UNL     1      -0.587  11.904  20.615  0.00  0.00    +0.000 C 
ATOM     12  C   UNL     1      -1.958  12.415  20.153  0.00  0.00    +0.000 C 
ATOM     13  C   UNL     1      -0.620  11.720  22.146  0.00  0.00    +0.000 C 
ATOM     14  C   UNL     1       0.508  12.924  20.274  0.00  0.00    +0.000 C 
ENDBRANCH   8  11
ENDBRANCH   4   7
BRANCH   1  15
ATOM     15  S   UNL     1       2.972   4.690  18.392  0.00  0.00    +0.000 S 
ATOM     16  O   UNL     1       1.965   4.285  17.432  0.00  0.00    +0.000 OA
ATOM     17  O   UNL     1       3.298   3.860  19.533  0.00  0.00    +0.000 OA
BRANCH  15  18
ATOM     18  N   UNL     1       4.425   5.079  17.553  0.00  0.00    +0.000 NA
BRANCH  18  20
ATOM     19  C   UNL     1       6.285   5.290  19.248  0.00  0.00    +0.000 C 
ATOM     20  C   UNL     1       5.327   6.000  18.308  0.00  0.00    +0.000 C 
ENDBRANCH  18  20
BRANCH  18  21
ATOM     21  C   UNL     1       5.080   3.912  16.895  0.00  0.00    +0.000 C 
BRANCH  21  22
ATOM     22  C   UNL     1       5.818   4.319  15.673  0.00  0.00    +0.000 A 
ATOM     23  C   UNL     1       6.994   5.096  15.572  0.00  0.00    +0.000 A 
ATOM     24  N   UNL     1       7.471   5.150  14.326  0.00  0.00    +0.000 NA
ATOM     25  N   UNL     1       6.597   4.397  13.630  0.00  0.00    +0.000 N 
ATOM     26  C   UNL     1       6.894   3.988  12.277  0.00  0.00    +0.000 C 
ATOM     27  C   UNL     1       5.534   3.983  14.363  0.00  0.00    +0.000 A 
ENDBRANCH  21  22
ENDBRANCH  18  21
ENDBRANCH  15  18
ENDBRANCH   1  15
TORSDOF 7
ENDMDL
MODEL 9
REMARK VINA RESULT:      -6.9      1.952      2.546
REMARK  Name = 
REMARK  12 active torsions:
REMARK  status: ('A' for Active; 'I' for Inactive)
REMARK    1  A    between atoms: C_1  and  C_2
REMARK    2  A    between atoms: C_2  and  N_3
REMARK    3  A    between atoms: N_3  and  C_4
REMARK    4  A    between atoms: N_3  and  S_11
REMARK    5  A    between atoms: C_4  and  C_5
REMARK    6  A    between atoms: N_8  and  C_9
REMARK    7  A    between atoms: S_11  and  C_14
REMARK    8  A    between atoms: C_17  and  N_18
REMARK    9  A    between atoms: C_19  and  C_21
REMARK   10  A    between atoms: C_21  and  C_22
REMARK   11  A    between atoms: C_21  and  C_23
REMARK   12  A    between atoms: C_21  and  C_24
REMARK                            x       y       z     vdW  Elec       q    Type
REMARK                         _______ _______ _______ _____ _____    ______ ____
ROOT
ATOM      1  C   UNL     1       2.266   6.163  19.473  0.00  0.00    +0.000 A 
ATOM      2  C   UNL     1       2.433   7.006  18.374  0.00  0.00    +0.000 A 
ATOM      3  C   UNL     1       2.061   8.344  18.463  0.00  0.00    +0.000 A 
ATOM      4  C   UNL     1       1.520   8.858  19.644  0.00  0.00    +0.000 A 
ATOM      5  C   UNL     1       1.358   8.003  20.746  0.00  0.00    +0.000 A 
ATOM      6  C   UNL     1       1.705   6.650  20.656  0.00  0.00    +0.000 A 
ENDROOT
BRANCH   4   7
ATOM      7  N   UNL     1       1.125  10.206  19.781  0.00  0.00    +0.000 N 
ATOM      8  C   UNL     1      -0.118  10.727  19.446  0.00  0.00    +0.000 C 
ATOM      9  O   UNL     1      -1.061  10.063  19.016  0.00  0.00    +0.000 OA
ATOM     10  H   UNL     1       1.774  10.813  20.261  0.00  0.00    +0.000 HD
BRANCH   8  11
ATOM     11  C   UNL     1      -0.267  12.246  19.669  0.00  0.00    +0.000 C 
ATOM     12  C   UNL     1      -1.752  12.630  19.706  0.00  0.00    +0.000 C 
ATOM     13  C   UNL     1       0.370  12.614  21.025  0.00  0.00    +0.000 C 
ATOM     14  C   UNL     1       0.461  13.028  18.566  0.00  0.00    +0.000 C 
ENDBRANCH   8  11
ENDBRANCH   4   7
BRANCH   1  15
ATOM     15  S   UNL     1       2.639   4.439  19.272  0.00  0.00    +0.000 S 
ATOM     16  O   UNL     1       1.630   3.917  18.371  0.00  0.00    +0.000 OA
ATOM     17  O   UNL     1       2.826   3.878  20.593  0.00  0.00    +0.000 OA
BRANCH  15  18
ATOM     18  N   UNL     1       4.156   4.468  18.459  0.00  0.00    +0.000 NA
BRANCH  18  20
ATOM     19  C   UNL     1       6.324   5.421  19.340  0.00  0.00    +0.000 C 
ATOM     20  C   UNL     1       5.327   4.274  19.366  0.00  0.00    +0.000 C 
ENDBRANCH  18  20
BRANCH  18  21
ATOM     21  C   UNL     1       4.180   3.697  17.182  0.00  0.00    +0.000 C 
BRANCH  21  22
ATOM     22  C   UNL     1       4.918   4.426  16.120  0.00  0.00    +0.000 A 
ATOM     23  C   UNL     1       5.055   5.821  15.940  0.00  0.00    +0.000 A 
ATOM     24  N   UNL     1       5.910   6.133  14.963  0.00  0.00    +0.000 NA
ATOM     25  N   UNL     1       6.326   4.931  14.523  0.00  0.00    +0.000 N 
ATOM     26  C   UNL     1       7.456   4.825  13.630  0.00  0.00    +0.000 C 
ATOM     27  C   UNL     1       5.674   3.888  15.097  0.00  0.00    +0.000 A 
ENDBRANCH  21  22
ENDBRANCH  18  21
ENDBRANCH  15  18
ENDBRANCH   1  15
TORSDOF 7
ENDMDL
