MODEL 1
REMARK VINA RESULT:      -8.5      0.000      0.000
REMARK  Name = 
REMARK  9 active torsions:
REMARK  status: ('A' for Active; 'I' for Inactive)
REMARK    1  A    between atoms: C_1  and  C_2
REMARK    2  A    between atoms: C_6  and  C_7
REMARK    3  A    between atoms: C_7  and  C_9
REMARK    4  A    between atoms: C_12  and  C_13
REMARK    5  A    between atoms: C_22  and  O_24
REMARK    6  A    between atoms: O_24  and  C_25
REMARK    7  A    between atoms: C_25  and  C_26
REMARK    8  A    between atoms: C_25  and  C_27
REMARK    9  A    between atoms: C_25  and  C_28
REMARK                            x       y       z     vdW  Elec       q    Type
REMARK                         _______ _______ _______ _____ _____    ______ ____
ROOT
ATOM      1  C   UNL     1       8.095   8.655  17.570  0.00  0.00    +0.000 C 
ATOM      2  C   UNL     1       7.637   7.235  17.735  0.00  0.00    +0.000 A 
ATOM      3  C   UNL     1       7.666   6.601  18.975  0.00  0.00    +0.000 A 
ATOM      4  C   UNL     1       7.034   5.361  19.159  0.00  0.00    +0.000 A 
ATOM      5  C   UNL     1       6.402   4.721  18.069  0.00  0.00    +0.000 A 
ATOM      6  C   UNL     1       5.466   3.638  17.929  0.00  0.00    +0.000 A 
ATOM      7  C   UNL     1       5.393   3.375  16.572  0.00  0.00    +0.000 A 
ATOM      8  N   UNL     1       6.131   4.331  15.876  0.00  0.00    +0.000 N 
ATOM      9  C   UNL     1       6.356   4.410  14.487  0.00  0.00    +0.000 C 
ATOM     10  O   UNL     1       6.994   5.333  14.013  0.00  0.00    +0.000 OA
ATOM     11  C   UNL     1       6.594   5.262  16.800  0.00  0.00    +0.000 A 
ATOM     12  C   UNL     1       7.173   6.532  16.619  0.00  0.00    +0.000 A 
ENDROOT
BRANCH   6  13
ATOM     13  C   UNL     1       4.780   2.960  19.037  0.00  0.00    +0.000 C 
ATOM     14  O   UNL     1       5.268   3.048  20.171  0.00  0.00    +0.000 OA
BRANCH  13  15
ATOM     15  C   UNL     1       3.403   2.237  18.895  0.00  0.00    +0.000 C 
ATOM     16  C   UNL     1       2.577   2.331  17.609  0.00  0.00    +0.000 C 
ATOM     17  S   UNL     1       0.869   2.562  18.149  0.00  0.00    +0.000 S 
ATOM     18  C   UNL     1       1.394   3.359  19.680  0.00  0.00    +0.000 C 
ATOM     19  N   UNL     1       2.564   2.579  20.095  0.00  0.00    +0.000 NA
ATOM     20  H   UNL     1       2.233   1.711  20.510  0.00  0.00    +0.000 HD
BRANCH  18  21
ATOM     21  C   UNL     1       1.701   4.838  19.568  0.00  0.00    +0.000 A 
ATOM     22  C   UNL     1       2.161   5.389  18.366  0.00  0.00    +0.000 A 
ATOM     23  C   UNL     1       2.466   6.742  18.273  0.00  0.00    +0.000 A 
ATOM     24  C   UNL     1       2.329   7.518  19.407  0.00  0.00    +0.000 A 
ATOM     25  N   UNL     1       1.928   7.035  20.598  0.00  0.00    +0.000 NA
ATOM     26  C   UNL     1       1.636   5.709  20.658  0.00  0.00    +0.000 A 
ENDBRANCH  18  21
ENDBRANCH  13  15
ENDBRANCH   6  13
BRANCH   9  27
ATOM     27  O   UNL     1       5.711   3.425  13.811  0.00  0.00    +0.000 OA
BRANCH  27  28
ATOM     28  C   UNL     1       5.885   3.400  12.371  0.00  0.00    +0.000 C 
ATOM     29  C   UNL     1       7.047   4.270  11.857  0.00  0.00    +0.000 C 
ATOM     30  C   UNL     1       6.204   1.946  11.993  0.00  0.00    +0.000 C 
ATOM     31  C   UNL     1       4.546   3.792  11.734  0.00  0.00    +0.000 C 
ENDBRANCH  27  28
ENDBRANCH   9  27
TORSDOF 5
ENDMDL
MODEL 2
REMARK VINA RESULT:      -8.2      9.444     12.789
REMARK  Name = 
REMARK  9 active torsions:
REMARK  status: ('A' for Active; 'I' for Inactive)
REMARK    1  A    between atoms: C_1  and  C_2
REMARK    2  A    between atoms: C_6  and  C_7
REMARK    3  A    between atoms: C_7  and  C_9
REMARK    4  A    between atoms: C_12  and  C_13
REMARK    5  A    between atoms: C_22  and  O_24
REMARK    6  A    between atoms: O_24  and  C_25
REMARK    7  A    between atoms: C_25  and  C_26
REMARK    8  A    between atoms: C_25  and  C_27
REMARK    9  A    between atoms: C_25  and  C_28
REMARK                            x       y       z     vdW  Elec       q    Type
REMARK                         _______ _______ _______ _____ _____    ______ ____
ROOT
ATOM      1  C   UNL     1      -3.887  10.085  14.003  0.00  0.00    +0.000 C 
ATOM      2  C   UNL     1      -3.452  10.246  15.430  0.00  0.00    +0.000 A 
ATOM      3  C   UNL     1      -2.336   9.579  15.930  0.00  0.00    +0.000 A 
ATOM      4  C   UNL     1      -1.813   9.906  17.191  0.00  0.00    +0.000 A 
ATOM      5  C   UNL     1      -2.448  10.886  17.988  0.00  0.00    +0.000 A 
ATOM      6  C   UNL     1      -2.077  11.648  19.151  0.00  0.00    +0.000 A 
ATOM      7  C   UNL     1      -3.228  12.302  19.555  0.00  0.00    +0.000 A 
ATOM      8  N   UNL     1      -4.238  12.083  18.620  0.00  0.00    +0.000 N 
ATOM      9  C   UNL     1      -5.574  12.529  18.664  0.00  0.00    +0.000 C 
ATOM     10  O   UNL     1      -6.338  12.292  17.747  0.00  0.00    +0.000 OA
ATOM     11  C   UNL     1      -3.687  11.361  17.565  0.00  0.00    +0.000 A 
ATOM     12  C   UNL     1      -4.184  11.083  16.278  0.00  0.00    +0.000 A 
ENDROOT
BRANCH   6  13
ATOM     13  C   UNL     1      -0.743  11.665  19.765  0.00  0.00    +0.000 C 
ATOM     14  O   UNL     1      -0.505  10.861  20.675  0.00  0.00    +0.000 OA
BRANCH  13  15
ATOM     15  C   UNL     1       0.437  12.554  19.256  0.00  0.00    +0.000 C 
ATOM     16  C   UNL     1       1.746  12.672  20.040  0.00  0.00    +0.000 C 
ATOM     17  S   UNL     1       2.189  14.421  19.978  0.00  0.00    +0.000 S 
ATOM     18  C   UNL     1       0.462  14.918  19.820  0.00  0.00    +0.000 C 
ATOM     19  N   UNL     1      -0.108  13.913  18.918  0.00  0.00    +0.000 NA
ATOM     20  H   UNL     1       0.178  14.144  17.969  0.00  0.00    +0.000 HD
BRANCH  18  21
ATOM     21  C   UNL     1      -0.304  15.020  21.124  0.00  0.00    +0.000 A 
ATOM     22  C   UNL     1      -1.696  15.169  21.131  0.00  0.00    +0.000 A 
ATOM     23  C   UNL     1      -2.394  15.289  22.327  0.00  0.00    +0.000 A 
ATOM     24  C   UNL     1      -1.671  15.284  23.504  0.00  0.00    +0.000 A 
ATOM     25  N   UNL     1      -0.329  15.182  23.555  0.00  0.00    +0.000 NA
ATOM     26  C   UNL     1       0.325  15.066  22.369  0.00  0.00    +0.000 A 
ENDBRANCH  18  21
ENDBRANCH  13  15
ENDBRANCH   6  13
BRANCH   9  27
ATOM     27  O   UNL     1      -5.818  13.291  19.762  0.00  0.00    +0.000 OA
BRANCH  27  28
ATOM     28  C   UNL     1      -6.635  12.695  20.801  0.00  0.00    +0.000 C 
ATOM     29  C   UNL     1      -6.945  11.201  20.587  0.00  0.00    +0.000 C 
ATOM     30  C   UNL     1      -5.837  12.811  22.108  0.00  0.00    +0.000 C 
ATOM     31  C   UNL     1      -7.912  13.535  20.928  0.00  0.00    +0.000 C 
ENDBRANCH  27  28
ENDBRANCH   9  27
TORSDOF 5
ENDMDL
MODEL 3
REMARK VINA RESULT:      -8.1      9.095     12.711
REMARK  Name = 
REMARK  9 active torsions:
REMARK  status: ('A' for Active; 'I' for Inactive)
REMARK    1  A    between atoms: C_1  and  C_2
REMARK    2  A    between atoms: C_6  and  C_7
REMARK    3  A    between atoms: C_7  and  C_9
REMARK    4  A    between atoms: C_12  and  C_13
REMARK    5  A    between atoms: C_22  and  O_24
REMARK    6  A    between atoms: O_24  and  C_25
REMARK    7  A    between atoms: C_25  and  C_26
REMARK    8  A    between atoms: C_25  and  C_27
REMARK    9  A    between atoms: C_25  and  C_28
REMARK                            x       y       z     vdW  Elec       q    Type
REMARK                         _______ _______ _______ _____ _____    ______ ____
ROOT
ATOM      1  C   UNL     1       0.937   9.302  18.146  0.00  0.00    +0.000 C 
ATOM      2  C   UNL     1       0.018  10.377  18.647  0.00  0.00    +0.000 A 
ATOM      3  C   UNL     1      -1.282  10.508  18.165  0.00  0.00    +0.000 A 
ATOM      4  C   UNL     1      -2.196  11.368  18.794  0.00  0.00    +0.000 A 
ATOM      5  C   UNL     1      -1.786  12.149  19.898  0.00  0.00    +0.000 A 
ATOM      6  C   UNL     1      -2.465  12.898  20.921  0.00  0.00    +0.000 A 
ATOM      7  C   UNL     1      -1.478  13.596  21.595  0.00  0.00    +0.000 A 
ATOM      8  N   UNL     1      -0.228  13.201  21.123  0.00  0.00    +0.000 N 
ATOM      9  C   UNL     1       1.038  13.690  21.504  0.00  0.00    +0.000 C 
ATOM     10  O   UNL     1       2.055  13.217  21.029  0.00  0.00    +0.000 OA
ATOM     11  C   UNL     1      -0.428  12.174  20.206  0.00  0.00    +0.000 A 
ATOM     12  C   UNL     1       0.478  11.270  19.620  0.00  0.00    +0.000 A 
ENDROOT
BRANCH   6  13
ATOM     13  C   UNL     1      -3.917  12.913  21.141  0.00  0.00    +0.000 C 
ATOM     14  O   UNL     1      -4.388  12.161  22.003  0.00  0.00    +0.000 OA
BRANCH  13  15
ATOM     15  C   UNL     1      -4.893  13.911  20.439  0.00  0.00    +0.000 C 
ATOM     16  C   UNL     1      -6.131  14.458  21.154  0.00  0.00    +0.000 C 
ATOM     17  S   UNL     1      -7.455  14.413  19.928  0.00  0.00    +0.000 S 
ATOM     18  C   UNL     1      -6.689  13.030  19.058  0.00  0.00    +0.000 C 
ATOM     19  N   UNL     1      -5.259  13.346  19.095  0.00  0.00    +0.000 NA
ATOM     20  H   UNL     1      -5.075  14.057  18.390  0.00  0.00    +0.000 HD
BRANCH  18  21
ATOM     21  C   UNL     1      -6.989  11.659  19.630  0.00  0.00    +0.000 A 
ATOM     22  C   UNL     1      -6.738  10.499  18.889  0.00  0.00    +0.000 A 
ATOM     23  C   UNL     1      -7.038   9.244  19.405  0.00  0.00    +0.000 A 
ATOM     24  C   UNL     1      -7.616   9.179  20.658  0.00  0.00    +0.000 A 
ATOM     25  N   UNL     1      -7.916  10.263  21.399  0.00  0.00    +0.000 NA
ATOM     26  C   UNL     1      -7.609  11.475  20.868  0.00  0.00    +0.000 A 
ENDBRANCH  18  21
ENDBRANCH  13  15
ENDBRANCH   6  13
BRANCH   9  27
ATOM     27  O   UNL     1       0.947  14.626  22.483  0.00  0.00    +0.000 OA
BRANCH  27  28
ATOM     28  C   UNL     1       1.228  15.997  22.102  0.00  0.00    +0.000 C 
ATOM     29  C   UNL     1       1.121  16.271  20.591  0.00  0.00    +0.000 C 
ATOM     30  C   UNL     1       0.173  16.870  22.798  0.00  0.00    +0.000 C 
ATOM     31  C   UNL     1       2.611  16.361  22.658  0.00  0.00    +0.000 C 
ENDBRANCH  27  28
ENDBRANCH   9  27
TORSDOF 5
ENDMDL
MODEL 4
REMARK VINA RESULT:      -7.9      3.731      6.417
REMARK  Name = 
REMARK  9 active torsions:
REMARK  status: ('A' for Active; 'I' for Inactive)
REMARK    1  A    between atoms: C_1  and  C_2
REMARK    2  A    between atoms: C_6  and  C_7
REMARK    3  A    between atoms: C_7  and  C_9
REMARK    4  A    between atoms: C_12  and  C_13
REMARK    5  A    between atoms: C_22  and  O_24
REMARK    6  A    between atoms: O_24  and  C_25
REMARK    7  A    between atoms: C_25  and  C_26
REMARK    8  A    between atoms: C_25  and  C_27
REMARK    9  A    between atoms: C_25  and  C_28
REMARK                            x       y       z     vdW  Elec       q    Type
REMARK                         _______ _______ _______ _____ _____    ______ ____
ROOT
ATOM      1  C   UNL     1       2.594   1.843  21.580  0.00  0.00    +0.000 C 
ATOM      2  C   UNL     1       2.335   3.138  20.867  0.00  0.00    +0.000 A 
ATOM      3  C   UNL     1       1.149   3.845  21.050  0.00  0.00    +0.000 A 
ATOM      4  C   UNL     1       1.011   5.152  20.557  0.00  0.00    +0.000 A 
ATOM      5  C   UNL     1       2.064   5.746  19.825  0.00  0.00    +0.000 A 
ATOM      6  C   UNL     1       2.389   7.086  19.416  0.00  0.00    +0.000 A 
ATOM      7  C   UNL     1       3.464   6.967  18.553  0.00  0.00    +0.000 A 
ATOM      8  N   UNL     1       3.891   5.640  18.526  0.00  0.00    +0.000 N 
ATOM      9  C   UNL     1       4.924   5.076  17.751  0.00  0.00    +0.000 C 
ATOM     10  O   UNL     1       5.214   3.899  17.864  0.00  0.00    +0.000 OA
ATOM     11  C   UNL     1       3.135   4.935  19.457  0.00  0.00    +0.000 A 
ATOM     12  C   UNL     1       3.305   3.647  19.999  0.00  0.00    +0.000 A 
ENDROOT
BRANCH   6  13
ATOM     13  C   UNL     1       1.672   8.298  19.831  0.00  0.00    +0.000 C 
ATOM     14  O   UNL     1       1.324   9.103  18.958  0.00  0.00    +0.000 OA
BRANCH  13  15
ATOM     15  C   UNL     1       1.210   8.576  21.297  0.00  0.00    +0.000 C 
ATOM     16  C   UNL     1      -0.254   8.421  21.719  0.00  0.00    +0.000 C 
ATOM     17  S   UNL     1      -0.604   9.842  22.777  0.00  0.00    +0.000 S 
ATOM     18  C   UNL     1       0.639  10.849  21.943  0.00  0.00    +0.000 C 
ATOM     19  N   UNL     1       1.746   9.917  21.715  0.00  0.00    +0.000 NA
ATOM     20  H   UNL     1       2.246   9.800  22.594  0.00  0.00    +0.000 HD
BRANCH  18  21
ATOM     21  C   UNL     1       0.178  11.518  20.664  0.00  0.00    +0.000 A 
ATOM     22  C   UNL     1      -1.112  11.304  20.164  0.00  0.00    +0.000 A 
ATOM     23  C   UNL     1      -1.523  11.898  18.977  0.00  0.00    +0.000 A 
ATOM     24  C   UNL     1      -0.614  12.681  18.293  0.00  0.00    +0.000 A 
ATOM     25  N   UNL     1       0.651  12.890  18.707  0.00  0.00    +0.000 NA
ATOM     26  C   UNL     1       1.023  12.297  19.871  0.00  0.00    +0.000 A 
ENDBRANCH  18  21
ENDBRANCH  13  15
ENDBRANCH   6  13
BRANCH   9  27
ATOM     27  O   UNL     1       5.559   6.009  16.995  0.00  0.00    +0.000 OA
BRANCH  27  28
ATOM     28  C   UNL     1       7.008   6.014  17.047  0.00  0.00    +0.000 C 
ATOM     29  C   UNL     1       7.605   5.222  18.225  0.00  0.00    +0.000 C 
ATOM     30  C   UNL     1       7.496   5.342  15.755  0.00  0.00    +0.000 C 
ATOM     31  C   UNL     1       7.469   7.477  17.044  0.00  0.00    +0.000 C 
ENDBRANCH  27  28
ENDBRANCH   9  27
TORSDOF 5
ENDMDL
MODEL 5
REMARK VINA RESULT:      -7.9      4.796      8.181
REMARK  Name = 
REMARK  9 active torsions:
REMARK  status: ('A' for Active; 'I' for Inactive)
REMARK    1  A    between atoms: C_1  and  C_2
REMARK    2  A    between atoms: C_6  and  C_7
REMARK    3  A    between atoms: C_7  and  C_9
REMARK    4  A    between atoms: C_12  and  C_13
REMARK    5  A    between atoms: C_22  and  O_24
REMARK    6  A    between atoms: O_24  and  C_25
REMARK    7  A    between atoms: C_25  and  C_26
REMARK    8  A    between atoms: C_25  and  C_27
REMARK    9  A    between atoms: C_25  and  C_28
REMARK                            x       y       z     vdW  Elec       q    Type
REMARK                         _______ _______ _______ _____ _____    ______ ____
ROOT
ATOM      1  C   UNL     1      -0.861  10.307  23.591  0.00  0.00    +0.000 C 
ATOM      2  C   UNL     1      -0.106  10.040  22.321  0.00  0.00    +0.000 A 
ATOM      3  C   UNL     1       1.188   9.526  22.339  0.00  0.00    +0.000 A 
ATOM      4  C   UNL     1       1.795   9.075  21.156  0.00  0.00    +0.000 A 
ATOM      5  C   UNL     1       1.111   9.185  19.924  0.00  0.00    +0.000 A 
ATOM      6  C   UNL     1       1.279   8.617  18.613  0.00  0.00    +0.000 A 
ATOM      7  C   UNL     1       0.382   9.282  17.796  0.00  0.00    +0.000 A 
ATOM      8  N   UNL     1      -0.414  10.124  18.572  0.00  0.00    +0.000 N 
ATOM      9  C   UNL     1      -1.421  11.009  18.138  0.00  0.00    +0.000 C 
ATOM     10  O   UNL     1      -2.066  11.657  18.941  0.00  0.00    +0.000 OA
ATOM     11  C   UNL     1      -0.076   9.914  19.905  0.00  0.00    +0.000 A 
ATOM     12  C   UNL     1      -0.716  10.314  21.093  0.00  0.00    +0.000 A 
ENDROOT
BRANCH   6  13
ATOM     13  C   UNL     1       2.246   7.570  18.259  0.00  0.00    +0.000 C 
ATOM     14  O   UNL     1       3.271   7.900  17.648  0.00  0.00    +0.000 OA
BRANCH  13  15
ATOM     15  C   UNL     1       2.123   6.081  18.714  0.00  0.00    +0.000 C 
ATOM     16  C   UNL     1       2.720   5.596  20.037  0.00  0.00    +0.000 C 
ATOM     17  S   UNL     1       3.485   4.003  19.666  0.00  0.00    +0.000 S 
ATOM     18  C   UNL     1       3.776   4.472  17.949  0.00  0.00    +0.000 C 
ATOM     19  N   UNL     1       2.561   5.202  17.576  0.00  0.00    +0.000 NA
ATOM     20  H   UNL     1       1.826   4.521  17.399  0.00  0.00    +0.000 HD
BRANCH  18  21
ATOM     21  C   UNL     1       5.032   5.285  17.704  0.00  0.00    +0.000 A 
ATOM     22  C   UNL     1       5.994   5.444  18.708  0.00  0.00    +0.000 A 
ATOM     23  C   UNL     1       7.132   6.211  18.490  0.00  0.00    +0.000 A 
ATOM     24  C   UNL     1       7.270   6.833  17.264  0.00  0.00    +0.000 A 
ATOM     25  N   UNL     1       6.360   6.746  16.276  0.00  0.00    +0.000 NA
ATOM     26  C   UNL     1       5.258   5.988  16.519  0.00  0.00    +0.000 A 
ENDBRANCH  18  21
ENDBRANCH  13  15
ENDBRANCH   6  13
BRANCH   9  27
ATOM     27  O   UNL     1      -1.607  10.947  16.794  0.00  0.00    +0.000 OA
BRANCH  27  28
ATOM     28  C   UNL     1      -2.872  10.408  16.335  0.00  0.00    +0.000 C 
ATOM     29  C   UNL     1      -3.469   9.321  17.248  0.00  0.00    +0.000 C 
ATOM     30  C   UNL     1      -3.866  11.578  16.313  0.00  0.00    +0.000 C 
ATOM     31  C   UNL     1      -2.671   9.907  14.898  0.00  0.00    +0.000 C 
ENDBRANCH  27  28
ENDBRANCH   9  27
TORSDOF 5
ENDMDL
MODEL 6
REMARK VINA RESULT:      -7.9     10.418     13.524
REMARK  Name = 
REMARK  9 active torsions:
REMARK  status: ('A' for Active; 'I' for Inactive)
REMARK    1  A    between atoms: C_1  and  C_2
REMARK    2  A    between atoms: C_6  and  C_7
REMARK    3  A    between atoms: C_7  and  C_9
REMARK    4  A    between atoms: C_12  and  C_13
REMARK    5  A    between atoms: C_22  and  O_24
REMARK    6  A    between atoms: O_24  and  C_25
REMARK    7  A    between atoms: C_25  and  C_26
REMARK    8  A    between atoms: C_25  and  C_27
REMARK    9  A    between atoms: C_25  and  C_28
REMARK                            x       y       z     vdW  Elec       q    Type
REMARK                         _______ _______ _______ _____ _____    ______ ____
ROOT
ATOM      1  C   UNL     1      -2.843   9.838  15.293  0.00  0.00    +0.000 C 
ATOM      2  C   UNL     1      -3.436  10.696  16.372  0.00  0.00    +0.000 A 
ATOM      3  C   UNL     1      -4.775  11.079  16.343  0.00  0.00    +0.000 A 
ATOM      4  C   UNL     1      -5.369  11.689  17.459  0.00  0.00    +0.000 A 
ATOM      5  C   UNL     1      -4.596  11.964  18.609  0.00  0.00    +0.000 A 
ATOM      6  C   UNL     1      -4.891  12.308  19.975  0.00  0.00    +0.000 A 
ATOM      7  C   UNL     1      -3.677  12.635  20.552  0.00  0.00    +0.000 A 
ATOM      8  N   UNL     1      -2.649  12.374  19.647  0.00  0.00    +0.000 N 
ATOM      9  C   UNL     1      -1.268  12.603  19.812  0.00  0.00    +0.000 C 
ATOM     10  O   UNL     1      -0.478  12.285  18.943  0.00  0.00    +0.000 OA
ATOM     11  C   UNL     1      -3.218  11.787  18.521  0.00  0.00    +0.000 A 
ATOM     12  C   UNL     1      -2.627  11.122  17.430  0.00  0.00    +0.000 A 
ENDROOT
BRANCH   6  13
ATOM     13  C   UNL     1      -6.231  12.327  20.575  0.00  0.00    +0.000 C 
ATOM     14  O   UNL     1      -6.684  11.271  21.034  0.00  0.00    +0.000 OA
BRANCH  13  15
ATOM     15  C   UNL     1      -7.073  13.627  20.783  0.00  0.00    +0.000 C 
ATOM     16  C   UNL     1      -6.499  15.011  20.472  0.00  0.00    +0.000 C 
ATOM     17  S   UNL     1      -7.033  16.070  21.833  0.00  0.00    +0.000 S 
ATOM     18  C   UNL     1      -7.103  14.676  22.975  0.00  0.00    +0.000 C 
ATOM     19  N   UNL     1      -7.663  13.591  22.165  0.00  0.00    +0.000 NA
ATOM     20  H   UNL     1      -8.666  13.741  22.087  0.00  0.00    +0.000 HD
BRANCH  18  21
ATOM     21  C   UNL     1      -5.782  14.294  23.612  0.00  0.00    +0.000 A 
ATOM     22  C   UNL     1      -5.533  12.978  24.020  0.00  0.00    +0.000 A 
ATOM     23  C   UNL     1      -4.331  12.635  24.628  0.00  0.00    +0.000 A 
ATOM     24  C   UNL     1      -3.403  13.636  24.842  0.00  0.00    +0.000 A 
ATOM     25  N   UNL     1      -3.604  14.924  24.505  0.00  0.00    +0.000 NA
ATOM     26  C   UNL     1      -4.789  15.228  23.912  0.00  0.00    +0.000 A 
ENDBRANCH  18  21
ENDBRANCH  13  15
ENDBRANCH   6  13
BRANCH   9  27
ATOM     27  O   UNL     1      -0.979  13.099  21.043  0.00  0.00    +0.000 OA
BRANCH  27  28
ATOM     28  C   UNL     1      -0.284  14.371  21.086  0.00  0.00    +0.000 C 
ATOM     29  C   UNL     1      -0.558  15.286  19.878  0.00  0.00    +0.000 C 
ATOM     30  C   UNL     1      -0.790  15.106  22.336  0.00  0.00    +0.000 C 
ATOM     31  C   UNL     1       1.212  14.078  21.260  0.00  0.00    +0.000 C 
ENDBRANCH  27  28
ENDBRANCH   9  27
TORSDOF 5
ENDMDL
MODEL 7
REMARK VINA RESULT:      -7.9      8.655     11.522
REMARK  Name = 
REMARK  9 active torsions:
REMARK  status: ('A' for Active; 'I' for Inactive)
REMARK    1  A    between atoms: C_1  and  C_2
REMARK    2  A    between atoms: C_6  and  C_7
REMARK    3  A    between atoms: C_7  and  C_9
REMARK    4  A    between atoms: C_12  and  C_13
REMARK    5  A    between atoms: C_22  and  O_24
REMARK    6  A    between atoms: O_24  and  C_25
REMARK    7  A    between atoms: C_25  and  C_26
REMARK    8  A    between atoms: C_25  and  C_27
REMARK    9  A    between atoms: C_25  and  C_28
REMARK                            x       y       z     vdW  Elec       q    Type
REMARK                         _______ _______ _______ _____ _____    ______ ____
ROOT
ATOM      1  C   UNL     1       1.811   8.764  21.979  0.00  0.00    +0.000 C 
ATOM      2  C   UNL     1       0.557   9.586  21.942  0.00  0.00    +0.000 A 
ATOM      3  C   UNL     1      -0.126   9.924  23.107  0.00  0.00    +0.000 A 
ATOM      4  C   UNL     1      -1.163  10.870  23.080  0.00  0.00    +0.000 A 
ATOM      5  C   UNL     1      -1.556  11.454  21.854  0.00  0.00    +0.000 A 
ATOM      6  C   UNL     1      -2.344  12.597  21.478  0.00  0.00    +0.000 A 
ATOM      7  C   UNL     1      -2.506  12.509  20.107  0.00  0.00    +0.000 A 
ATOM      8  N   UNL     1      -1.744  11.449  19.618  0.00  0.00    +0.000 N 
ATOM      9  C   UNL     1      -1.654  10.985  18.290  0.00  0.00    +0.000 C 
ATOM     10  O   UNL     1      -0.909  10.066  18.004  0.00  0.00    +0.000 OA
ATOM     11  C   UNL     1      -1.019  10.925  20.684  0.00  0.00    +0.000 A 
ATOM     12  C   UNL     1       0.061  10.022  20.709  0.00  0.00    +0.000 A 
ENDROOT
BRANCH   6  13
ATOM     13  C   UNL     1      -2.874  13.606  22.406  0.00  0.00    +0.000 C 
ATOM     14  O   UNL     1      -3.261  13.232  23.520  0.00  0.00    +0.000 OA
BRANCH  13  15
ATOM     15  C   UNL     1      -2.864  15.141  22.119  0.00  0.00    +0.000 C 
ATOM     16  C   UNL     1      -3.229  15.701  20.742  0.00  0.00    +0.000 C 
ATOM     17  S   UNL     1      -2.024  17.007  20.419  0.00  0.00    +0.000 S 
ATOM     18  C   UNL     1      -0.782  16.204  21.453  0.00  0.00    +0.000 C 
ATOM     19  N   UNL     1      -1.552  15.701  22.594  0.00  0.00    +0.000 NA
ATOM     20  H   UNL     1      -1.747  16.485  23.213  0.00  0.00    +0.000 HD
BRANCH  18  21
ATOM     21  C   UNL     1       0.018  15.112  20.774  0.00  0.00    +0.000 A 
ATOM     22  C   UNL     1       0.903  14.308  21.503  0.00  0.00    +0.000 A 
ATOM     23  C   UNL     1       1.656  13.324  20.873  0.00  0.00    +0.000 A 
ATOM     24  C   UNL     1       1.524  13.182  19.505  0.00  0.00    +0.000 A 
ATOM     25  N   UNL     1       0.719  13.951  18.749  0.00  0.00    +0.000 NA
ATOM     26  C   UNL     1      -0.005  14.904  19.393  0.00  0.00    +0.000 A 
ENDBRANCH  18  21
ENDBRANCH  13  15
ENDBRANCH   6  13
BRANCH   9  27
ATOM     27  O   UNL     1      -2.396  11.737  17.438  0.00  0.00    +0.000 OA
BRANCH  27  28
ATOM     28  C   UNL     1      -3.530  11.085  16.811  0.00  0.00    +0.000 C 
ATOM     29  C   UNL     1      -4.831  11.907  16.839  0.00  0.00    +0.000 C 
ATOM     30  C   UNL     1      -3.155  10.876  15.337  0.00  0.00    +0.000 C 
ATOM     31  C   UNL     1      -3.701   9.712  17.474  0.00  0.00    +0.000 C 
ENDBRANCH  27  28
ENDBRANCH   9  27
TORSDOF 5
ENDMDL
MODEL 8
REMARK VINA RESULT:      -7.8      8.263     11.906
REMARK  Name = 
REMARK  9 active torsions:
REMARK  status: ('A' for Active; 'I' for Inactive)
REMARK    1  A    between atoms: C_1  and  C_2
REMARK    2  A    between atoms: C_6  and  C_7
REMARK    3  A    between atoms: C_7  and  C_9
REMARK    4  A    between atoms: C_12  and  C_13
REMARK    5  A    between atoms: C_22  and  O_24
REMARK    6  A    between atoms: O_24  and  C_25
REMARK    7  A    between atoms: C_25  and  C_26
REMARK    8  A    between atoms: C_25  and  C_27
REMARK    9  A    between atoms: C_25  and  C_28
REMARK                            x       y       z     vdW  Elec       q    Type
REMARK                         _______ _______ _______ _____ _____    ______ ____
ROOT
ATOM      1  C   UNL     1       1.313   9.326  17.820  0.00  0.00    +0.000 C 
ATOM      2  C   UNL     1       0.424   9.919  18.874  0.00  0.00    +0.000 A 
ATOM      3  C   UNL     1       0.764   9.870  20.224  0.00  0.00    +0.000 A 
ATOM      4  C   UNL     1       0.043  10.616  21.170  0.00  0.00    +0.000 A 
ATOM      5  C   UNL     1      -1.069  11.387  20.764  0.00  0.00    +0.000 A 
ATOM      6  C   UNL     1      -1.848  12.441  21.358  0.00  0.00    +0.000 A 
ATOM      7  C   UNL     1      -2.925  12.637  20.512  0.00  0.00    +0.000 A 
ATOM      8  N   UNL     1      -2.765  11.853  19.370  0.00  0.00    +0.000 N 
ATOM      9  C   UNL     1      -3.647  11.719  18.279  0.00  0.00    +0.000 C 
ATOM     10  O   UNL     1      -3.353  11.023  17.325  0.00  0.00    +0.000 OA
ATOM     11  C   UNL     1      -1.524  11.229  19.457  0.00  0.00    +0.000 A 
ATOM     12  C   UNL     1      -0.772  10.533  18.492  0.00  0.00    +0.000 A 
ENDROOT
BRANCH   6  13
ATOM     13  C   UNL     1      -1.537  13.115  22.625  0.00  0.00    +0.000 C 
ATOM     14  O   UNL     1      -1.300  12.416  23.619  0.00  0.00    +0.000 OA
BRANCH  13  15
ATOM     15  C   UNL     1      -1.367  14.661  22.770  0.00  0.00    +0.000 C 
ATOM     16  C   UNL     1      -1.983  15.632  21.760  0.00  0.00    +0.000 C 
ATOM     17  S   UNL     1      -0.717  16.884  21.461  0.00  0.00    +0.000 S 
ATOM     18  C   UNL     1       0.611  15.722  21.836  0.00  0.00    +0.000 C 
ATOM     19  N   UNL     1       0.093  14.957  22.973  0.00  0.00    +0.000 NA
ATOM     20  H   UNL     1       0.187  15.531  23.808  0.00  0.00    +0.000 HD
BRANCH  18  21
ATOM     21  C   UNL     1       1.032  14.828  20.687  0.00  0.00    +0.000 A 
ATOM     22  C   UNL     1       0.352  14.860  19.463  0.00  0.00    +0.000 A 
ATOM     23  C   UNL     1       0.724  14.020  18.419  0.00  0.00    +0.000 A 
ATOM     24  C   UNL     1       1.762  13.136  18.636  0.00  0.00    +0.000 A 
ATOM     25  N   UNL     1       2.425  13.034  19.804  0.00  0.00    +0.000 NA
ATOM     26  C   UNL     1       2.040  13.869  20.804  0.00  0.00    +0.000 A 
ENDBRANCH  18  21
ENDBRANCH  13  15
ENDBRANCH   6  13
BRANCH   9  27
ATOM     27  O   UNL     1      -4.742  12.512  18.411  0.00  0.00    +0.000 OA
BRANCH  27  28
ATOM     28  C   UNL     1      -6.006  11.842  18.646  0.00  0.00    +0.000 C 
ATOM     29  C   UNL     1      -5.927  10.305  18.618  0.00  0.00    +0.000 C 
ATOM     30  C   UNL     1      -6.462  12.247  20.056  0.00  0.00    +0.000 C 
ATOM     31  C   UNL     1      -7.017  12.386  17.628  0.00  0.00    +0.000 C 
ENDBRANCH  27  28
ENDBRANCH   9  27
TORSDOF 5
ENDMDL
MODEL 9
REMARK VINA RESULT:      -7.8      9.275     12.332
REMARK  Name = 
REMARK  9 active torsions:
REMARK  status: ('A' for Active; 'I' for Inactive)
REMARK    1  A    between atoms: C_1  and  C_2
REMARK    2  A    between atoms: C_6  and  C_7
REMARK    3  A    between atoms: C_7  and  C_9
REMARK    4  A    between atoms: C_12  and  C_13
REMARK    5  A    between atoms: C_22  and  O_24
REMARK    6  A    between atoms: O_24  and  C_25
REMARK    7  A    between atoms: C_25  and  C_26
REMARK    8  A    between atoms: C_25  and  C_27
REMARK    9  A    between atoms: C_25  and  C_28
REMARK                            x       y       z     vdW  Elec       q    Type
REMARK                         _______ _______ _______ _____ _____    ______ ____
ROOT
ATOM      1  C   UNL     1       1.488   9.009  22.313  0.00  0.00    +0.000 C 
ATOM      2  C   UNL     1       0.304   9.887  22.031  0.00  0.00    +0.000 A 
ATOM      3  C   UNL     1      -0.444  10.452  23.060  0.00  0.00    +0.000 A 
ATOM      4  C   UNL     1      -1.403  11.441  22.787  0.00  0.00    +0.000 A 
ATOM      5  C   UNL     1      -1.651  11.837  21.453  0.00  0.00    +0.000 A 
ATOM      6  C   UNL     1      -2.320  12.947  20.830  0.00  0.00    +0.000 A 
ATOM      7  C   UNL     1      -2.377  12.644  19.481  0.00  0.00    +0.000 A 
ATOM      8  N   UNL     1      -1.657  11.474  19.239  0.00  0.00    +0.000 N 
ATOM      9  C   UNL     1      -1.494  10.793  18.016  0.00  0.00    +0.000 C 
ATOM     10  O   UNL     1      -0.798   9.796  17.949  0.00  0.00    +0.000 OA
ATOM     11  C   UNL     1      -1.061  11.091  20.436  0.00  0.00    +0.000 A 
ATOM     12  C   UNL     1      -0.056  10.142  20.704  0.00  0.00    +0.000 A 
ENDROOT
BRANCH   6  13
ATOM     13  C   UNL     1      -2.847  14.124  21.532  0.00  0.00    +0.000 C 
ATOM     14  O   UNL     1      -2.062  15.034  21.825  0.00  0.00    +0.000 OA
BRANCH  13  15
ATOM     15  C   UNL     1      -4.365  14.355  21.823  0.00  0.00    +0.000 C 
ATOM     16  C   UNL     1      -5.019  15.724  21.622  0.00  0.00    +0.000 C 
ATOM     17  S   UNL     1      -6.099  15.957  23.050  0.00  0.00    +0.000 S 
ATOM     18  C   UNL     1      -5.060  14.907  24.086  0.00  0.00    +0.000 C 
ATOM     19  N   UNL     1      -4.670  13.813  23.192  0.00  0.00    +0.000 NA
ATOM     20  H   UNL     1      -5.458  13.174  23.113  0.00  0.00    +0.000 HD
BRANCH  18  21
ATOM     21  C   UNL     1      -3.863  15.595  24.710  0.00  0.00    +0.000 A 
ATOM     22  C   UNL     1      -2.811  14.852  25.259  0.00  0.00    +0.000 A 
ATOM     23  C   UNL     1      -1.726  15.485  25.854  0.00  0.00    +0.000 A 
ATOM     24  C   UNL     1      -1.730  16.865  25.910  0.00  0.00    +0.000 A 
ATOM     25  N   UNL     1      -2.732  17.628  25.433  0.00  0.00    +0.000 NA
ATOM     26  C   UNL     1      -3.778  16.981  24.857  0.00  0.00    +0.000 A 
ENDBRANCH  18  21
ENDBRANCH  13  15
ENDBRANCH   6  13
BRANCH   9  27
ATOM     27  O   UNL     1      -2.108  11.437  16.990  0.00  0.00    +0.000 OA
BRANCH  27  28
ATOM     28  C   UNL     1      -3.248  10.771  16.391  0.00  0.00    +0.000 C 
ATOM     29  C   UNL     1      -3.016  10.287  14.948  0.00  0.00    +0.000 C 
ATOM     30  C   UNL     1      -3.529   9.526  17.247  0.00  0.00    +0.000 C 
ATOM     31  C   UNL     1      -4.449  11.720  16.495  0.00  0.00    +0.000 C 
ENDBRANCH  27  28
ENDBRANCH   9  27
TORSDOF 5
ENDMDL
