MODEL 1
REMARK VINA RESULT:      -9.8      0.000      0.000
REMARK  Name = 
REMARK  9 active torsions:
REMARK  status: ('A' for Active; 'I' for Inactive)
REMARK    1  A    between atoms: C_1  and  C_2
REMARK    2  A    between atoms: C_5  and  C_6
REMARK    3  A    between atoms: C_7  and  N_8
REMARK    4  A    between atoms: C_9  and  C_11
REMARK    5  A    between atoms: C_11  and  N_12
REMARK    6  A    between atoms: C_13  and  C_14
REMARK    7  A    between atoms: C_16  and  C_17
REMARK    8  A    between atoms: C_18  and  C_19
REMARK    9  A    between atoms: C_21  and  C_22
REMARK                            x       y       z     vdW  Elec       q    Type
REMARK                         _______ _______ _______ _____ _____    ______ ____
ROOT
ATOM      1  N   UNL     1       4.038   4.147  18.828  0.00  0.00    +0.000 N 
ATOM      2  C   UNL     1       3.691   3.346  17.737  0.00  0.00    +0.000 A 
ATOM      3  C   UNL     1       2.583   2.329  17.805  0.00  0.00    +0.000 C 
ATOM      4  C   UNL     1       4.362   3.473  16.579  0.00  0.00    +0.000 A 
ATOM      5  C   UNL     1       5.408   4.471  16.405  0.00  0.00    +0.000 A 
ATOM      6  C   UNL     1       5.998   4.561  15.018  0.00  0.00    +0.000 C 
ATOM      7  C   UNL     1       5.761   5.256  17.448  0.00  0.00    +0.000 A 
ATOM      8  C   UNL     1       5.141   5.003  18.784  0.00  0.00    +0.000 A 
ATOM      9  O   UNL     1       5.593   5.524  19.800  0.00  0.00    +0.000 OA
ENDROOT
BRANCH   7  10
ATOM     10  C   UNL     1       6.704   6.318  17.347  0.00  0.00    +0.000 A 
ATOM     11  N   UNL     1       6.968   7.234  18.261  0.00  0.00    +0.000 NA
ATOM     12  C   UNL     1       7.923   8.035  17.684  0.00  0.00    +0.000 A 
ATOM     13  N   UNL     1       8.298   7.633  16.466  0.00  0.00    +0.000 NA
ATOM     14  O   UNL     1       7.507   6.513  16.237  0.00  0.00    +0.000 OA
BRANCH  12  15
ATOM     15  C   UNL     1       8.286   9.305  18.292  0.00  0.00    +0.000 A 
ATOM     16  C   UNL     1       9.127   9.362  19.433  0.00  0.00    +0.000 A 
ATOM     17  C   UNL     1       9.789  10.547  19.772  0.00  0.00    +0.000 A 
ATOM     18  C   UNL     1       9.615  11.619  18.927  0.00  0.00    +0.000 A 
ATOM     19  C   UNL     1       8.703  11.598  17.894  0.00  0.00    +0.000 A 
ATOM     20  C   UNL     1       7.982  10.476  17.582  0.00  0.00    +0.000 A 
ATOM     21  O   UNL     1       8.789  12.708  17.108  0.00  0.00    +0.000 OA
ATOM     22  C   UNL     1      10.108  13.127  17.503  0.00  0.00    +0.000 C 
ATOM     23  O   UNL     1      10.407  12.729  18.860  0.00  0.00    +0.000 OA
ENDBRANCH  12  15
ENDBRANCH   7  10
BRANCH   1  24
ATOM     24  C   UNL     1       3.279   4.135  20.092  0.00  0.00    +0.000 C 
BRANCH  24  26
ATOM     25  N   UNL     1       2.690   6.517  20.076  0.00  0.00    +0.000 N 
ATOM     26  C   UNL     1       2.210   5.225  20.218  0.00  0.00    +0.000 C 
ATOM     27  O   UNL     1       1.028   4.924  20.389  0.00  0.00    +0.000 OA
ATOM     28  H   UNL     1       3.692   6.644  20.194  0.00  0.00    +0.000 HD
BRANCH  25  35
ATOM     29  C   UNL     1      -0.271   9.366  22.835  0.00  0.00    +0.000 C 
ATOM     30  C   UNL     1       0.418   9.084  21.534  0.00  0.00    +0.000 A 
ATOM     31  C   UNL     1       0.256   9.930  20.436  0.00  0.00    +0.000 A 
ATOM     32  C   UNL     1       0.876   9.636  19.219  0.00  0.00    +0.000 A 
ATOM     33  C   UNL     1       1.669   8.486  19.073  0.00  0.00    +0.000 A 
ATOM     34  C   UNL     1       2.365   8.236  17.765  0.00  0.00    +0.000 C 
ATOM     35  C   UNL     1       1.869   7.657  20.188  0.00  0.00    +0.000 A 
ATOM     36  C   UNL     1       1.240   7.956  21.405  0.00  0.00    +0.000 A 
ENDBRANCH  25  35
ENDBRANCH  24  26
ENDBRANCH   1  24
TORSDOF 5
ENDMDL
MODEL 2
REMARK VINA RESULT:      -9.2      5.089      8.993
REMARK  Name = 
REMARK  9 active torsions:
REMARK  status: ('A' for Active; 'I' for Inactive)
REMARK    1  A    between atoms: C_1  and  C_2
REMARK    2  A    between atoms: C_5  and  C_6
REMARK    3  A    between atoms: C_7  and  N_8
REMARK    4  A    between atoms: C_9  and  C_11
REMARK    5  A    between atoms: C_11  and  N_12
REMARK    6  A    between atoms: C_13  and  C_14
REMARK    7  A    between atoms: C_16  and  C_17
REMARK    8  A    between atoms: C_18  and  C_19
REMARK    9  A    between atoms: C_21  and  C_22
REMARK                            x       y       z     vdW  Elec       q    Type
REMARK                         _______ _______ _______ _____ _____    ______ ____
ROOT
ATOM      1  N   UNL     1      -0.653  12.729  20.727  0.00  0.00    +0.000 N 
ATOM      2  C   UNL     1      -1.970  12.738  20.263  0.00  0.00    +0.000 A 
ATOM      3  C   UNL     1      -2.967  13.783  20.689  0.00  0.00    +0.000 C 
ATOM      4  C   UNL     1      -2.381  11.784  19.410  0.00  0.00    +0.000 A 
ATOM      5  C   UNL     1      -1.470  10.768  18.899  0.00  0.00    +0.000 A 
ATOM      6  C   UNL     1      -2.053   9.829  17.871  0.00  0.00    +0.000 C 
ATOM      7  C   UNL     1      -0.190  10.741  19.336  0.00  0.00    +0.000 A 
ATOM      8  C   UNL     1       0.225  11.690  20.414  0.00  0.00    +0.000 A 
ATOM      9  O   UNL     1       1.294  11.549  21.001  0.00  0.00    +0.000 OA
ENDROOT
BRANCH   7  10
ATOM     10  C   UNL     1       0.793   9.847  18.826  0.00  0.00    +0.000 A 
ATOM     11  N   UNL     1       1.070   8.635  19.270  0.00  0.00    +0.000 NA
ATOM     12  C   UNL     1       2.097   8.197  18.470  0.00  0.00    +0.000 A 
ATOM     13  N   UNL     1       2.444   9.067  17.518  0.00  0.00    +0.000 NA
ATOM     14  O   UNL     1       1.600  10.148  17.742  0.00  0.00    +0.000 OA
BRANCH  12  15
ATOM     15  C   UNL     1       2.841   6.996  18.816  0.00  0.00    +0.000 A 
ATOM     16  C   UNL     1       2.468   6.192  19.922  0.00  0.00    +0.000 A 
ATOM     17  C   UNL     1       2.907   4.867  20.021  0.00  0.00    +0.000 A 
ATOM     18  C   UNL     1       3.670   4.387  18.981  0.00  0.00    +0.000 A 
ATOM     19  C   UNL     1       4.133   5.205  17.972  0.00  0.00    +0.000 A 
ATOM     20  C   UNL     1       3.782   6.526  17.888  0.00  0.00    +0.000 A 
ATOM     21  O   UNL     1       4.753   4.502  16.982  0.00  0.00    +0.000 OA
ATOM     22  C   UNL     1       4.203   3.207  17.286  0.00  0.00    +0.000 C 
ATOM     23  O   UNL     1       3.909   3.073  18.695  0.00  0.00    +0.000 OA
ENDBRANCH  12  15
ENDBRANCH   7  10
BRANCH   1  24
ATOM     24  C   UNL     1      -0.107  13.801  21.579  0.00  0.00    +0.000 C 
BRANCH  24  26
ATOM     25  N   UNL     1       0.751  14.737  19.480  0.00  0.00    +0.000 N 
ATOM     26  C   UNL     1       0.517  14.979  20.824  0.00  0.00    +0.000 C 
ATOM     27  O   UNL     1       0.736  16.045  21.399  0.00  0.00    +0.000 OA
ATOM     28  H   UNL     1       0.769  13.762  19.190  0.00  0.00    +0.000 HD
BRANCH  25  35
ATOM     29  C   UNL     1       0.268  18.630  16.463  0.00  0.00    +0.000 C 
ATOM     30  C   UNL     1       1.133  17.613  17.142  0.00  0.00    +0.000 A 
ATOM     31  C   UNL     1       2.513  17.588  16.936  0.00  0.00    +0.000 A 
ATOM     32  C   UNL     1       3.302  16.612  17.548  0.00  0.00    +0.000 A 
ATOM     33  C   UNL     1       2.727  15.635  18.378  0.00  0.00    +0.000 A 
ATOM     34  C   UNL     1       3.617  14.637  19.064  0.00  0.00    +0.000 C 
ATOM     35  C   UNL     1       1.345  15.684  18.622  0.00  0.00    +0.000 A 
ATOM     36  C   UNL     1       0.559  16.664  18.000  0.00  0.00    +0.000 A 
ENDBRANCH  25  35
ENDBRANCH  24  26
ENDBRANCH   1  24
TORSDOF 5
ENDMDL
MODEL 3
REMARK VINA RESULT:      -9.2      4.003      7.621
REMARK  Name = 
REMARK  9 active torsions:
REMARK  status: ('A' for Active; 'I' for Inactive)
REMARK    1  A    between atoms: C_1  and  C_2
REMARK    2  A    between atoms: C_5  and  C_6
REMARK    3  A    between atoms: C_7  and  N_8
REMARK    4  A    between atoms: C_9  and  C_11
REMARK    5  A    between atoms: C_11  and  N_12
REMARK    6  A    between atoms: C_13  and  C_14
REMARK    7  A    between atoms: C_16  and  C_17
REMARK    8  A    between atoms: C_18  and  C_19
REMARK    9  A    between atoms: C_21  and  C_22
REMARK                            x       y       z     vdW  Elec       q    Type
REMARK                         _______ _______ _______ _____ _____    ______ ____
ROOT
ATOM      1  N   UNL     1       0.173  11.007  21.023  0.00  0.00    +0.000 N 
ATOM      2  C   UNL     1      -0.307  10.247  22.092  0.00  0.00    +0.000 A 
ATOM      3  C   UNL     1      -1.190  10.831  23.162  0.00  0.00    +0.000 C 
ATOM      4  C   UNL     1       0.025   8.947  22.186  0.00  0.00    +0.000 A 
ATOM      5  C   UNL     1       0.827   8.285  21.166  0.00  0.00    +0.000 A 
ATOM      6  C   UNL     1       1.029   6.802  21.359  0.00  0.00    +0.000 C 
ATOM      7  C   UNL     1       1.302   9.002  20.123  0.00  0.00    +0.000 A 
ATOM      8  C   UNL     1       1.083  10.481  20.103  0.00  0.00    +0.000 A 
ATOM      9  O   UNL     1       1.688  11.199  19.312  0.00  0.00    +0.000 OA
ENDROOT
BRANCH   7  10
ATOM     10  C   UNL     1       2.013   8.425  19.033  0.00  0.00    +0.000 A 
ATOM     11  N   UNL     1       2.630   7.257  19.017  0.00  0.00    +0.000 NA
ATOM     12  C   UNL     1       3.175   7.168  17.759  0.00  0.00    +0.000 A 
ATOM     13  N   UNL     1       2.889   8.211  16.975  0.00  0.00    +0.000 NA
ATOM     14  O   UNL     1       2.132   9.038  17.798  0.00  0.00    +0.000 OA
BRANCH  12  15
ATOM     15  C   UNL     1       4.142   6.129  17.446  0.00  0.00    +0.000 A 
ATOM     16  C   UNL     1       3.763   4.764  17.386  0.00  0.00    +0.000 A 
ATOM     17  C   UNL     1       4.561   3.831  16.714  0.00  0.00    +0.000 A 
ATOM     18  C   UNL     1       5.689   4.314  16.091  0.00  0.00    +0.000 A 
ATOM     19  C   UNL     1       6.119   5.614  16.257  0.00  0.00    +0.000 A 
ATOM     20  C   UNL     1       5.399   6.533  16.972  0.00  0.00    +0.000 A 
ATOM     21  O   UNL     1       7.175   5.913  15.449  0.00  0.00    +0.000 OA
ATOM     22  C   UNL     1       7.011   4.841  14.503  0.00  0.00    +0.000 C 
ATOM     23  O   UNL     1       6.405   3.681  15.116  0.00  0.00    +0.000 OA
ENDBRANCH  12  15
ENDBRANCH   7  10
BRANCH   1  24
ATOM     24  C   UNL     1      -0.234  12.406  20.801  0.00  0.00    +0.000 C 
BRANCH  24  26
ATOM     25  N   UNL     1      -2.258  11.674  19.622  0.00  0.00    +0.000 N 
ATOM     26  C   UNL     1      -1.244  12.617  19.667  0.00  0.00    +0.000 C 
ATOM     27  O   UNL     1      -1.142  13.584  18.912  0.00  0.00    +0.000 OA
ATOM     28  H   UNL     1      -2.093  10.804  20.122  0.00  0.00    +0.000 HD
BRANCH  25  35
ATOM     29  C   UNL     1      -3.691  10.616  15.004  0.00  0.00    +0.000 C 
ATOM     30  C   UNL     1      -3.998  11.153  16.369  0.00  0.00    +0.000 A 
ATOM     31  C   UNL     1      -5.263  11.658  16.676  0.00  0.00    +0.000 A 
ATOM     32  C   UNL     1      -5.524  12.187  17.942  0.00  0.00    +0.000 A 
ATOM     33  C   UNL     1      -4.526  12.226  18.928  0.00  0.00    +0.000 A 
ATOM     34  C   UNL     1      -4.863  12.750  20.296  0.00  0.00    +0.000 C 
ATOM     35  C   UNL     1      -3.266  11.679  18.637  0.00  0.00    +0.000 A 
ATOM     36  C   UNL     1      -3.009  11.153  17.363  0.00  0.00    +0.000 A 
ENDBRANCH  25  35
ENDBRANCH  24  26
ENDBRANCH   1  24
TORSDOF 5
ENDMDL
MODEL 4
REMARK VINA RESULT:      -9.1      1.000      1.426
REMARK  Name = 
REMARK  9 active torsions:
REMARK  status: ('A' for Active; 'I' for Inactive)
REMARK    1  A    between atoms: C_1  and  C_2
REMARK    2  A    between atoms: C_5  and  C_6
REMARK    3  A    between atoms: C_7  and  N_8
REMARK    4  A    between atoms: C_9  and  C_11
REMARK    5  A    between atoms: C_11  and  N_12
REMARK    6  A    between atoms: C_13  and  C_14
REMARK    7  A    between atoms: C_16  and  C_17
REMARK    8  A    between atoms: C_18  and  C_19
REMARK    9  A    between atoms: C_21  and  C_22
REMARK                            x       y       z     vdW  Elec       q    Type
REMARK                         _______ _______ _______ _____ _____    ______ ____
ROOT
ATOM      1  N   UNL     1       4.126   4.587  18.589  0.00  0.00    +0.000 N 
ATOM      2  C   UNL     1       3.895   4.097  17.302  0.00  0.00    +0.000 A 
ATOM      3  C   UNL     1       2.774   3.141  16.993  0.00  0.00    +0.000 C 
ATOM      4  C   UNL     1       4.695   4.481  16.292  0.00  0.00    +0.000 A 
ATOM      5  C   UNL     1       5.767   5.448  16.487  0.00  0.00    +0.000 A 
ATOM      6  C   UNL     1       6.512   5.855  15.239  0.00  0.00    +0.000 C 
ATOM      7  C   UNL     1       6.008   5.934  17.726  0.00  0.00    +0.000 A 
ATOM      8  C   UNL     1       5.237   5.381  18.881  0.00  0.00    +0.000 A 
ATOM      9  O   UNL     1       5.577   5.615  20.037  0.00  0.00    +0.000 OA
ENDROOT
BRANCH   7  10
ATOM     10  C   UNL     1       6.970   6.948  17.997  0.00  0.00    +0.000 A 
ATOM     11  N   UNL     1       6.888   8.226  17.675  0.00  0.00    +0.000 NA
ATOM     12  C   UNL     1       8.061   8.775  18.131  0.00  0.00    +0.000 A 
ATOM     13  N   UNL     1       8.853   7.904  18.762  0.00  0.00    +0.000 NA
ATOM     14  O   UNL     1       8.150   6.707  18.679  0.00  0.00    +0.000 OA
BRANCH  12  15
ATOM     15  C   UNL     1       8.447  10.121  17.739  0.00  0.00    +0.000 A 
ATOM     16  C   UNL     1       7.493  11.044  17.240  0.00  0.00    +0.000 A 
ATOM     17  C   UNL     1       7.761  12.417  17.241  0.00  0.00    +0.000 A 
ATOM     18  C   UNL     1       8.962  12.815  17.784  0.00  0.00    +0.000 A 
ATOM     19  C   UNL     1       9.935  11.910  18.152  0.00  0.00    +0.000 A 
ATOM     20  C   UNL     1       9.732  10.558  18.092  0.00  0.00    +0.000 A 
ATOM     21  O   UNL     1      10.983  12.511  18.786  0.00  0.00    +0.000 OA
ATOM     22  C   UNL     1      10.319  13.735  19.148  0.00  0.00    +0.000 C 
ATOM     23  O   UNL     1       9.280  14.075  18.201  0.00  0.00    +0.000 OA
ENDBRANCH  12  15
ENDBRANCH   7  10
BRANCH   1  24
ATOM     24  C   UNL     1       3.228   4.292  19.721  0.00  0.00    +0.000 C 
BRANCH  24  26
ATOM     25  N   UNL     1       2.645   6.672  19.844  0.00  0.00    +0.000 N 
ATOM     26  C   UNL     1       2.189   5.376  20.026  0.00  0.00    +0.000 C 
ATOM     27  O   UNL     1       1.045   5.069  20.361  0.00  0.00    +0.000 OA
ATOM     28  H   UNL     1       3.653   6.799  19.818  0.00  0.00    +0.000 HD
BRANCH  25  35
ATOM     29  C   UNL     1      -0.058   9.338  23.020  0.00  0.00    +0.000 C 
ATOM     30  C   UNL     1       0.525   9.145  21.653  0.00  0.00    +0.000 A 
ATOM     31  C   UNL     1       0.290  10.069  20.634  0.00  0.00    +0.000 A 
ATOM     32  C   UNL     1       0.810   9.858  19.355  0.00  0.00    +0.000 A 
ATOM     33  C   UNL     1       1.575   8.716  19.066  0.00  0.00    +0.000 A 
ATOM     34  C   UNL     1       2.165   8.554  17.694  0.00  0.00    +0.000 C 
ATOM     35  C   UNL     1       1.849   7.807  20.101  0.00  0.00    +0.000 A 
ATOM     36  C   UNL     1       1.320   8.023  21.381  0.00  0.00    +0.000 A 
ENDBRANCH  25  35
ENDBRANCH  24  26
ENDBRANCH   1  24
TORSDOF 5
ENDMDL
MODEL 5
REMARK VINA RESULT:      -9.0      4.468      8.738
REMARK  Name = 
REMARK  9 active torsions:
REMARK  status: ('A' for Active; 'I' for Inactive)
REMARK    1  A    between atoms: C_1  and  C_2
REMARK    2  A    between atoms: C_5  and  C_6
REMARK    3  A    between atoms: C_7  and  N_8
REMARK    4  A    between atoms: C_9  and  C_11
REMARK    5  A    between atoms: C_11  and  N_12
REMARK    6  A    between atoms: C_13  and  C_14
REMARK    7  A    between atoms: C_16  and  C_17
REMARK    8  A    between atoms: C_18  and  C_19
REMARK    9  A    between atoms: C_21  and  C_22
REMARK                            x       y       z     vdW  Elec       q    Type
REMARK                         _______ _______ _______ _____ _____    ______ ____
ROOT
ATOM      1  N   UNL     1      -0.522  11.982  20.600  0.00  0.00    +0.000 N 
ATOM      2  C   UNL     1      -1.765  12.156  19.989  0.00  0.00    +0.000 A 
ATOM      3  C   UNL     1      -2.758  13.185  20.462  0.00  0.00    +0.000 C 
ATOM      4  C   UNL     1      -2.106  11.384  18.942  0.00  0.00    +0.000 A 
ATOM      5  C   UNL     1      -1.186  10.405  18.381  0.00  0.00    +0.000 A 
ATOM      6  C   UNL     1      -1.673   9.687  17.145  0.00  0.00    +0.000 C 
ATOM      7  C   UNL     1       0.023  10.219  18.958  0.00  0.00    +0.000 A 
ATOM      8  C   UNL     1       0.339  10.949  20.223  0.00  0.00    +0.000 A 
ATOM      9  O   UNL     1       1.314  10.642  20.903  0.00  0.00    +0.000 OA
ENDROOT
BRANCH   7  10
ATOM     10  C   UNL     1       1.021   9.354  18.426  0.00  0.00    +0.000 A 
ATOM     11  N   UNL     1       1.161   8.063  18.665  0.00  0.00    +0.000 NA
ATOM     12  C   UNL     1       2.271   7.694  17.944  0.00  0.00    +0.000 A 
ATOM     13  N   UNL     1       2.804   8.690  17.232  0.00  0.00    +0.000 NA
ATOM     14  O   UNL     1       1.996   9.778  17.540  0.00  0.00    +0.000 OA
BRANCH  12  15
ATOM     15  C   UNL     1       2.887   6.393  18.153  0.00  0.00    +0.000 A 
ATOM     16  C   UNL     1       4.204   6.276  18.666  0.00  0.00    +0.000 A 
ATOM     17  C   UNL     1       4.644   5.075  19.233  0.00  0.00    +0.000 A 
ATOM     18  C   UNL     1       3.729   4.049  19.302  0.00  0.00    +0.000 A 
ATOM     19  C   UNL     1       2.495   4.125  18.692  0.00  0.00    +0.000 A 
ATOM     20  C   UNL     1       2.063   5.262  18.062  0.00  0.00    +0.000 A 
ATOM     21  O   UNL     1       1.703   3.058  18.997  0.00  0.00    +0.000 OA
ATOM     22  C   UNL     1       2.408   2.619  20.172  0.00  0.00    +0.000 C 
ATOM     23  O   UNL     1       3.815   2.944  20.099  0.00  0.00    +0.000 OA
ENDBRANCH  12  15
ENDBRANCH   7  10
BRANCH   1  24
ATOM     24  C   UNL     1      -0.042  12.861  21.682  0.00  0.00    +0.000 C 
BRANCH  24  26
ATOM     25  N   UNL     1       1.110  14.105  19.909  0.00  0.00    +0.000 N 
ATOM     26  C   UNL     1       1.040  13.866  21.272  0.00  0.00    +0.000 C 
ATOM     27  O   UNL     1       1.734  14.420  22.125  0.00  0.00    +0.000 OA
ATOM     28  H   UNL     1       0.674  13.415  19.303  0.00  0.00    +0.000 HD
BRANCH  25  35
ATOM     29  C   UNL     1       5.677  14.853  18.154  0.00  0.00    +0.000 C 
ATOM     30  C   UNL     1       4.299  15.362  18.448  0.00  0.00    +0.000 A 
ATOM     31  C   UNL     1       3.943  16.681  18.161  0.00  0.00    +0.000 A 
ATOM     32  C   UNL     1       2.665  17.151  18.474  0.00  0.00    +0.000 A 
ATOM     33  C   UNL     1       1.716  16.314  19.082  0.00  0.00    +0.000 A 
ATOM     34  C   UNL     1       0.335  16.841  19.349  0.00  0.00    +0.000 C 
ATOM     35  C   UNL     1       2.058  14.975  19.331  0.00  0.00    +0.000 A 
ATOM     36  C   UNL     1       3.343  14.510  19.020  0.00  0.00    +0.000 A 
ENDBRANCH  25  35
ENDBRANCH  24  26
ENDBRANCH   1  24
TORSDOF 5
ENDMDL
MODEL 6
REMARK VINA RESULT:      -9.0      4.591      8.594
REMARK  Name = 
REMARK  9 active torsions:
REMARK  status: ('A' for Active; 'I' for Inactive)
REMARK    1  A    between atoms: C_1  and  C_2
REMARK    2  A    between atoms: C_5  and  C_6
REMARK    3  A    between atoms: C_7  and  N_8
REMARK    4  A    between atoms: C_9  and  C_11
REMARK    5  A    between atoms: C_11  and  N_12
REMARK    6  A    between atoms: C_13  and  C_14
REMARK    7  A    between atoms: C_16  and  C_17
REMARK    8  A    between atoms: C_18  and  C_19
REMARK    9  A    between atoms: C_21  and  C_22
REMARK                            x       y       z     vdW  Elec       q    Type
REMARK                         _______ _______ _______ _____ _____    ______ ____
ROOT
ATOM      1  N   UNL     1      -0.653  12.363  20.923  0.00  0.00    +0.000 N 
ATOM      2  C   UNL     1      -1.919  12.512  20.352  0.00  0.00    +0.000 A 
ATOM      3  C   UNL     1      -2.928  13.499  20.876  0.00  0.00    +0.000 C 
ATOM      4  C   UNL     1      -2.267  11.752  19.299  0.00  0.00    +0.000 A 
ATOM      5  C   UNL     1      -1.335  10.813  18.690  0.00  0.00    +0.000 A 
ATOM      6  C   UNL     1      -1.836  10.108  17.453  0.00  0.00    +0.000 C 
ATOM      7  C   UNL     1      -0.104  10.652  19.227  0.00  0.00    +0.000 A 
ATOM      8  C   UNL     1       0.226  11.365  20.500  0.00  0.00    +0.000 A 
ATOM      9  O   UNL     1       1.230  11.073  21.144  0.00  0.00    +0.000 OA
ENDROOT
BRANCH   7  10
ATOM     10  C   UNL     1       0.904   9.830  18.649  0.00  0.00    +0.000 A 
ATOM     11  N   UNL     1       1.168   8.571  18.946  0.00  0.00    +0.000 NA
ATOM     12  C   UNL     1       2.229   8.238  18.139  0.00  0.00    +0.000 A 
ATOM     13  N   UNL     1       2.610   9.222  17.320  0.00  0.00    +0.000 NA
ATOM     14  O   UNL     1       1.752  10.266  17.646  0.00  0.00    +0.000 OA
BRANCH  12  15
ATOM     15  C   UNL     1       2.963   7.002  18.359  0.00  0.00    +0.000 A 
ATOM     16  C   UNL     1       2.395   5.928  19.088  0.00  0.00    +0.000 A 
ATOM     17  C   UNL     1       2.909   4.632  18.966  0.00  0.00    +0.000 A 
ATOM     18  C   UNL     1       3.950   4.458  18.082  0.00  0.00    +0.000 A 
ATOM     19  C   UNL     1       4.579   5.523  17.472  0.00  0.00    +0.000 A 
ATOM     20  C   UNL     1       4.146   6.812  17.631  0.00  0.00    +0.000 A 
ATOM     21  O   UNL     1       5.489   5.118  16.541  0.00  0.00    +0.000 OA
ATOM     22  C   UNL     1       4.996   3.779  16.352  0.00  0.00    +0.000 C 
ATOM     23  O   UNL     1       4.367   3.272  17.551  0.00  0.00    +0.000 OA
ENDBRANCH  12  15
ENDBRANCH   7  10
BRANCH   1  24
ATOM     24  C   UNL     1      -0.168  13.233  22.010  0.00  0.00    +0.000 C 
BRANCH  24  26
ATOM     25  N   UNL     1       1.294  14.163  20.274  0.00  0.00    +0.000 N 
ATOM     26  C   UNL     1       0.914  14.239  21.604  0.00  0.00    +0.000 C 
ATOM     27  O   UNL     1       1.346  15.054  22.419  0.00  0.00    +0.000 OA
ATOM     28  H   UNL     1       1.061  13.305  19.783  0.00  0.00    +0.000 HD
BRANCH  25  35
ATOM     29  C   UNL     1       6.097  15.201  19.680  0.00  0.00    +0.000 C 
ATOM     30  C   UNL     1       4.658  15.505  19.397  0.00  0.00    +0.000 A 
ATOM     31  C   UNL     1       4.295  16.588  18.593  0.00  0.00    +0.000 A 
ATOM     32  C   UNL     1       2.949  16.880  18.367  0.00  0.00    +0.000 A 
ATOM     33  C   UNL     1       1.934  16.099  18.942  0.00  0.00    +0.000 A 
ATOM     34  C   UNL     1       0.498  16.412  18.628  0.00  0.00    +0.000 C 
ATOM     35  C   UNL     1       2.295  14.984  19.715  0.00  0.00    +0.000 A 
ATOM     36  C   UNL     1       3.649  14.698  19.942  0.00  0.00    +0.000 A 
ENDBRANCH  25  35
ENDBRANCH  24  26
ENDBRANCH   1  24
TORSDOF 5
ENDMDL
MODEL 7
REMARK VINA RESULT:      -8.9      4.237      7.719
REMARK  Name = 
REMARK  9 active torsions:
REMARK  status: ('A' for Active; 'I' for Inactive)
REMARK    1  A    between atoms: C_1  and  C_2
REMARK    2  A    between atoms: C_5  and  C_6
REMARK    3  A    between atoms: C_7  and  N_8
REMARK    4  A    between atoms: C_9  and  C_11
REMARK    5  A    between atoms: C_11  and  N_12
REMARK    6  A    between atoms: C_13  and  C_14
REMARK    7  A    between atoms: C_16  and  C_17
REMARK    8  A    between atoms: C_18  and  C_19
REMARK    9  A    between atoms: C_21  and  C_22
REMARK                            x       y       z     vdW  Elec       q    Type
REMARK                         _______ _______ _______ _____ _____    ______ ____
ROOT
ATOM      1  N   UNL     1      -0.068  11.263  20.988  0.00  0.00    +0.000 N 
ATOM      2  C   UNL     1      -0.514  10.531  22.091  0.00  0.00    +0.000 A 
ATOM      3  C   UNL     1      -1.412  11.126  23.143  0.00  0.00    +0.000 C 
ATOM      4  C   UNL     1      -0.135   9.249  22.236  0.00  0.00    +0.000 A 
ATOM      5  C   UNL     1       0.684   8.574  21.238  0.00  0.00    +0.000 A 
ATOM      6  C   UNL     1       0.942   7.109  21.490  0.00  0.00    +0.000 C 
ATOM      7  C   UNL     1       1.127   9.265  20.162  0.00  0.00    +0.000 A 
ATOM      8  C   UNL     1       0.855  10.732  20.084  0.00  0.00    +0.000 A 
ATOM      9  O   UNL     1       1.428  11.438  19.259  0.00  0.00    +0.000 OA
ENDROOT
BRANCH   7  10
ATOM     10  C   UNL     1       1.853   8.668  19.092  0.00  0.00    +0.000 A 
ATOM     11  N   UNL     1       2.416   7.474  19.083  0.00  0.00    +0.000 NA
ATOM     12  C   UNL     1       3.004   7.376  17.846  0.00  0.00    +0.000 A 
ATOM     13  N   UNL     1       2.794   8.440  17.066  0.00  0.00    +0.000 NA
ATOM     14  O   UNL     1       2.044   9.290  17.871  0.00  0.00    +0.000 OA
BRANCH  12  15
ATOM     15  C   UNL     1       3.935   6.298  17.555  0.00  0.00    +0.000 A 
ATOM     16  C   UNL     1       3.523   4.942  17.582  0.00  0.00    +0.000 A 
ATOM     17  C   UNL     1       4.274   3.955  16.934  0.00  0.00    +0.000 A 
ATOM     18  C   UNL     1       5.389   4.376  16.245  0.00  0.00    +0.000 A 
ATOM     19  C   UNL     1       5.854   5.671  16.325  0.00  0.00    +0.000 A 
ATOM     20  C   UNL     1       5.182   6.645  17.015  0.00  0.00    +0.000 A 
ATOM     21  O   UNL     1       6.886   5.902  15.465  0.00  0.00    +0.000 OA
ATOM     22  C   UNL     1       6.662   4.785  14.584  0.00  0.00    +0.000 C 
ATOM     23  O   UNL     1       6.054   3.674  15.281  0.00  0.00    +0.000 OA
ENDBRANCH  12  15
ENDBRANCH   7  10
BRANCH   1  24
ATOM     24  C   UNL     1      -0.527  12.636  20.711  0.00  0.00    +0.000 C 
BRANCH  24  26
ATOM     25  N   UNL     1      -2.364  11.859  19.281  0.00  0.00    +0.000 N 
ATOM     26  C   UNL     1      -1.990  12.756  20.269  0.00  0.00    +0.000 C 
ATOM     27  O   UNL     1      -2.741  13.569  20.809  0.00  0.00    +0.000 OA
ATOM     28  H   UNL     1      -1.611  11.428  18.750  0.00  0.00    +0.000 HD
BRANCH  25  35
ATOM     29  C   UNL     1      -7.242  12.493  19.822  0.00  0.00    +0.000 C 
ATOM     30  C   UNL     1      -6.064  12.151  18.962  0.00  0.00    +0.000 A 
ATOM     31  C   UNL     1      -6.229  11.804  17.620  0.00  0.00    +0.000 A 
ATOM     32  C   UNL     1      -5.126  11.453  16.840  0.00  0.00    +0.000 A 
ATOM     33  C   UNL     1      -3.832  11.439  17.385  0.00  0.00    +0.000 A 
ATOM     34  C   UNL     1      -2.664  11.112  16.497  0.00  0.00    +0.000 C 
ATOM     35  C   UNL     1      -3.657  11.831  18.722  0.00  0.00    +0.000 A 
ATOM     36  C   UNL     1      -4.770  12.177  19.501  0.00  0.00    +0.000 A 
ENDBRANCH  25  35
ENDBRANCH  24  26
ENDBRANCH   1  24
TORSDOF 5
ENDMDL
MODEL 8
REMARK VINA RESULT:      -8.9      4.693      8.570
REMARK  Name = 
REMARK  9 active torsions:
REMARK  status: ('A' for Active; 'I' for Inactive)
REMARK    1  A    between atoms: C_1  and  C_2
REMARK    2  A    between atoms: C_5  and  C_6
REMARK    3  A    between atoms: C_7  and  N_8
REMARK    4  A    between atoms: C_9  and  C_11
REMARK    5  A    between atoms: C_11  and  N_12
REMARK    6  A    between atoms: C_13  and  C_14
REMARK    7  A    between atoms: C_16  and  C_17
REMARK    8  A    between atoms: C_18  and  C_19
REMARK    9  A    between atoms: C_21  and  C_22
REMARK                            x       y       z     vdW  Elec       q    Type
REMARK                         _______ _______ _______ _____ _____    ______ ____
ROOT
ATOM      1  N   UNL     1      -0.588  12.242  20.809  0.00  0.00    +0.000 N 
ATOM      2  C   UNL     1      -1.865  12.366  20.258  0.00  0.00    +0.000 A 
ATOM      3  C   UNL     1      -2.881  13.341  20.790  0.00  0.00    +0.000 C 
ATOM      4  C   UNL     1      -2.217  11.591  19.217  0.00  0.00    +0.000 A 
ATOM      5  C   UNL     1      -1.280  10.663  18.600  0.00  0.00    +0.000 A 
ATOM      6  C   UNL     1      -1.790   9.939  17.377  0.00  0.00    +0.000 C 
ATOM      7  C   UNL     1      -0.038  10.527  19.119  0.00  0.00    +0.000 A 
ATOM      8  C   UNL     1       0.301  11.255  20.380  0.00  0.00    +0.000 A 
ATOM      9  O   UNL     1       1.319  10.986  21.010  0.00  0.00    +0.000 OA
ENDROOT
BRANCH   7  10
ATOM     10  C   UNL     1       0.973   9.716  18.531  0.00  0.00    +0.000 A 
ATOM     11  N   UNL     1       1.184   8.430  18.745  0.00  0.00    +0.000 NA
ATOM     12  C   UNL     1       2.275   8.122  17.969  0.00  0.00    +0.000 A 
ATOM     13  N   UNL     1       2.727   9.150  17.246  0.00  0.00    +0.000 NA
ATOM     14  O   UNL     1       1.884  10.196  17.606  0.00  0.00    +0.000 OA
BRANCH  12  15
ATOM     15  C   UNL     1       2.961   6.850  18.132  0.00  0.00    +0.000 A 
ATOM     16  C   UNL     1       2.265   5.686  18.544  0.00  0.00    +0.000 A 
ATOM     17  C   UNL     1       2.806   4.415  18.321  0.00  0.00    +0.000 A 
ATOM     18  C   UNL     1       4.009   4.361  17.654  0.00  0.00    +0.000 A 
ATOM     19  C   UNL     1       4.740   5.495  17.368  0.00  0.00    +0.000 A 
ATOM     20  C   UNL     1       4.271   6.752  17.642  0.00  0.00    +0.000 A 
ATOM     21  O   UNL     1       5.827   5.224  16.591  0.00  0.00    +0.000 OA
ATOM     22  C   UNL     1       5.398   3.945  16.090  0.00  0.00    +0.000 C 
ATOM     23  O   UNL     1       4.540   3.266  17.035  0.00  0.00    +0.000 OA
ENDBRANCH  12  15
ENDBRANCH   7  10
BRANCH   1  24
ATOM     24  C   UNL     1      -0.100  13.129  21.881  0.00  0.00    +0.000 C 
BRANCH  24  26
ATOM     25  N   UNL     1       1.653  13.958  20.377  0.00  0.00    +0.000 N 
ATOM     26  C   UNL     1       0.793  14.284  21.413  0.00  0.00    +0.000 C 
ATOM     27  O   UNL     1       0.686  15.401  21.920  0.00  0.00    +0.000 OA
ATOM     28  H   UNL     1       1.826  12.968  20.225  0.00  0.00    +0.000 HD
BRANCH  25  35
ATOM     29  C   UNL     1       2.762  17.294  16.894  0.00  0.00    +0.000 C 
ATOM     30  C   UNL     1       3.135  16.533  18.129  0.00  0.00    +0.000 A 
ATOM     31  C   UNL     1       4.378  16.715  18.739  0.00  0.00    +0.000 A 
ATOM     32  C   UNL     1       4.726  15.972  19.869  0.00  0.00    +0.000 A 
ATOM     33  C   UNL     1       3.840  15.027  20.413  0.00  0.00    +0.000 A 
ATOM     34  C   UNL     1       4.229  14.290  21.664  0.00  0.00    +0.000 C 
ATOM     35  C   UNL     1       2.573  14.874  19.828  0.00  0.00    +0.000 A 
ATOM     36  C   UNL     1       2.232  15.619  18.691  0.00  0.00    +0.000 A 
ENDBRANCH  25  35
ENDBRANCH  24  26
ENDBRANCH   1  24
TORSDOF 5
ENDMDL
MODEL 9
REMARK VINA RESULT:      -8.9      4.763      8.388
REMARK  Name = 
REMARK  9 active torsions:
REMARK  status: ('A' for Active; 'I' for Inactive)
REMARK    1  A    between atoms: C_1  and  C_2
REMARK    2  A    between atoms: C_5  and  C_6
REMARK    3  A    between atoms: C_7  and  N_8
REMARK    4  A    between atoms: C_9  and  C_11
REMARK    5  A    between atoms: C_11  and  N_12
REMARK    6  A    between atoms: C_13  and  C_14
REMARK    7  A    between atoms: C_16  and  C_17
REMARK    8  A    between atoms: C_18  and  C_19
REMARK    9  A    between atoms: C_21  and  C_22
REMARK                            x       y       z     vdW  Elec       q    Type
REMARK                         _______ _______ _______ _____ _____    ______ ____
ROOT
ATOM      1  N   UNL     1      -0.572  12.241  20.928  0.00  0.00    +0.000 N 
ATOM      2  C   UNL     1      -0.832  11.697  22.188  0.00  0.00    +0.000 A 
ATOM      3  C   UNL     1      -1.646  12.422  23.226  0.00  0.00    +0.000 C 
ATOM      4  C   UNL     1      -0.340  10.486  22.503  0.00  0.00    +0.000 A 
ATOM      5  C   UNL     1       0.408   9.688  21.542  0.00  0.00    +0.000 A 
ATOM      6  C   UNL     1       0.805   8.308  22.009  0.00  0.00    +0.000 C 
ATOM      7  C   UNL     1       0.671  10.196  20.316  0.00  0.00    +0.000 A 
ATOM      8  C   UNL     1       0.279  11.608  20.020  0.00  0.00    +0.000 A 
ATOM      9  O   UNL     1       0.698  12.183  19.020  0.00  0.00    +0.000 OA
ENDROOT
BRANCH   7  10
ATOM     10  C   UNL     1       1.313   9.457  19.282  0.00  0.00    +0.000 A 
ATOM     11  N   UNL     1       1.850   8.255  19.382  0.00  0.00    +0.000 NA
ATOM     12  C   UNL     1       2.354   7.994  18.131  0.00  0.00    +0.000 A 
ATOM     13  N   UNL     1       2.115   8.964  17.243  0.00  0.00    +0.000 NA
ATOM     14  O   UNL     1       1.437   9.924  17.985  0.00  0.00    +0.000 OA
BRANCH  12  15
ATOM     15  C   UNL     1       3.242   6.863  17.914  0.00  0.00    +0.000 A 
ATOM     16  C   UNL     1       2.815   5.534  18.159  0.00  0.00    +0.000 A 
ATOM     17  C   UNL     1       3.494   4.451  17.592  0.00  0.00    +0.000 A 
ATOM     18  C   UNL     1       4.553   4.747  16.763  0.00  0.00    +0.000 A 
ATOM     19  C   UNL     1       5.041   6.029  16.627  0.00  0.00    +0.000 A 
ATOM     20  C   UNL     1       4.444   7.103  17.231  0.00  0.00    +0.000 A 
ATOM     21  O   UNL     1       6.000   6.115  15.662  0.00  0.00    +0.000 OA
ATOM     22  C   UNL     1       5.687   4.897  14.964  0.00  0.00    +0.000 C 
ATOM     23  O   UNL     1       5.124   3.905  15.852  0.00  0.00    +0.000 OA
ENDBRANCH  12  15
ENDBRANCH   7  10
BRANCH   1  24
ATOM     24  C   UNL     1      -1.165  13.513  20.479  0.00  0.00    +0.000 C 
BRANCH  24  26
ATOM     25  N   UNL     1      -3.210  12.323  19.831  0.00  0.00    +0.000 N 
ATOM     26  C   UNL     1      -2.690  13.505  20.333  0.00  0.00    +0.000 C 
ATOM     27  O   UNL     1      -3.357  14.478  20.687  0.00  0.00    +0.000 OA
ATOM     28  H   UNL     1      -2.559  11.710  19.348  0.00  0.00    +0.000 HD
BRANCH  25  35
ATOM     29  C   UNL     1      -7.853  12.312  21.547  0.00  0.00    +0.000 C 
ATOM     30  C   UNL     1      -6.885  12.132  20.418  0.00  0.00    +0.000 A 
ATOM     31  C   UNL     1      -7.325  11.774  19.142  0.00  0.00    +0.000 A 
ATOM     32  C   UNL     1      -6.408  11.575  18.108  0.00  0.00    +0.000 A 
ATOM     33  C   UNL     1      -5.029  11.726  18.326  0.00  0.00    +0.000 A 
ATOM     34  C   UNL     1      -4.080  11.560  17.174  0.00  0.00    +0.000 C 
ATOM     35  C   UNL     1      -4.587  12.129  19.597  0.00  0.00    +0.000 A 
ATOM     36  C   UNL     1      -5.512  12.323  20.632  0.00  0.00    +0.000 A 
ENDBRANCH  25  35
ENDBRANCH  24  26
ENDBRANCH   1  24
TORSDOF 5
ENDMDL
