MODEL 1
REMARK VINA RESULT:      -9.1      0.000      0.000
REMARK  Name = 
REMARK  5 active torsions:
REMARK  status: ('A' for Active; 'I' for Inactive)
REMARK    1  A    between atoms: C_2  and  C_3
REMARK    2  A    between atoms: C_2  and  C_25
REMARK    3  A    between atoms: C_6  and  O_7
REMARK    4  A    between atoms: O_7  and  C_8
REMARK    5  A    between atoms: C_13  and  C_14
REMARK                            x       y       z     vdW  Elec       q    Type
REMARK                         _______ _______ _______ _____ _____    ______ ____
ROOT
ATOM      1  C   UNL     1       2.125   7.182  19.556  0.00  0.00    +0.000 A 
ATOM      2  C   UNL     1       2.249   7.739  18.277  0.00  0.00    +0.000 A 
ATOM      3  C   UNL     1       1.647   8.977  17.980  0.00  0.00    +0.000 A 
ATOM      4  C   UNL     1       0.925   9.673  18.956  0.00  0.00    +0.000 A 
ATOM      5  C   UNL     1       0.885   9.156  20.255  0.00  0.00    +0.000 A 
ATOM      6  C   UNL     1       1.460   7.912  20.548  0.00  0.00    +0.000 A 
ENDROOT
BRANCH   1   8
ATOM      7  O   UNL     1       2.334   5.209  20.827  0.00  0.00    +0.000 OA
ATOM      8  C   UNL     1       2.753   5.857  19.869  0.00  0.00    +0.000 C 
BRANCH   8   9
ATOM      9  C   UNL     1       3.790   5.363  18.979  0.00  0.00    +0.000 A 
ATOM     10  N   UNL     1       5.087   5.489  19.202  0.00  0.00    +0.000 NA
ATOM     11  C   UNL     1       5.705   5.020  18.072  0.00  0.00    +0.000 A 
ATOM     12  C   UNL     1       7.074   4.982  17.760  0.00  0.00    +0.000 A 
ATOM     13  C   UNL     1       7.460   4.529  16.494  0.00  0.00    +0.000 A 
ATOM     14  C   UNL     1       6.503   4.114  15.565  0.00  0.00    +0.000 A 
ATOM     15  C   UNL     1       5.133   4.112  15.875  0.00  0.00    +0.000 A 
ATOM     16  C   UNL     1       4.771   4.576  17.142  0.00  0.00    +0.000 A 
ATOM     17  N   UNL     1       3.567   4.722  17.784  0.00  0.00    +0.000 N 
ATOM     18  H   UNL     1       2.659   4.488  17.410  0.00  0.00    +0.000 HD
ENDBRANCH   8   9
ENDBRANCH   1   8
BRANCH   4  19
ATOM     19  O   UNL     1       0.339  10.873  18.574  0.00  0.00    +0.000 OA
BRANCH  19  20
ATOM     20  C   UNL     1       0.954  12.066  18.958  0.00  0.00    +0.000 A 
ATOM     21  N   UNL     1       2.186  12.332  18.455  0.00  0.00    +0.000 NA
ATOM     22  C   UNL     1       2.730  13.535  18.711  0.00  0.00    +0.000 A 
ATOM     23  C   UNL     1       2.087  14.518  19.430  0.00  0.00    +0.000 A 
ATOM     24  C   UNL     1       0.859  14.211  20.004  0.00  0.00    +0.000 A 
ATOM     25  C   UNL     1       0.289  12.935  19.837  0.00  0.00    +0.000 A 
BRANCH  25  26
ATOM     26  C   UNL     1      -0.897  12.521  20.695  0.00  0.00    +0.000 C 
ATOM     27  C   UNL     1      -0.413  12.137  22.114  0.00  0.00    +0.000 C 
ATOM     28  C   UNL     1      -1.550  11.631  23.008  0.00  0.00    +0.000 C 
ATOM     29  C   UNL     1      -2.699  12.638  23.055  0.00  0.00    +0.000 C 
ATOM     30  C   UNL     1      -3.851  12.261  24.016  0.00  0.00    +0.000 C 
ATOM     31  C   UNL     1      -3.668  13.679  24.552  0.00  0.00    +0.000 C 
ATOM     32  O   UNL     1      -2.375  13.788  23.895  0.00  0.00    +0.000 OA
ATOM     33  C   UNL     1      -3.164  13.084  21.664  0.00  0.00    +0.000 C 
ATOM     34  C   UNL     1      -1.989  13.600  20.830  0.00  0.00    +0.000 C 
ENDBRANCH  25  26
ENDBRANCH  19  20
ENDBRANCH   4  19
TORSDOF 5
ENDMDL
MODEL 2
REMARK VINA RESULT:      -9.0      3.124      9.711
REMARK  Name = 
REMARK  5 active torsions:
REMARK  status: ('A' for Active; 'I' for Inactive)
REMARK    1  A    between atoms: C_2  and  C_3
REMARK    2  A    between atoms: C_2  and  C_25
REMARK    3  A    between atoms: C_6  and  O_7
REMARK    4  A    between atoms: O_7  and  C_8
REMARK    5  A    between atoms: C_13  and  C_14
REMARK                            x       y       z     vdW  Elec       q    Type
REMARK                         _______ _______ _______ _____ _____    ______ ____
ROOT
ATOM      1  C   UNL     1       1.008   9.464  19.829  0.00  0.00    +0.000 A 
ATOM      2  C   UNL     1       1.790   8.874  18.829  0.00  0.00    +0.000 A 
ATOM      3  C   UNL     1       2.370   7.608  19.036  0.00  0.00    +0.000 A 
ATOM      4  C   UNL     1       2.169   6.917  20.236  0.00  0.00    +0.000 A 
ATOM      5  C   UNL     1       1.310   7.471  21.191  0.00  0.00    +0.000 A 
ATOM      6  C   UNL     1       0.752   8.742  21.001  0.00  0.00    +0.000 A 
ENDROOT
BRANCH   1   8
ATOM      7  O   UNL     1       0.911  11.795  20.163  0.00  0.00    +0.000 OA
ATOM      8  C   UNL     1       0.401  10.819  19.616  0.00  0.00    +0.000 C 
BRANCH   8   9
ATOM      9  C   UNL     1      -0.730  10.927  18.710  0.00  0.00    +0.000 A 
ATOM     10  N   UNL     1      -1.874  11.518  19.010  0.00  0.00    +0.000 NA
ATOM     11  C   UNL     1      -2.705  11.281  17.947  0.00  0.00    +0.000 A 
ATOM     12  C   UNL     1      -4.054  11.637  17.779  0.00  0.00    +0.000 A 
ATOM     13  C   UNL     1      -4.722  11.204  16.628  0.00  0.00    +0.000 A 
ATOM     14  C   UNL     1      -4.057  10.443  15.664  0.00  0.00    +0.000 A 
ATOM     15  C   UNL     1      -2.699  10.111  15.801  0.00  0.00    +0.000 A 
ATOM     16  C   UNL     1      -2.055  10.546  16.962  0.00  0.00    +0.000 A 
ATOM     17  N   UNL     1      -0.774  10.416  17.435  0.00  0.00    +0.000 N 
ATOM     18  H   UNL     1      -0.012   9.943  16.972  0.00  0.00    +0.000 HD
ENDBRANCH   8   9
ENDBRANCH   1   8
BRANCH   4  19
ATOM     19  O   UNL     1       2.799   5.687  20.372  0.00  0.00    +0.000 OA
BRANCH  19  20
ATOM     20  C   UNL     1       2.167   4.554  19.855  0.00  0.00    +0.000 A 
ATOM     21  N   UNL     1       1.090   4.071  20.525  0.00  0.00    +0.000 NA
ATOM     22  C   UNL     1       0.396   3.063  19.966  0.00  0.00    +0.000 A 
ATOM     23  C   UNL     1       0.703   2.522  18.738  0.00  0.00    +0.000 A 
ATOM     24  C   UNL     1       1.850   2.972  18.094  0.00  0.00    +0.000 A 
ATOM     25  C   UNL     1       2.658   3.964  18.680  0.00  0.00    +0.000 A 
BRANCH  25  26
ATOM     26  C   UNL     1       4.044   4.238  18.114  0.00  0.00    +0.000 C 
ATOM     27  C   UNL     1       3.940   5.213  16.916  0.00  0.00    +0.000 C 
ATOM     28  C   UNL     1       5.294   5.469  16.246  0.00  0.00    +0.000 C 
ATOM     29  C   UNL     1       6.331   5.936  17.267  0.00  0.00    +0.000 C 
ATOM     30  C   UNL     1       7.704   6.319  16.668  0.00  0.00    +0.000 C 
ATOM     31  C   UNL     1       7.530   7.604  17.475  0.00  0.00    +0.000 C 
ATOM     32  O   UNL     1       6.115   7.326  17.660  0.00  0.00    +0.000 OA
ATOM     33  C   UNL     1       6.417   5.023  18.496  0.00  0.00    +0.000 C 
ATOM     34  C   UNL     1       5.039   4.825  19.133  0.00  0.00    +0.000 C 
ENDBRANCH  25  26
ENDBRANCH  19  20
ENDBRANCH   4  19
TORSDOF 5
ENDMDL
MODEL 3
REMARK VINA RESULT:      -8.9      3.176      9.837
REMARK  Name = 
REMARK  5 active torsions:
REMARK  status: ('A' for Active; 'I' for Inactive)
REMARK    1  A    between atoms: C_2  and  C_3
REMARK    2  A    between atoms: C_2  and  C_25
REMARK    3  A    between atoms: C_6  and  O_7
REMARK    4  A    between atoms: O_7  and  C_8
REMARK    5  A    between atoms: C_13  and  C_14
REMARK                            x       y       z     vdW  Elec       q    Type
REMARK                         _______ _______ _______ _____ _____    ______ ____
ROOT
ATOM      1  C   UNL     1       1.109   9.242  19.677  0.00  0.00    +0.000 A 
ATOM      2  C   UNL     1       1.891   8.618  18.697  0.00  0.00    +0.000 A 
ATOM      3  C   UNL     1       2.475   7.361  18.949  0.00  0.00    +0.000 A 
ATOM      4  C   UNL     1       2.278   6.714  20.174  0.00  0.00    +0.000 A 
ATOM      5  C   UNL     1       1.420   7.300  21.110  0.00  0.00    +0.000 A 
ATOM      6  C   UNL     1       0.858   8.562  20.875  0.00  0.00    +0.000 A 
ENDROOT
BRANCH   1   8
ATOM      7  O   UNL     1       1.108  11.597  19.762  0.00  0.00    +0.000 OA
ATOM      8  C   UNL     1       0.498  10.586  19.415  0.00  0.00    +0.000 C 
BRANCH   8   9
ATOM      9  C   UNL     1      -0.764  10.637  18.698  0.00  0.00    +0.000 A 
ATOM     10  N   UNL     1      -0.963  10.121  17.498  0.00  0.00    +0.000 NA
ATOM     11  C   UNL     1      -2.228  10.502  17.135  0.00  0.00    +0.000 A 
ATOM     12  C   UNL     1      -2.913  10.270  15.930  0.00  0.00    +0.000 A 
ATOM     13  C   UNL     1      -4.180  10.838  15.760  0.00  0.00    +0.000 A 
ATOM     14  C   UNL     1      -4.754  11.611  16.772  0.00  0.00    +0.000 A 
ATOM     15  C   UNL     1      -4.098  11.821  17.996  0.00  0.00    +0.000 A 
ATOM     16  C   UNL     1      -2.830  11.251  18.140  0.00  0.00    +0.000 A 
ATOM     17  N   UNL     1      -1.910  11.241  19.157  0.00  0.00    +0.000 N 
ATOM     18  H   UNL     1      -2.013  11.684  20.059  0.00  0.00    +0.000 HD
ENDBRANCH   8   9
ENDBRANCH   1   8
BRANCH   4  19
ATOM     19  O   UNL     1       2.911   5.491  20.353  0.00  0.00    +0.000 OA
BRANCH  19  20
ATOM     20  C   UNL     1       2.298   4.343  19.849  0.00  0.00    +0.000 A 
ATOM     21  N   UNL     1       1.257   3.825  20.549  0.00  0.00    +0.000 NA
ATOM     22  C   UNL     1       0.576   2.800  20.006  0.00  0.00    +0.000 A 
ATOM     23  C   UNL     1       0.861   2.274  18.766  0.00  0.00    +0.000 A 
ATOM     24  C   UNL     1       1.974   2.761  18.090  0.00  0.00    +0.000 A 
ATOM     25  C   UNL     1       2.770   3.773  18.657  0.00  0.00    +0.000 A 
BRANCH  25  26
ATOM     26  C   UNL     1       4.129   4.091  18.051  0.00  0.00    +0.000 C 
ATOM     27  C   UNL     1       3.968   5.119  16.905  0.00  0.00    +0.000 C 
ATOM     28  C   UNL     1       5.292   5.423  16.195  0.00  0.00    +0.000 C 
ATOM     29  C   UNL     1       6.363   5.854  17.197  0.00  0.00    +0.000 C 
ATOM     30  C   UNL     1       7.707   6.282  16.563  0.00  0.00    +0.000 C 
ATOM     31  C   UNL     1       7.552   7.526  17.436  0.00  0.00    +0.000 C 
ATOM     32  O   UNL     1       6.148   7.222  17.663  0.00  0.00    +0.000 OA
ATOM     33  C   UNL     1       6.508   4.886  18.376  0.00  0.00    +0.000 C 
ATOM     34  C   UNL     1       5.158   4.641  19.056  0.00  0.00    +0.000 C 
ENDBRANCH  25  26
ENDBRANCH  19  20
ENDBRANCH   4  19
TORSDOF 5
ENDMDL
MODEL 4
REMARK VINA RESULT:      -8.9      2.833     10.398
REMARK  Name = 
REMARK  5 active torsions:
REMARK  status: ('A' for Active; 'I' for Inactive)
REMARK    1  A    between atoms: C_2  and  C_3
REMARK    2  A    between atoms: C_2  and  C_25
REMARK    3  A    between atoms: C_6  and  O_7
REMARK    4  A    between atoms: O_7  and  C_8
REMARK    5  A    between atoms: C_13  and  C_14
REMARK                            x       y       z     vdW  Elec       q    Type
REMARK                         _______ _______ _______ _____ _____    ______ ____
ROOT
ATOM      1  C   UNL     1       0.923  10.002  19.147  0.00  0.00    +0.000 A 
ATOM      2  C   UNL     1       0.861   9.550  20.471  0.00  0.00    +0.000 A 
ATOM      3  C   UNL     1       1.462   8.329  20.834  0.00  0.00    +0.000 A 
ATOM      4  C   UNL     1       2.137   7.554  19.885  0.00  0.00    +0.000 A 
ATOM      5  C   UNL     1       2.275   8.057  18.586  0.00  0.00    +0.000 A 
ATOM      6  C   UNL     1       1.656   9.257  18.214  0.00  0.00    +0.000 A 
ENDROOT
BRANCH   1   8
ATOM      7  O   UNL     1       0.979  12.267  18.501  0.00  0.00    +0.000 OA
ATOM      8  C   UNL     1       0.271  11.294  18.756  0.00  0.00    +0.000 C 
BRANCH   8   9
ATOM      9  C   UNL     1      -1.176  11.319  18.628  0.00  0.00    +0.000 A 
ATOM     10  N   UNL     1      -1.840  10.894  17.567  0.00  0.00    +0.000 NA
ATOM     11  C   UNL     1      -3.152  11.218  17.795  0.00  0.00    +0.000 A 
ATOM     12  C   UNL     1      -4.267  11.044  16.959  0.00  0.00    +0.000 A 
ATOM     13  C   UNL     1      -5.506  11.538  17.383  0.00  0.00    +0.000 A 
ATOM     14  C   UNL     1      -5.630  12.181  18.617  0.00  0.00    +0.000 A 
ATOM     15  C   UNL     1      -4.532  12.330  19.480  0.00  0.00    +0.000 A 
ATOM     16  C   UNL     1      -3.303  11.837  19.031  0.00  0.00    +0.000 A 
ATOM     17  N   UNL     1      -2.045  11.804  19.576  0.00  0.00    +0.000 N 
ATOM     18  H   UNL     1      -1.777  12.160  20.482  0.00  0.00    +0.000 HD
ENDBRANCH   8   9
ENDBRANCH   1   8
BRANCH   4  19
ATOM     19  O   UNL     1       2.677   6.351  20.318  0.00  0.00    +0.000 OA
BRANCH  19  20
ATOM     20  C   UNL     1       2.134   5.162  19.827  0.00  0.00    +0.000 A 
ATOM     21  N   UNL     1       1.121   4.595  20.529  0.00  0.00    +0.000 NA
ATOM     22  C   UNL     1       0.503   3.524  19.998  0.00  0.00    +0.000 A 
ATOM     23  C   UNL     1       0.826   2.998  18.767  0.00  0.00    +0.000 A 
ATOM     24  C   UNL     1       1.914   3.538  18.090  0.00  0.00    +0.000 A 
ATOM     25  C   UNL     1       2.646   4.603  18.646  0.00  0.00    +0.000 A 
BRANCH  25  26
ATOM     26  C   UNL     1       3.988   4.991  18.043  0.00  0.00    +0.000 C 
ATOM     27  C   UNL     1       4.853   3.726  17.823  0.00  0.00    +0.000 C 
ATOM     28  C   UNL     1       6.252   4.053  17.292  0.00  0.00    +0.000 C 
ATOM     29  C   UNL     1       6.173   4.911  16.030  0.00  0.00    +0.000 C 
ATOM     30  C   UNL     1       7.535   5.208  15.361  0.00  0.00    +0.000 C 
ATOM     31  C   UNL     1       6.848   4.719  14.088  0.00  0.00    +0.000 C 
ATOM     32  O   UNL     1       5.773   4.124  14.866  0.00  0.00    +0.000 OA
ATOM     33  C   UNL     1       5.275   6.143  16.196  0.00  0.00    +0.000 C 
ATOM     34  C   UNL     1       3.886   5.748  16.706  0.00  0.00    +0.000 C 
ENDBRANCH  25  26
ENDBRANCH  19  20
ENDBRANCH   4  19
TORSDOF 5
ENDMDL
MODEL 5
REMARK VINA RESULT:      -8.9      2.936      9.988
REMARK  Name = 
REMARK  5 active torsions:
REMARK  status: ('A' for Active; 'I' for Inactive)
REMARK    1  A    between atoms: C_2  and  C_3
REMARK    2  A    between atoms: C_2  and  C_25
REMARK    3  A    between atoms: C_6  and  O_7
REMARK    4  A    between atoms: O_7  and  C_8
REMARK    5  A    between atoms: C_13  and  C_14
REMARK                            x       y       z     vdW  Elec       q    Type
REMARK                         _______ _______ _______ _____ _____    ______ ____
ROOT
ATOM      1  C   UNL     1       1.110   9.610  19.143  0.00  0.00    +0.000 A 
ATOM      2  C   UNL     1       0.964   9.131  20.451  0.00  0.00    +0.000 A 
ATOM      3  C   UNL     1       1.514   7.887  20.817  0.00  0.00    +0.000 A 
ATOM      4  C   UNL     1       2.220   7.116  19.888  0.00  0.00    +0.000 A 
ATOM      5  C   UNL     1       2.442   7.643  18.611  0.00  0.00    +0.000 A 
ATOM      6  C   UNL     1       1.875   8.867  18.234  0.00  0.00    +0.000 A 
ENDROOT
BRANCH   1   8
ATOM      7  O   UNL     1       1.261  11.869  18.492  0.00  0.00    +0.000 OA
ATOM      8  C   UNL     1       0.513  10.927  18.747  0.00  0.00    +0.000 C 
BRANCH   8   9
ATOM      9  C   UNL     1      -0.932  11.011  18.615  0.00  0.00    +0.000 A 
ATOM     10  N   UNL     1      -1.619  10.521  17.599  0.00  0.00    +0.000 NA
ATOM     11  C   UNL     1      -2.912  10.929  17.793  0.00  0.00    +0.000 A 
ATOM     12  C   UNL     1      -4.038  10.731  16.975  0.00  0.00    +0.000 A 
ATOM     13  C   UNL     1      -5.249  11.324  17.348  0.00  0.00    +0.000 A 
ATOM     14  C   UNL     1      -5.338  12.087  18.515  0.00  0.00    +0.000 A 
ATOM     15  C   UNL     1      -4.230  12.264  19.361  0.00  0.00    +0.000 A 
ATOM     16  C   UNL     1      -3.030  11.670  18.964  0.00  0.00    +0.000 A 
ATOM     17  N   UNL     1      -1.772  11.627  19.512  0.00  0.00    +0.000 N 
ATOM     18  H   UNL     1      -1.485  12.054  20.380  0.00  0.00    +0.000 HD
ENDBRANCH   8   9
ENDBRANCH   1   8
BRANCH   4  19
ATOM     19  O   UNL     1       2.706   5.890  20.322  0.00  0.00    +0.000 OA
BRANCH  19  20
ATOM     20  C   UNL     1       2.107   4.726  19.835  0.00  0.00    +0.000 A 
ATOM     21  N   UNL     1       1.001   4.270  20.474  0.00  0.00    +0.000 NA
ATOM     22  C   UNL     1       0.342   3.229  19.936  0.00  0.00    +0.000 A 
ATOM     23  C   UNL     1       0.714   2.625  18.755  0.00  0.00    +0.000 A 
ATOM     24  C   UNL     1       1.890   3.050  18.147  0.00  0.00    +0.000 A 
ATOM     25  C   UNL     1       2.661   4.078  18.719  0.00  0.00    +0.000 A 
BRANCH  25  26
ATOM     26  C   UNL     1       4.073   4.334  18.211  0.00  0.00    +0.000 C 
ATOM     27  C   UNL     1       4.023   5.208  16.935  0.00  0.00    +0.000 C 
ATOM     28  C   UNL     1       5.409   5.437  16.322  0.00  0.00    +0.000 C 
ATOM     29  C   UNL     1       6.379   6.003  17.359  0.00  0.00    +0.000 C 
ATOM     30  C   UNL     1       7.778   6.364  16.808  0.00  0.00    +0.000 C 
ATOM     31  C   UNL     1       7.540   7.705  17.498  0.00  0.00    +0.000 C 
ATOM     32  O   UNL     1       6.121   7.415  17.626  0.00  0.00    +0.000 OA
ATOM     33  C   UNL     1       6.409   5.192  18.659  0.00  0.00    +0.000 C 
ATOM     34  C   UNL     1       5.000   5.019  19.233  0.00  0.00    +0.000 C 
ENDBRANCH  25  26
ENDBRANCH  19  20
ENDBRANCH   4  19
TORSDOF 5
ENDMDL
MODEL 6
REMARK VINA RESULT:      -8.9      3.060     10.103
REMARK  Name = 
REMARK  5 active torsions:
REMARK  status: ('A' for Active; 'I' for Inactive)
REMARK    1  A    between atoms: C_2  and  C_3
REMARK    2  A    between atoms: C_2  and  C_25
REMARK    3  A    between atoms: C_6  and  O_7
REMARK    4  A    between atoms: O_7  and  C_8
REMARK    5  A    between atoms: C_13  and  C_14
REMARK                            x       y       z     vdW  Elec       q    Type
REMARK                         _______ _______ _______ _____ _____    ______ ____
ROOT
ATOM      1  C   UNL     1       0.770   9.700  19.968  0.00  0.00    +0.000 A 
ATOM      2  C   UNL     1       0.728   9.014  21.188  0.00  0.00    +0.000 A 
ATOM      3  C   UNL     1       1.392   7.781  21.332  0.00  0.00    +0.000 A 
ATOM      4  C   UNL     1       2.111   7.226  20.268  0.00  0.00    +0.000 A 
ATOM      5  C   UNL     1       2.226   7.962  19.083  0.00  0.00    +0.000 A 
ATOM      6  C   UNL     1       1.545   9.175  18.925  0.00  0.00    +0.000 A 
ENDROOT
BRANCH   1   8
ATOM      7  O   UNL     1       0.415  11.974  20.474  0.00  0.00    +0.000 OA
ATOM      8  C   UNL     1       0.051  11.006  19.807  0.00  0.00    +0.000 C 
BRANCH   8   9
ATOM      9  C   UNL     1      -1.006  11.087  18.813  0.00  0.00    +0.000 A 
ATOM     10  N   UNL     1      -2.209  11.583  19.042  0.00  0.00    +0.000 NA
ATOM     11  C   UNL     1      -2.930  11.349  17.900  0.00  0.00    +0.000 A 
ATOM     12  C   UNL     1      -4.282  11.623  17.633  0.00  0.00    +0.000 A 
ATOM     13  C   UNL     1      -4.820  11.209  16.410  0.00  0.00    +0.000 A 
ATOM     14  C   UNL     1      -4.025  10.548  15.470  0.00  0.00    +0.000 A 
ATOM     15  C   UNL     1      -2.663  10.300  15.708  0.00  0.00    +0.000 A 
ATOM     16  C   UNL     1      -2.150  10.714  16.940  0.00  0.00    +0.000 A 
ATOM     17  N   UNL     1      -0.907  10.644  17.516  0.00  0.00    +0.000 N 
ATOM     18  H   UNL     1      -0.077  10.249  17.098  0.00  0.00    +0.000 HD
ENDBRANCH   8   9
ENDBRANCH   1   8
BRANCH   4  19
ATOM     19  O   UNL     1       2.713   5.994  20.484  0.00  0.00    +0.000 OA
BRANCH  19  20
ATOM     20  C   UNL     1       2.144   4.862  19.898  0.00  0.00    +0.000 A 
ATOM     21  N   UNL     1       1.148   4.236  20.573  0.00  0.00    +0.000 NA
ATOM     22  C   UNL     1       0.504   3.226  19.960  0.00  0.00    +0.000 A 
ATOM     23  C   UNL     1       0.783   2.820  18.674  0.00  0.00    +0.000 A 
ATOM     24  C   UNL     1       1.855   3.416  18.019  0.00  0.00    +0.000 A 
ATOM     25  C   UNL     1       2.614   4.417  18.652  0.00  0.00    +0.000 A 
BRANCH  25  26
ATOM     26  C   UNL     1       3.941   4.853  18.047  0.00  0.00    +0.000 C 
ATOM     27  C   UNL     1       4.830   3.615  17.778  0.00  0.00    +0.000 C 
ATOM     28  C   UNL     1       6.216   3.990  17.244  0.00  0.00    +0.000 C 
ATOM     29  C   UNL     1       6.103   4.884  16.009  0.00  0.00    +0.000 C 
ATOM     30  C   UNL     1       7.451   5.231  15.336  0.00  0.00    +0.000 C 
ATOM     31  C   UNL     1       6.760   4.767  14.055  0.00  0.00    +0.000 C 
ATOM     32  O   UNL     1       5.708   4.124  14.826  0.00  0.00    +0.000 OA
ATOM     33  C   UNL     1       5.181   6.090  16.224  0.00  0.00    +0.000 C 
ATOM     34  C   UNL     1       3.807   5.649  16.735  0.00  0.00    +0.000 C 
ENDBRANCH  25  26
ENDBRANCH  19  20
ENDBRANCH   4  19
TORSDOF 5
ENDMDL
MODEL 7
REMARK VINA RESULT:      -8.9      2.872     10.257
REMARK  Name = 
REMARK  5 active torsions:
REMARK  status: ('A' for Active; 'I' for Inactive)
REMARK    1  A    between atoms: C_2  and  C_3
REMARK    2  A    between atoms: C_2  and  C_25
REMARK    3  A    between atoms: C_6  and  O_7
REMARK    4  A    between atoms: O_7  and  C_8
REMARK    5  A    between atoms: C_13  and  C_14
REMARK                            x       y       z     vdW  Elec       q    Type
REMARK                         _______ _______ _______ _____ _____    ______ ____
ROOT
ATOM      1  C   UNL     1       0.265  10.017  18.915  0.00  0.00    +0.000 A 
ATOM      2  C   UNL     1       0.392   9.634  20.256  0.00  0.00    +0.000 A 
ATOM      3  C   UNL     1       1.249   8.576  20.614  0.00  0.00    +0.000 A 
ATOM      4  C   UNL     1       1.994   7.898  19.642  0.00  0.00    +0.000 A 
ATOM      5  C   UNL     1       1.933   8.348  18.319  0.00  0.00    +0.000 A 
ATOM      6  C   UNL     1       1.061   9.381  17.953  0.00  0.00    +0.000 A 
ENDROOT
BRANCH   1   8
ATOM      7  O   UNL     1      -1.830  10.873  18.259  0.00  0.00    +0.000 OA
ATOM      8  C   UNL     1      -0.659  11.133  18.529  0.00  0.00    +0.000 C 
BRANCH   8   9
ATOM      9  C   UNL     1      -0.141  12.491  18.559  0.00  0.00    +0.000 A 
ATOM     10  N   UNL     1       1.143  12.800  18.615  0.00  0.00    +0.000 NA
ATOM     11  C   UNL     1       1.191  14.161  18.763  0.00  0.00    +0.000 A 
ATOM     12  C   UNL     1       2.308  14.996  18.931  0.00  0.00    +0.000 A 
ATOM     13  C   UNL     1       2.096  16.362  19.150  0.00  0.00    +0.000 A 
ATOM     14  C   UNL     1       0.800  16.883  19.189  0.00  0.00    +0.000 A 
ATOM     15  C   UNL     1      -0.325  16.067  18.986  0.00  0.00    +0.000 A 
ATOM     16  C   UNL     1      -0.089  14.706  18.778  0.00  0.00    +0.000 A 
ATOM     17  N   UNL     1      -0.910  13.630  18.554  0.00  0.00    +0.000 N 
ATOM     18  H   UNL     1      -1.917  13.651  18.490  0.00  0.00    +0.000 HD
ENDBRANCH   8   9
ENDBRANCH   1   8
BRANCH   4  19
ATOM     19  O   UNL     1       2.794   6.849  20.075  0.00  0.00    +0.000 OA
BRANCH  19  20
ATOM     20  C   UNL     1       2.349   5.542  19.867  0.00  0.00    +0.000 A 
ATOM     21  N   UNL     1       1.413   5.052  20.718  0.00  0.00    +0.000 NA
ATOM     22  C   UNL     1       0.882   3.845  20.449  0.00  0.00    +0.000 A 
ATOM     23  C   UNL     1       1.217   3.101  19.339  0.00  0.00    +0.000 A 
ATOM     24  C   UNL     1       2.230   3.577  18.514  0.00  0.00    +0.000 A 
ATOM     25  C   UNL     1       2.876   4.793  18.804  0.00  0.00    +0.000 A 
BRANCH  25  26
ATOM     26  C   UNL     1       4.159   5.157  18.070  0.00  0.00    +0.000 C 
ATOM     27  C   UNL     1       5.064   3.909  17.939  0.00  0.00    +0.000 C 
ATOM     28  C   UNL     1       6.412   4.224  17.282  0.00  0.00    +0.000 C 
ATOM     29  C   UNL     1       6.214   4.923  15.937  0.00  0.00    +0.000 C 
ATOM     30  C   UNL     1       7.517   5.190  15.148  0.00  0.00    +0.000 C 
ATOM     31  C   UNL     1       6.774   4.529  13.989  0.00  0.00    +0.000 C 
ATOM     32  O   UNL     1       5.779   3.989  14.901  0.00  0.00    +0.000 OA
ATOM     33  C   UNL     1       5.274   6.131  16.021  0.00  0.00    +0.000 C 
ATOM     34  C   UNL     1       3.939   5.747  16.665  0.00  0.00    +0.000 C 
ENDBRANCH  25  26
ENDBRANCH  19  20
ENDBRANCH   4  19
TORSDOF 5
ENDMDL
MODEL 8
REMARK VINA RESULT:      -8.8      1.609      2.379
REMARK  Name = 
REMARK  5 active torsions:
REMARK  status: ('A' for Active; 'I' for Inactive)
REMARK    1  A    between atoms: C_2  and  C_3
REMARK    2  A    between atoms: C_2  and  C_25
REMARK    3  A    between atoms: C_6  and  O_7
REMARK    4  A    between atoms: O_7  and  C_8
REMARK    5  A    between atoms: C_13  and  C_14
REMARK                            x       y       z     vdW  Elec       q    Type
REMARK                         _______ _______ _______ _____ _____    ______ ____
ROOT
ATOM      1  C   UNL     1       2.089   7.114  19.740  0.00  0.00    +0.000 A 
ATOM      2  C   UNL     1       2.298   7.783  18.528  0.00  0.00    +0.000 A 
ATOM      3  C   UNL     1       1.754   9.065  18.321  0.00  0.00    +0.000 A 
ATOM      4  C   UNL     1       1.006   9.694  19.323  0.00  0.00    +0.000 A 
ATOM      5  C   UNL     1       0.881   9.060  20.563  0.00  0.00    +0.000 A 
ATOM      6  C   UNL     1       1.397   7.773  20.764  0.00  0.00    +0.000 A 
ENDROOT
BRANCH   1   8
ATOM      7  O   UNL     1       2.166   5.025  20.827  0.00  0.00    +0.000 OA
ATOM      8  C   UNL     1       2.655   5.742  19.956  0.00  0.00    +0.000 C 
BRANCH   8   9
ATOM      9  C   UNL     1       3.718   5.294  19.073  0.00  0.00    +0.000 A 
ATOM     10  N   UNL     1       5.008   5.408  19.338  0.00  0.00    +0.000 NA
ATOM     11  C   UNL     1       5.658   4.996  18.205  0.00  0.00    +0.000 A 
ATOM     12  C   UNL     1       7.036   4.974  17.931  0.00  0.00    +0.000 A 
ATOM     13  C   UNL     1       7.459   4.584  16.655  0.00  0.00    +0.000 A 
ATOM     14  C   UNL     1       6.530   4.216  15.680  0.00  0.00    +0.000 A 
ATOM     15  C   UNL     1       5.151   4.198  15.950  0.00  0.00    +0.000 A 
ATOM     16  C   UNL     1       4.752   4.599  17.227  0.00  0.00    +0.000 A 
ATOM     17  N   UNL     1       3.530   4.712  17.842  0.00  0.00    +0.000 N 
ATOM     18  H   UNL     1       2.634   4.497  17.431  0.00  0.00    +0.000 HD
ENDBRANCH   8   9
ENDBRANCH   1   8
BRANCH   4  19
ATOM     19  O   UNL     1       0.482  10.946  19.030  0.00  0.00    +0.000 OA
BRANCH  19  20
ATOM     20  C   UNL     1      -0.842  11.028  18.591  0.00  0.00    +0.000 A 
ATOM     21  N   UNL     1      -1.138  10.495  17.379  0.00  0.00    +0.000 NA
ATOM     22  C   UNL     1      -2.429  10.450  17.005  0.00  0.00    +0.000 A 
ATOM     23  C   UNL     1      -3.464  10.887  17.803  0.00  0.00    +0.000 A 
ATOM     24  C   UNL     1      -3.145  11.499  19.010  0.00  0.00    +0.000 A 
ATOM     25  C   UNL     1      -1.803  11.648  19.404  0.00  0.00    +0.000 A 
BRANCH  25  26
ATOM     26  C   UNL     1      -1.457  12.563  20.570  0.00  0.00    +0.000 C 
ATOM     27  C   UNL     1      -2.364  13.816  20.544  0.00  0.00    +0.000 C 
ATOM     28  C   UNL     1      -2.013  14.821  21.646  0.00  0.00    +0.000 C 
ATOM     29  C   UNL     1      -2.015  14.150  23.019  0.00  0.00    +0.000 C 
ATOM     30  C   UNL     1      -1.772  15.107  24.209  0.00  0.00    +0.000 C 
ATOM     31  C   UNL     1      -3.024  14.457  24.795  0.00  0.00    +0.000 C 
ATOM     32  O   UNL     1      -3.372  13.901  23.497  0.00  0.00    +0.000 OA
ATOM     33  C   UNL     1      -1.171  12.870  23.064  0.00  0.00    +0.000 C 
ATOM     34  C   UNL     1      -1.585  11.899  21.954  0.00  0.00    +0.000 C 
ENDBRANCH  25  26
ENDBRANCH  19  20
ENDBRANCH   4  19
TORSDOF 5
ENDMDL
MODEL 9
REMARK VINA RESULT:      -8.8      3.170      9.267
REMARK  Name = 
REMARK  5 active torsions:
REMARK  status: ('A' for Active; 'I' for Inactive)
REMARK    1  A    between atoms: C_2  and  C_3
REMARK    2  A    between atoms: C_2  and  C_25
REMARK    3  A    between atoms: C_6  and  O_7
REMARK    4  A    between atoms: O_7  and  C_8
REMARK    5  A    between atoms: C_13  and  C_14
REMARK                            x       y       z     vdW  Elec       q    Type
REMARK                         _______ _______ _______ _____ _____    ______ ____
ROOT
ATOM      1  C   UNL     1       1.529   9.182  19.009  0.00  0.00    +0.000 A 
ATOM      2  C   UNL     1       2.169   9.546  17.818  0.00  0.00    +0.000 A 
ATOM      3  C   UNL     1       3.057   8.653  17.188  0.00  0.00    +0.000 A 
ATOM      4  C   UNL     1       3.307   7.389  17.734  0.00  0.00    +0.000 A 
ATOM      5  C   UNL     1       2.593   6.998  18.872  0.00  0.00    +0.000 A 
ATOM      6  C   UNL     1       1.730   7.892  19.517  0.00  0.00    +0.000 A 
ENDROOT
BRANCH   1   8
ATOM      7  O   UNL     1       0.889  10.571  20.802  0.00  0.00    +0.000 OA
ATOM      8  C   UNL     1       0.594  10.137  19.689  0.00  0.00    +0.000 C 
BRANCH   8   9
ATOM      9  C   UNL     1      -0.593  10.563  18.968  0.00  0.00    +0.000 A 
ATOM     10  N   UNL     1      -1.620  11.184  19.521  0.00  0.00    +0.000 NA
ATOM     11  C   UNL     1      -2.570  11.280  18.537  0.00  0.00    +0.000 A 
ATOM     12  C   UNL     1      -3.873  11.801  18.610  0.00  0.00    +0.000 A 
ATOM     13  C   UNL     1      -4.694  11.711  17.480  0.00  0.00    +0.000 A 
ATOM     14  C   UNL     1      -4.222  11.124  16.304  0.00  0.00    +0.000 A 
ATOM     15  C   UNL     1      -2.910  10.632  16.205  0.00  0.00    +0.000 A 
ATOM     16  C   UNL     1      -2.112  10.725  17.348  0.00  0.00    +0.000 A 
ATOM     17  N   UNL     1      -0.819  10.361  17.627  0.00  0.00    +0.000 N 
ATOM     18  H   UNL     1      -0.169   9.929  16.987  0.00  0.00    +0.000 HD
ENDBRANCH   8   9
ENDBRANCH   1   8
BRANCH   4  19
ATOM     19  O   UNL     1       4.217   6.580  17.067  0.00  0.00    +0.000 OA
BRANCH  19  20
ATOM     20  C   UNL     1       5.533   6.533  17.531  0.00  0.00    +0.000 A 
ATOM     21  N   UNL     1       6.402   7.462  17.059  0.00  0.00    +0.000 NA
ATOM     22  C   UNL     1       7.634   7.509  17.596  0.00  0.00    +0.000 A 
ATOM     23  C   UNL     1       8.044   6.686  18.621  0.00  0.00    +0.000 A 
ATOM     24  C   UNL     1       7.174   5.689  19.047  0.00  0.00    +0.000 A 
ATOM     25  C   UNL     1       5.906   5.544  18.454  0.00  0.00    +0.000 A 
BRANCH  25  26
ATOM     26  C   UNL     1       5.088   4.289  18.723  0.00  0.00    +0.000 C 
ATOM     27  C   UNL     1       4.143   4.523  19.926  0.00  0.00    +0.000 C 
ATOM     28  C   UNL     1       3.347   3.270  20.303  0.00  0.00    +0.000 C 
ATOM     29  C   UNL     1       2.595   2.715  19.093  0.00  0.00    +0.000 C 
ATOM     30  C   UNL     1       1.679   1.507  19.398  0.00  0.00    +0.000 C 
ATOM     31  C   UNL     1       0.616   2.317  18.659  0.00  0.00    +0.000 C 
ATOM     32  O   UNL     1       1.422   3.522  18.769  0.00  0.00    +0.000 OA
ATOM     33  C   UNL     1       3.492   2.526  17.864  0.00  0.00    +0.000 C 
ATOM     34  C   UNL     1       4.241   3.818  17.525  0.00  0.00    +0.000 C 
ENDBRANCH  25  26
ENDBRANCH  19  20
ENDBRANCH   4  19
TORSDOF 5
ENDMDL
