MODEL 1
REMARK VINA RESULT:      -8.1      0.000      0.000
REMARK  Name = 
REMARK  12 active torsions:
REMARK  status: ('A' for Active; 'I' for Inactive)
REMARK    1  A    between atoms: C_1  and  C_2
REMARK    2  A    between atoms: C_2  and  N_3
REMARK    3  A    between atoms: C_7  and  C_8
REMARK    4  A    between atoms: C_11  and  C_12
REMARK    5  A    between atoms: C_12  and  C_13
REMARK    6  A    between atoms: C_12  and  C_14
REMARK    7  A    between atoms: C_12  and  C_30
REMARK    8  A    between atoms: C_17  and  C_18
REMARK    9  A    between atoms: N_21  and  C_22
REMARK   10  A    between atoms: C_22  and  C_23
REMARK   11  A    between atoms: N_25  and  C_26
REMARK   12  A    between atoms: N_25  and  C_27
REMARK                            x       y       z     vdW  Elec       q    Type
REMARK                         _______ _______ _______ _____ _____    ______ ____
ROOT
ATOM      1  C   UNL     1      -0.106  10.950  19.862  0.00  0.00    +0.000 C 
ATOM      2  C   UNL     1      -0.936  10.526  21.106  0.00  0.00    +0.000 C 
ENDROOT
BRANCH   1   6
ATOM      3  C   UNL     1       2.489   7.644  18.437  0.00  0.00    +0.000 A 
ATOM      4  C   UNL     1       2.029   7.680  19.761  0.00  0.00    +0.000 A 
ATOM      5  C   UNL     1       1.195   8.719  20.227  0.00  0.00    +0.000 A 
ATOM      6  C   UNL     1       0.784   9.766  19.385  0.00  0.00    +0.000 A 
ATOM      7  C   UNL     1       1.195   9.677  18.040  0.00  0.00    +0.000 A 
ATOM      8  C   UNL     1       2.033   8.653  17.582  0.00  0.00    +0.000 A 
BRANCH   3  13
ATOM      9  N   UNL     1       5.925   3.693  16.397  0.00  0.00    +0.000 N 
ATOM     10  C   UNL     1       5.098   4.690  16.904  0.00  0.00    +0.000 A 
ATOM     11  N   UNL     1       3.997   4.287  17.549  0.00  0.00    +0.000 NA
ATOM     12  C   UNL     1       3.164   5.248  18.015  0.00  0.00    +0.000 A 
ATOM     13  C   UNL     1       3.404   6.604  17.935  0.00  0.00    +0.000 A 
ATOM     14  C   UNL     1       4.605   6.892  17.308  0.00  0.00    +0.000 A 
ATOM     15  N   UNL     1       5.443   5.976  16.778  0.00  0.00    +0.000 NA
ATOM     16  H   UNL     1       6.429   3.331  17.200  0.00  0.00    +0.000 HD
BRANCH   9  18
ATOM     17  C   UNL     1       6.081   3.967  13.991  0.00  0.00    +0.000 C 
ATOM     18  C   UNL     1       6.800   4.127  15.322  0.00  0.00    +0.000 C 
ENDBRANCH   9  18
ENDBRANCH   3  13
ENDBRANCH   1   6
BRANCH   1  19
ATOM     19  C   UNL     1       0.915  12.026  20.222  0.00  0.00    +0.000 A 
ATOM     20  N   UNL     1       1.446  12.166  21.447  0.00  0.00    +0.000 NA
ATOM     21  O   UNL     1       2.253  13.295  21.326  0.00  0.00    +0.000 OA
ATOM     22  C   UNL     1       2.124  13.747  20.039  0.00  0.00    +0.000 A 
ATOM     23  N   UNL     1       1.296  13.010  19.331  0.00  0.00    +0.000 NA
BRANCH  22  24
ATOM     24  C   UNL     1       2.839  14.926  19.505  0.00  0.00    +0.000 A 
ATOM     25  C   UNL     1       2.311  16.151  19.071  0.00  0.00    +0.000 A 
ATOM     26  N   UNL     1       3.263  16.995  18.657  0.00  0.00    +0.000 NA
ATOM     27  N   UNL     1       4.399  16.268  18.769  0.00  0.00    +0.000 N 
ATOM     28  C   UNL     1       4.198  15.042  19.338  0.00  0.00    +0.000 A 
BRANCH  27  29
ATOM     29  C   UNL     1       5.681  16.866  18.422  0.00  0.00    +0.000 C 
BRANCH  29  30
ATOM     30  C   UNL     1       6.610  17.005  19.618  0.00  0.00    +0.000 C 
ATOM     31  O   UNL     1       6.381  17.794  20.533  0.00  0.00    +0.000 OA
ATOM     32  N   UNL     1       7.757  16.205  19.626  0.00  0.00    +0.000 N 
ATOM     33  C   UNL     1       8.119  15.239  18.600  0.00  0.00    +0.000 C 
ATOM     34  C   UNL     1       8.645  16.267  20.777  0.00  0.00    +0.000 C 
ENDBRANCH  29  30
ENDBRANCH  27  29
ENDBRANCH  22  24
ENDBRANCH   1  19
BRANCH   1  35
ATOM     35  C   UNL     1      -1.046  11.472  18.744  0.00  0.00    +0.000 C 
ATOM     36  C   UNL     1      -2.218  10.709  18.163  0.00  0.00    +0.000 C 
ATOM     37  C   UNL     1      -2.477  11.909  19.025  0.00  0.00    +0.000 C 
ENDBRANCH   1  35
TORSDOF 8
ENDMDL
MODEL 2
REMARK VINA RESULT:      -8.0      1.088      1.498
REMARK  Name = 
REMARK  12 active torsions:
REMARK  status: ('A' for Active; 'I' for Inactive)
REMARK    1  A    between atoms: C_1  and  C_2
REMARK    2  A    between atoms: C_2  and  N_3
REMARK    3  A    between atoms: C_7  and  C_8
REMARK    4  A    between atoms: C_11  and  C_12
REMARK    5  A    between atoms: C_12  and  C_13
REMARK    6  A    between atoms: C_12  and  C_14
REMARK    7  A    between atoms: C_12  and  C_30
REMARK    8  A    between atoms: C_17  and  C_18
REMARK    9  A    between atoms: N_21  and  C_22
REMARK   10  A    between atoms: C_22  and  C_23
REMARK   11  A    between atoms: N_25  and  C_26
REMARK   12  A    between atoms: N_25  and  C_27
REMARK                            x       y       z     vdW  Elec       q    Type
REMARK                         _______ _______ _______ _____ _____    ______ ____
ROOT
ATOM      1  C   UNL     1      -0.117  10.999  20.000  0.00  0.00    +0.000 C 
ATOM      2  C   UNL     1      -0.924  10.436  21.202  0.00  0.00    +0.000 C 
ENDROOT
BRANCH   1   6
ATOM      3  C   UNL     1       2.513   7.792  18.421  0.00  0.00    +0.000 A 
ATOM      4  C   UNL     1       2.158   8.890  17.625  0.00  0.00    +0.000 A 
ATOM      5  C   UNL     1       1.331   9.923  18.116  0.00  0.00    +0.000 A 
ATOM      6  C   UNL     1       0.825   9.900  19.426  0.00  0.00    +0.000 A 
ATOM      7  C   UNL     1       1.250   8.828  20.236  0.00  0.00    +0.000 A 
ATOM      8  C   UNL     1       2.060   7.798  19.745  0.00  0.00    +0.000 A 
BRANCH   3  13
ATOM      9  N   UNL     1       5.591   3.550  16.391  0.00  0.00    +0.000 N 
ATOM     10  C   UNL     1       4.854   4.615  16.899  0.00  0.00    +0.000 A 
ATOM     11  N   UNL     1       3.657   4.324  17.421  0.00  0.00    +0.000 NA
ATOM     12  C   UNL     1       2.914   5.356  17.885  0.00  0.00    +0.000 A 
ATOM     13  C   UNL     1       3.330   6.671  17.922  0.00  0.00    +0.000 A 
ATOM     14  C   UNL     1       4.610   6.835  17.418  0.00  0.00    +0.000 A 
ATOM     15  N   UNL     1       5.370   5.849  16.895  0.00  0.00    +0.000 NA
ATOM     16  H   UNL     1       5.970   3.076  17.205  0.00  0.00    +0.000 HD
BRANCH   9  18
ATOM     17  C   UNL     1       6.010   3.900  14.028  0.00  0.00    +0.000 C 
ATOM     18  C   UNL     1       6.608   3.929  15.426  0.00  0.00    +0.000 C 
ENDBRANCH   9  18
ENDBRANCH   3  13
ENDBRANCH   1   6
BRANCH   1  19
ATOM     19  C   UNL     1       0.857  12.086  20.450  0.00  0.00    +0.000 A 
ATOM     20  N   UNL     1       0.783  12.701  21.641  0.00  0.00    +0.000 NA
ATOM     21  O   UNL     1       1.807  13.645  21.584  0.00  0.00    +0.000 OA
ATOM     22  C   UNL     1       2.398  13.525  20.354  0.00  0.00    +0.000 A 
ATOM     23  N   UNL     1       1.833  12.594  19.617  0.00  0.00    +0.000 NA
BRANCH  22  24
ATOM     24  C   UNL     1       3.544  14.345  19.909  0.00  0.00    +0.000 A 
ATOM     25  C   UNL     1       3.759  14.950  18.661  0.00  0.00    +0.000 A 
ATOM     26  N   UNL     1       4.911  15.629  18.619  0.00  0.00    +0.000 NA
ATOM     27  N   UNL     1       5.460  15.395  19.834  0.00  0.00    +0.000 N 
ATOM     28  C   UNL     1       4.641  14.684  20.665  0.00  0.00    +0.000 A 
BRANCH  27  29
ATOM     29  C   UNL     1       6.740  15.997  20.181  0.00  0.00    +0.000 C 
BRANCH  29  30
ATOM     30  C   UNL     1       7.894  15.008  20.111  0.00  0.00    +0.000 C 
ATOM     31  O   UNL     1       8.118  14.202  21.013  0.00  0.00    +0.000 OA
ATOM     32  N   UNL     1       8.710  15.066  18.977  0.00  0.00    +0.000 N 
ATOM     33  C   UNL     1       8.531  15.974  17.855  0.00  0.00    +0.000 C 
ATOM     34  C   UNL     1       9.792  14.102  18.844  0.00  0.00    +0.000 C 
ENDBRANCH  29  30
ENDBRANCH  27  29
ENDBRANCH  22  24
ENDBRANCH   1  19
BRANCH   1  35
ATOM     35  C   UNL     1      -1.081  11.571  18.929  0.00  0.00    +0.000 C 
ATOM     36  C   UNL     1      -2.280  10.842  18.356  0.00  0.00    +0.000 C 
ATOM     37  C   UNL     1      -2.498  12.015  19.266  0.00  0.00    +0.000 C 
ENDBRANCH   1  35
TORSDOF 8
ENDMDL
MODEL 3
REMARK VINA RESULT:      -7.9      4.330      7.422
REMARK  Name = 
REMARK  12 active torsions:
REMARK  status: ('A' for Active; 'I' for Inactive)
REMARK    1  A    between atoms: C_1  and  C_2
REMARK    2  A    between atoms: C_2  and  N_3
REMARK    3  A    between atoms: C_7  and  C_8
REMARK    4  A    between atoms: C_11  and  C_12
REMARK    5  A    between atoms: C_12  and  C_13
REMARK    6  A    between atoms: C_12  and  C_14
REMARK    7  A    between atoms: C_12  and  C_30
REMARK    8  A    between atoms: C_17  and  C_18
REMARK    9  A    between atoms: N_21  and  C_22
REMARK   10  A    between atoms: C_22  and  C_23
REMARK   11  A    between atoms: N_25  and  C_26
REMARK   12  A    between atoms: N_25  and  C_27
REMARK                            x       y       z     vdW  Elec       q    Type
REMARK                         _______ _______ _______ _____ _____    ______ ____
ROOT
ATOM      1  C   UNL     1       0.177  10.525  20.572  0.00  0.00    +0.000 C 
ATOM      2  C   UNL     1       1.116  11.681  21.018  0.00  0.00    +0.000 C 
ENDROOT
BRANCH   1   6
ATOM      3  C   UNL     1       2.595   7.385  18.575  0.00  0.00    +0.000 A 
ATOM      4  C   UNL     1       2.127   7.210  19.885  0.00  0.00    +0.000 A 
ATOM      5  C   UNL     1       1.348   8.196  20.530  0.00  0.00    +0.000 A 
ATOM      6  C   UNL     1       1.004   9.397  19.889  0.00  0.00    +0.000 A 
ATOM      7  C   UNL     1       1.419   9.526  18.549  0.00  0.00    +0.000 A 
ATOM      8  C   UNL     1       2.202   8.554  17.914  0.00  0.00    +0.000 A 
BRANCH   3  13
ATOM      9  N   UNL     1       5.803   3.656  15.858  0.00  0.00    +0.000 N 
ATOM     10  C   UNL     1       5.032   4.598  16.532  0.00  0.00    +0.000 A 
ATOM     11  N   UNL     1       4.014   4.130  17.263  0.00  0.00    +0.000 NA
ATOM     12  C   UNL     1       3.233   5.038  17.894  0.00  0.00    +0.000 A 
ATOM     13  C   UNL     1       3.453   6.401  17.893  0.00  0.00    +0.000 A 
ATOM     14  C   UNL     1       4.573   6.754  17.160  0.00  0.00    +0.000 A 
ATOM     15  N   UNL     1       5.352   5.895  16.469  0.00  0.00    +0.000 NA
ATOM     16  H   UNL     1       6.398   3.241  16.569  0.00  0.00    +0.000 HD
BRANCH   9  18
ATOM     17  C   UNL     1       5.831   3.821  13.438  0.00  0.00    +0.000 C 
ATOM     18  C   UNL     1       6.548   4.185  14.729  0.00  0.00    +0.000 C 
ENDBRANCH   9  18
ENDBRANCH   3  13
ENDBRANCH   1   6
BRANCH   1  19
ATOM     19  C   UNL     1      -0.767  10.980  19.461  0.00  0.00    +0.000 A 
ATOM     20  N   UNL     1      -0.346  11.471  18.284  0.00  0.00    +0.000 NA
ATOM     21  O   UNL     1      -1.529  11.811  17.631  0.00  0.00    +0.000 OA
ATOM     22  C   UNL     1      -2.560  11.509  18.481  0.00  0.00    +0.000 A 
ATOM     23  N   UNL     1      -2.137  11.016  19.625  0.00  0.00    +0.000 NA
BRANCH  22  24
ATOM     24  C   UNL     1      -3.987  11.710  18.149  0.00  0.00    +0.000 A 
ATOM     25  C   UNL     1      -4.604  11.709  16.889  0.00  0.00    +0.000 A 
ATOM     26  N   UNL     1      -5.923  11.915  16.972  0.00  0.00    +0.000 NA
ATOM     27  N   UNL     1      -6.130  12.114  18.295  0.00  0.00    +0.000 N 
ATOM     28  C   UNL     1      -5.004  11.933  19.047  0.00  0.00    +0.000 A 
BRANCH  27  29
ATOM     29  C   UNL     1      -7.477  12.357  18.791  0.00  0.00    +0.000 C 
BRANCH  29  30
ATOM     30  C   UNL     1      -7.503  13.288  19.994  0.00  0.00    +0.000 C 
ATOM     31  O   UNL     1      -7.629  12.867  21.142  0.00  0.00    +0.000 OA
ATOM     32  N   UNL     1      -7.395  14.658  19.736  0.00  0.00    +0.000 N 
ATOM     33  C   UNL     1      -7.239  15.259  18.421  0.00  0.00    +0.000 C 
ATOM     34  C   UNL     1      -7.361  15.581  20.861  0.00  0.00    +0.000 C 
ENDBRANCH  29  30
ENDBRANCH  27  29
ENDBRANCH  22  24
ENDBRANCH   1  19
BRANCH   1  35
ATOM     35  C   UNL     1      -0.646  10.009  21.780  0.00  0.00    +0.000 C 
ATOM     36  C   UNL     1      -0.091   9.740  23.164  0.00  0.00    +0.000 C 
ATOM     37  C   UNL     1      -1.015  10.904  22.955  0.00  0.00    +0.000 C 
ENDBRANCH   1  35
TORSDOF 8
ENDMDL
MODEL 4
REMARK VINA RESULT:      -7.8      1.043      1.444
REMARK  Name = 
REMARK  12 active torsions:
REMARK  status: ('A' for Active; 'I' for Inactive)
REMARK    1  A    between atoms: C_1  and  C_2
REMARK    2  A    between atoms: C_2  and  N_3
REMARK    3  A    between atoms: C_7  and  C_8
REMARK    4  A    between atoms: C_11  and  C_12
REMARK    5  A    between atoms: C_12  and  C_13
REMARK    6  A    between atoms: C_12  and  C_14
REMARK    7  A    between atoms: C_12  and  C_30
REMARK    8  A    between atoms: C_17  and  C_18
REMARK    9  A    between atoms: N_21  and  C_22
REMARK   10  A    between atoms: C_22  and  C_23
REMARK   11  A    between atoms: N_25  and  C_26
REMARK   12  A    between atoms: N_25  and  C_27
REMARK                            x       y       z     vdW  Elec       q    Type
REMARK                         _______ _______ _______ _____ _____    ______ ____
ROOT
ATOM      1  C   UNL     1      -0.172  11.220  19.970  0.00  0.00    +0.000 C 
ATOM      2  C   UNL     1      -0.987  10.683  21.179  0.00  0.00    +0.000 C 
ENDROOT
BRANCH   1   6
ATOM      3  C   UNL     1       2.440   7.970  18.451  0.00  0.00    +0.000 A 
ATOM      4  C   UNL     1       2.149   9.091  17.659  0.00  0.00    +0.000 A 
ATOM      5  C   UNL     1       1.329  10.138  18.132  0.00  0.00    +0.000 A 
ATOM      6  C   UNL     1       0.765  10.107  19.419  0.00  0.00    +0.000 A 
ATOM      7  C   UNL     1       1.126   9.010  20.227  0.00  0.00    +0.000 A 
ATOM      8  C   UNL     1       1.930   7.967  19.753  0.00  0.00    +0.000 A 
BRANCH   3  13
ATOM      9  N   UNL     1       5.482   3.674  16.483  0.00  0.00    +0.000 N 
ATOM     10  C   UNL     1       4.754   4.753  16.975  0.00  0.00    +0.000 A 
ATOM     11  N   UNL     1       3.573   4.475  17.539  0.00  0.00    +0.000 NA
ATOM     12  C   UNL     1       2.838   5.520  17.988  0.00  0.00    +0.000 A 
ATOM     13  C   UNL     1       3.248   6.837  17.968  0.00  0.00    +0.000 A 
ATOM     14  C   UNL     1       4.513   6.988  17.424  0.00  0.00    +0.000 A 
ATOM     15  N   UNL     1       5.263   5.988  16.913  0.00  0.00    +0.000 NA
ATOM     16  H   UNL     1       5.886   3.230  17.302  0.00  0.00    +0.000 HD
BRANCH   9  18
ATOM     17  C   UNL     1       5.858   3.863  14.094  0.00  0.00    +0.000 C 
ATOM     18  C   UNL     1       6.470   4.023  15.477  0.00  0.00    +0.000 C 
ENDBRANCH   9  18
ENDBRANCH   3  13
ENDBRANCH   1   6
BRANCH   1  19
ATOM     19  C   UNL     1       0.806  12.309  20.405  0.00  0.00    +0.000 A 
ATOM     20  N   UNL     1       0.958  12.703  21.680  0.00  0.00    +0.000 NA
ATOM     21  O   UNL     1       1.883  13.742  21.591  0.00  0.00    +0.000 OA
ATOM     22  C   UNL     1       2.195  13.893  20.265  0.00  0.00    +0.000 A 
ATOM     23  N   UNL     1       1.541  13.047  19.499  0.00  0.00    +0.000 NA
BRANCH  22  24
ATOM     24  C   UNL     1       3.161  14.889  19.755  0.00  0.00    +0.000 A 
ATOM     25  C   UNL     1       3.027  16.283  19.680  0.00  0.00    +0.000 A 
ATOM     26  N   UNL     1       4.115  16.869  19.166  0.00  0.00    +0.000 NA
ATOM     27  N   UNL     1       4.917  15.825  18.852  0.00  0.00    +0.000 N 
ATOM     28  C   UNL     1       4.411  14.620  19.250  0.00  0.00    +0.000 A 
BRANCH  27  29
ATOM     29  C   UNL     1       6.232  16.067  18.274  0.00  0.00    +0.000 C 
BRANCH  29  30
ATOM     30  C   UNL     1       7.151  14.860  18.375  0.00  0.00    +0.000 C 
ATOM     31  O   UNL     1       7.169  13.980  17.516  0.00  0.00    +0.000 OA
ATOM     32  N   UNL     1       7.971  14.781  19.505  0.00  0.00    +0.000 N 
ATOM     33  C   UNL     1       8.031  15.766  20.574  0.00  0.00    +0.000 C 
ATOM     34  C   UNL     1       8.905  13.671  19.615  0.00  0.00    +0.000 C 
ENDBRANCH  29  30
ENDBRANCH  27  29
ENDBRANCH  22  24
ENDBRANCH   1  19
BRANCH   1  35
ATOM     35  C   UNL     1      -1.129  11.780  18.886  0.00  0.00    +0.000 C 
ATOM     36  C   UNL     1      -2.128  10.959  18.096  0.00  0.00    +0.000 C 
ATOM     37  C   UNL     1      -2.625  11.933  19.123  0.00  0.00    +0.000 C 
ENDBRANCH   1  35
TORSDOF 8
ENDMDL
MODEL 5
REMARK VINA RESULT:      -7.8      1.280      1.449
REMARK  Name = 
REMARK  12 active torsions:
REMARK  status: ('A' for Active; 'I' for Inactive)
REMARK    1  A    between atoms: C_1  and  C_2
REMARK    2  A    between atoms: C_2  and  N_3
REMARK    3  A    between atoms: C_7  and  C_8
REMARK    4  A    between atoms: C_11  and  C_12
REMARK    5  A    between atoms: C_12  and  C_13
REMARK    6  A    between atoms: C_12  and  C_14
REMARK    7  A    between atoms: C_12  and  C_30
REMARK    8  A    between atoms: C_17  and  C_18
REMARK    9  A    between atoms: N_21  and  C_22
REMARK   10  A    between atoms: C_22  and  C_23
REMARK   11  A    between atoms: N_25  and  C_26
REMARK   12  A    between atoms: N_25  and  C_27
REMARK                            x       y       z     vdW  Elec       q    Type
REMARK                         _______ _______ _______ _____ _____    ______ ____
ROOT
ATOM      1  C   UNL     1       0.048  10.247  20.319  0.00  0.00    +0.000 C 
ATOM      2  C   UNL     1      -0.390   9.700  21.706  0.00  0.00    +0.000 C 
ENDROOT
BRANCH   1   6
ATOM      3  C   UNL     1       2.871   7.473  18.310  0.00  0.00    +0.000 A 
ATOM      4  C   UNL     1       2.402   7.211  19.605  0.00  0.00    +0.000 A 
ATOM      5  C   UNL     1       1.496   8.079  20.254  0.00  0.00    +0.000 A 
ATOM      6  C   UNL     1       1.020   9.245  19.631  0.00  0.00    +0.000 A 
ATOM      7  C   UNL     1       1.444   9.455  18.303  0.00  0.00    +0.000 A 
ATOM      8  C   UNL     1       2.352   8.601  17.666  0.00  0.00    +0.000 A 
BRANCH   3  13
ATOM      9  N   UNL     1       6.542   4.189  15.605  0.00  0.00    +0.000 N 
ATOM     10  C   UNL     1       5.649   5.026  16.267  0.00  0.00    +0.000 A 
ATOM     11  N   UNL     1       4.964   4.490  17.283  0.00  0.00    +0.000 NA
ATOM     12  C   UNL     1       4.065   5.284  17.913  0.00  0.00    +0.000 A 
ATOM     13  C   UNL     1       3.857   6.618  17.627  0.00  0.00    +0.000 A 
ATOM     14  C   UNL     1       4.672   7.072  16.604  0.00  0.00    +0.000 A 
ATOM     15  N   UNL     1       5.544   6.311  15.909  0.00  0.00    +0.000 NA
ATOM     16  H   UNL     1       7.347   4.120  16.218  0.00  0.00    +0.000 HD
BRANCH   9  18
ATOM     17  C   UNL     1       6.139   3.757  13.252  0.00  0.00    +0.000 C 
ATOM     18  C   UNL     1       6.884   4.618  14.259  0.00  0.00    +0.000 C 
ENDBRANCH   9  18
ENDBRANCH   3  13
ENDBRANCH   1   6
BRANCH   1  19
ATOM     19  C   UNL     1       0.900  11.506  20.467  0.00  0.00    +0.000 A 
ATOM     20  N   UNL     1       0.970  12.226  21.598  0.00  0.00    +0.000 NA
ATOM     21  O   UNL     1       1.791  13.298  21.251  0.00  0.00    +0.000 OA
ATOM     22  C   UNL     1       2.131  13.136  19.934  0.00  0.00    +0.000 A 
ATOM     23  N   UNL     1       1.589  12.060  19.407  0.00  0.00    +0.000 NA
BRANCH  22  24
ATOM     24  C   UNL     1       3.011  14.063  19.192  0.00  0.00    +0.000 A 
ATOM     25  C   UNL     1       2.901  14.505  17.865  0.00  0.00    +0.000 A 
ATOM     26  N   UNL     1       3.879  15.355  17.532  0.00  0.00    +0.000 NA
ATOM     27  N   UNL     1       4.652  15.398  18.642  0.00  0.00    +0.000 N 
ATOM     28  C   UNL     1       4.130  14.689  19.687  0.00  0.00    +0.000 A 
BRANCH  27  29
ATOM     29  C   UNL     1       5.832  16.251  18.673  0.00  0.00    +0.000 C 
BRANCH  29  30
ATOM     30  C   UNL     1       7.088  15.538  18.195  0.00  0.00    +0.000 C 
ATOM     31  O   UNL     1       7.062  14.383  17.775  0.00  0.00    +0.000 OA
ATOM     32  N   UNL     1       8.288  16.251  18.271  0.00  0.00    +0.000 N 
ATOM     33  C   UNL     1       8.429  17.619  18.746  0.00  0.00    +0.000 C 
ATOM     34  C   UNL     1       9.505  15.627  17.773  0.00  0.00    +0.000 C 
ENDBRANCH  29  30
ENDBRANCH  27  29
ENDBRANCH  22  24
ENDBRANCH   1  19
BRANCH   1  35
ATOM     35  C   UNL     1      -1.197  10.557  19.448  0.00  0.00    +0.000 C 
ATOM     36  C   UNL     1      -1.372  11.788  18.582  0.00  0.00    +0.000 C 
ATOM     37  C   UNL     1      -1.173  10.451  17.930  0.00  0.00    +0.000 C 
ENDBRANCH   1  35
TORSDOF 8
ENDMDL
MODEL 6
REMARK VINA RESULT:      -7.7      4.541     10.784
REMARK  Name = 
REMARK  12 active torsions:
REMARK  status: ('A' for Active; 'I' for Inactive)
REMARK    1  A    between atoms: C_1  and  C_2
REMARK    2  A    between atoms: C_2  and  N_3
REMARK    3  A    between atoms: C_7  and  C_8
REMARK    4  A    between atoms: C_11  and  C_12
REMARK    5  A    between atoms: C_12  and  C_13
REMARK    6  A    between atoms: C_12  and  C_14
REMARK    7  A    between atoms: C_12  and  C_30
REMARK    8  A    between atoms: C_17  and  C_18
REMARK    9  A    between atoms: N_21  and  C_22
REMARK   10  A    between atoms: C_22  and  C_23
REMARK   11  A    between atoms: N_25  and  C_26
REMARK   12  A    between atoms: N_25  and  C_27
REMARK                            x       y       z     vdW  Elec       q    Type
REMARK                         _______ _______ _______ _____ _____    ______ ____
ROOT
ATOM      1  C   UNL     1       2.430   4.563  19.059  0.00  0.00    +0.000 C 
ATOM      2  C   UNL     1       1.414   3.993  18.032  0.00  0.00    +0.000 C 
ENDROOT
BRANCH   1   6
ATOM      3  C   UNL     1       1.496   8.842  19.778  0.00  0.00    +0.000 A 
ATOM      4  C   UNL     1       1.417   7.903  20.816  0.00  0.00    +0.000 A 
ATOM      5  C   UNL     1       1.721   6.540  20.606  0.00  0.00    +0.000 A 
ATOM      6  C   UNL     1       2.118   6.061  19.346  0.00  0.00    +0.000 A 
ATOM      7  C   UNL     1       2.263   7.029  18.332  0.00  0.00    +0.000 A 
ATOM      8  C   UNL     1       1.950   8.378  18.538  0.00  0.00    +0.000 A 
BRANCH   3  13
ATOM      9  N   UNL     1      -0.013  14.215  20.435  0.00  0.00    +0.000 N 
ATOM     10  C   UNL     1       0.369  12.884  20.301  0.00  0.00    +0.000 A 
ATOM     11  N   UNL     1       0.737  12.484  19.079  0.00  0.00    +0.000 NA
ATOM     12  C   UNL     1       1.075  11.182  18.927  0.00  0.00    +0.000 A 
ATOM     13  C   UNL     1       1.135  10.260  19.951  0.00  0.00    +0.000 A 
ATOM     14  C   UNL     1       0.798  10.809  21.177  0.00  0.00    +0.000 A 
ATOM     15  N   UNL     1       0.402  12.085  21.373  0.00  0.00    +0.000 NA
ATOM     16  H   UNL     1       0.854  14.742  20.435  0.00  0.00    +0.000 HD
BRANCH   9  18
ATOM     17  C   UNL     1      -2.142  15.141  21.138  0.00  0.00    +0.000 C 
ATOM     18  C   UNL     1      -0.847  14.488  21.593  0.00  0.00    +0.000 C 
ENDBRANCH   9  18
ENDBRANCH   3  13
ENDBRANCH   1   6
BRANCH   1  19
ATOM     19  C   UNL     1       3.839   4.612  18.472  0.00  0.00    +0.000 A 
ATOM     20  N   UNL     1       4.950   4.731  19.218  0.00  0.00    +0.000 NA
ATOM     21  O   UNL     1       5.970   4.803  18.271  0.00  0.00    +0.000 OA
ATOM     22  C   UNL     1       5.381   4.737  17.036  0.00  0.00    +0.000 A 
ATOM     23  N   UNL     1       4.071   4.640  17.112  0.00  0.00    +0.000 NA
BRANCH  22  24
ATOM     24  C   UNL     1       6.132   4.766  15.763  0.00  0.00    +0.000 A 
ATOM     25  C   UNL     1       7.435   5.228  15.522  0.00  0.00    +0.000 A 
ATOM     26  N   UNL     1       7.791   5.088  14.240  0.00  0.00    +0.000 NA
ATOM     27  N   UNL     1       6.677   4.594  13.653  0.00  0.00    +0.000 N 
ATOM     28  C   UNL     1       5.677   4.321  14.544  0.00  0.00    +0.000 A 
BRANCH  27  29
ATOM     29  C   UNL     1       6.680   4.285  12.230  0.00  0.00    +0.000 C 
BRANCH  29  30
ATOM     30  C   UNL     1       5.822   3.078  11.887  0.00  0.00    +0.000 C 
ATOM     31  O   UNL     1       4.602   3.079  12.041  0.00  0.00    +0.000 OA
ATOM     32  N   UNL     1       6.486   1.947  11.401  0.00  0.00    +0.000 N 
ATOM     33  C   UNL     1       7.919   1.841  11.177  0.00  0.00    +0.000 C 
ATOM     34  C   UNL     1       5.697   0.788  11.008  0.00  0.00    +0.000 C 
ENDBRANCH  29  30
ENDBRANCH  27  29
ENDBRANCH  22  24
ENDBRANCH   1  19
BRANCH   1  35
ATOM     35  C   UNL     1       2.429   3.700  20.348  0.00  0.00    +0.000 C 
ATOM     36  C   UNL     1       1.216   3.004  20.931  0.00  0.00    +0.000 C 
ATOM     37  C   UNL     1       2.308   2.183  20.309  0.00  0.00    +0.000 C 
ENDBRANCH   1  35
TORSDOF 8
ENDMDL
MODEL 7
REMARK VINA RESULT:      -7.7      4.388     11.217
REMARK  Name = 
REMARK  12 active torsions:
REMARK  status: ('A' for Active; 'I' for Inactive)
REMARK    1  A    between atoms: C_1  and  C_2
REMARK    2  A    between atoms: C_2  and  N_3
REMARK    3  A    between atoms: C_7  and  C_8
REMARK    4  A    between atoms: C_11  and  C_12
REMARK    5  A    between atoms: C_12  and  C_13
REMARK    6  A    between atoms: C_12  and  C_14
REMARK    7  A    between atoms: C_12  and  C_30
REMARK    8  A    between atoms: C_17  and  C_18
REMARK    9  A    between atoms: N_21  and  C_22
REMARK   10  A    between atoms: C_22  and  C_23
REMARK   11  A    between atoms: N_25  and  C_26
REMARK   12  A    between atoms: N_25  and  C_27
REMARK                            x       y       z     vdW  Elec       q    Type
REMARK                         _______ _______ _______ _____ _____    ______ ____
ROOT
ATOM      1  C   UNL     1       9.987  12.822  18.702  0.00  0.00    +0.000 C 
ATOM      2  C   UNL     1      11.029  13.310  19.748  0.00  0.00    +0.000 C 
ENDROOT
BRANCH   1   6
ATOM      3  C   UNL     1       6.219  15.152  18.952  0.00  0.00    +0.000 A 
ATOM      4  C   UNL     1       7.082  15.058  20.053  0.00  0.00    +0.000 A 
ATOM      5  C   UNL     1       8.290  14.330  19.986  0.00  0.00    +0.000 A 
ATOM      6  C   UNL     1       8.683  13.665  18.813  0.00  0.00    +0.000 A 
ATOM      7  C   UNL     1       7.841  13.829  17.695  0.00  0.00    +0.000 A 
ATOM      8  C   UNL     1       6.638  14.541  17.766  0.00  0.00    +0.000 A 
BRANCH   3  13
ATOM      9  N   UNL     1       1.316  17.899  19.033  0.00  0.00    +0.000 N 
ATOM     10  C   UNL     1       2.515  17.193  19.009  0.00  0.00    +0.000 A 
ATOM     11  N   UNL     1       3.545  17.734  19.670  0.00  0.00    +0.000 NA
ATOM     12  C   UNL     1       4.727  17.076  19.624  0.00  0.00    +0.000 A 
ATOM     13  C   UNL     1       4.927  15.859  19.006  0.00  0.00    +0.000 A 
ATOM     14  C   UNL     1       3.773  15.370  18.418  0.00  0.00    +0.000 A 
ATOM     15  N   UNL     1       2.584  16.010  18.388  0.00  0.00    +0.000 NA
ATOM     16  H   UNL     1       0.923  17.725  19.952  0.00  0.00    +0.000 HD
BRANCH   9  18
ATOM     17  C   UNL     1       0.593  18.565  16.815  0.00  0.00    +0.000 C 
ATOM     18  C   UNL     1       0.404  17.571  17.950  0.00  0.00    +0.000 C 
ENDBRANCH   9  18
ENDBRANCH   3  13
ENDBRANCH   1   6
BRANCH   1  19
ATOM     19  C   UNL     1       9.510  11.407  19.019  0.00  0.00    +0.000 A 
ATOM     20  N   UNL     1       9.618  10.841  20.232  0.00  0.00    +0.000 NA
ATOM     21  O   UNL     1       9.129   9.551  20.034  0.00  0.00    +0.000 OA
ATOM     22  C   UNL     1       8.785   9.448  18.713  0.00  0.00    +0.000 A 
ATOM     23  N   UNL     1       9.021  10.558  18.047  0.00  0.00    +0.000 NA
BRANCH  22  24
ATOM     24  C   UNL     1       8.207   8.231  18.105  0.00  0.00    +0.000 A 
ATOM     25  C   UNL     1       7.581   8.084  16.858  0.00  0.00    +0.000 A 
ATOM     26  N   UNL     1       7.188   6.825  16.635  0.00  0.00    +0.000 NA
ATOM     27  N   UNL     1       7.511   6.184  17.782  0.00  0.00    +0.000 N 
ATOM     28  C   UNL     1       8.186   6.976  18.667  0.00  0.00    +0.000 A 
BRANCH  27  29
ATOM     29  C   UNL     1       7.248   4.758  17.917  0.00  0.00    +0.000 C 
BRANCH  29  30
ATOM     30  C   UNL     1       5.953   4.465  18.660  0.00  0.00    +0.000 C 
ATOM     31  O   UNL     1       5.843   4.638  19.872  0.00  0.00    +0.000 OA
ATOM     32  N   UNL     1       4.888   3.967  17.903  0.00  0.00    +0.000 N 
ATOM     33  C   UNL     1       4.911   3.730  16.468  0.00  0.00    +0.000 C 
ATOM     34  C   UNL     1       3.614   3.724  18.564  0.00  0.00    +0.000 C 
ENDBRANCH  29  30
ENDBRANCH  27  29
ENDBRANCH  22  24
ENDBRANCH   1  19
BRANCH   1  35
ATOM     35  C   UNL     1      10.600  12.862  17.278  0.00  0.00    +0.000 C 
ATOM     36  C   UNL     1      11.255  14.072  16.644  0.00  0.00    +0.000 C 
ATOM     37  C   UNL     1      12.103  12.900  17.041  0.00  0.00    +0.000 C 
ENDBRANCH   1  35
TORSDOF 8
ENDMDL
MODEL 8
REMARK VINA RESULT:      -7.5      1.668      2.109
REMARK  Name = 
REMARK  12 active torsions:
REMARK  status: ('A' for Active; 'I' for Inactive)
REMARK    1  A    between atoms: C_1  and  C_2
REMARK    2  A    between atoms: C_2  and  N_3
REMARK    3  A    between atoms: C_7  and  C_8
REMARK    4  A    between atoms: C_11  and  C_12
REMARK    5  A    between atoms: C_12  and  C_13
REMARK    6  A    between atoms: C_12  and  C_14
REMARK    7  A    between atoms: C_12  and  C_30
REMARK    8  A    between atoms: C_17  and  C_18
REMARK    9  A    between atoms: N_21  and  C_22
REMARK   10  A    between atoms: C_22  and  C_23
REMARK   11  A    between atoms: N_25  and  C_26
REMARK   12  A    between atoms: N_25  and  C_27
REMARK                            x       y       z     vdW  Elec       q    Type
REMARK                         _______ _______ _______ _____ _____    ______ ____
ROOT
ATOM      1  C   UNL     1      -0.359  11.461  19.955  0.00  0.00    +0.000 C 
ATOM      2  C   UNL     1      -0.686  11.300  21.466  0.00  0.00    +0.000 C 
ENDROOT
BRANCH   1   6
ATOM      3  C   UNL     1       2.221   8.093  18.655  0.00  0.00    +0.000 A 
ATOM      4  C   UNL     1       2.043   9.220  17.841  0.00  0.00    +0.000 A 
ATOM      5  C   UNL     1       1.234  10.304  18.244  0.00  0.00    +0.000 A 
ATOM      6  C   UNL     1       0.569  10.305  19.482  0.00  0.00    +0.000 A 
ATOM      7  C   UNL     1       0.817   9.199  20.319  0.00  0.00    +0.000 A 
ATOM      8  C   UNL     1       1.609   8.118  19.913  0.00  0.00    +0.000 A 
BRANCH   3  13
ATOM      9  N   UNL     1       5.172   3.619  16.962  0.00  0.00    +0.000 N 
ATOM     10  C   UNL     1       4.465   4.744  17.374  0.00  0.00    +0.000 A 
ATOM     11  N   UNL     1       3.523   4.555  18.306  0.00  0.00    +0.000 NA
ATOM     12  C   UNL     1       2.802   5.635  18.689  0.00  0.00    +0.000 A 
ATOM     13  C   UNL     1       3.015   6.923  18.240  0.00  0.00    +0.000 A 
ATOM     14  C   UNL     1       4.058   7.000  17.333  0.00  0.00    +0.000 A 
ATOM     15  N   UNL     1       4.771   5.948  16.878  0.00  0.00    +0.000 NA
ATOM     16  H   UNL     1       5.833   3.433  17.709  0.00  0.00    +0.000 HD
BRANCH   9  18
ATOM     17  C   UNL     1       7.179   4.373  15.828  0.00  0.00    +0.000 C 
ATOM     18  C   UNL     1       5.803   3.750  15.660  0.00  0.00    +0.000 C 
ENDBRANCH   9  18
ENDBRANCH   3  13
ENDBRANCH   1   6
BRANCH   1  19
ATOM     19  C   UNL     1       0.489  12.707  19.705  0.00  0.00    +0.000 A 
ATOM     20  N   UNL     1      -0.024  13.889  19.325  0.00  0.00    +0.000 NA
ATOM     21  O   UNL     1       1.103  14.691  19.153  0.00  0.00    +0.000 OA
ATOM     22  C   UNL     1       2.197  13.915  19.428  0.00  0.00    +0.000 A 
ATOM     23  N   UNL     1       1.868  12.683  19.752  0.00  0.00    +0.000 NA
BRANCH  22  24
ATOM     24  C   UNL     1       3.590  14.407  19.374  0.00  0.00    +0.000 A 
ATOM     25  C   UNL     1       4.378  14.930  20.410  0.00  0.00    +0.000 A 
ATOM     26  N   UNL     1       5.604  15.267  19.993  0.00  0.00    +0.000 NA
ATOM     27  N   UNL     1       5.566  15.015  18.664  0.00  0.00    +0.000 N 
ATOM     28  C   UNL     1       4.397  14.434  18.261  0.00  0.00    +0.000 A 
BRANCH  27  29
ATOM     29  C   UNL     1       6.750  15.245  17.847  0.00  0.00    +0.000 C 
BRANCH  29  30
ATOM     30  C   UNL     1       7.702  14.059  17.843  0.00  0.00    +0.000 C 
ATOM     31  O   UNL     1       7.480  13.046  17.182  0.00  0.00    +0.000 OA
ATOM     32  N   UNL     1       8.844  14.161  18.644  0.00  0.00    +0.000 N 
ATOM     33  C   UNL     1       9.202  15.312  19.458  0.00  0.00    +0.000 C 
ATOM     34  C   UNL     1       9.810  13.072  18.628  0.00  0.00    +0.000 C 
ENDBRANCH  29  30
ENDBRANCH  27  29
ENDBRANCH  22  24
ENDBRANCH   1  19
BRANCH   1  35
ATOM     35  C   UNL     1      -1.669  11.545  19.130  0.00  0.00    +0.000 C 
ATOM     36  C   UNL     1      -1.745  11.628  17.619  0.00  0.00    +0.000 C 
ATOM     37  C   UNL     1      -2.189  10.372  18.310  0.00  0.00    +0.000 C 
ENDBRANCH   1  35
TORSDOF 8
ENDMDL
MODEL 9
REMARK VINA RESULT:      -7.5      3.902      7.905
REMARK  Name = 
REMARK  12 active torsions:
REMARK  status: ('A' for Active; 'I' for Inactive)
REMARK    1  A    between atoms: C_1  and  C_2
REMARK    2  A    between atoms: C_2  and  N_3
REMARK    3  A    between atoms: C_7  and  C_8
REMARK    4  A    between atoms: C_11  and  C_12
REMARK    5  A    between atoms: C_12  and  C_13
REMARK    6  A    between atoms: C_12  and  C_14
REMARK    7  A    between atoms: C_12  and  C_30
REMARK    8  A    between atoms: C_17  and  C_18
REMARK    9  A    between atoms: N_21  and  C_22
REMARK   10  A    between atoms: C_22  and  C_23
REMARK   11  A    between atoms: N_25  and  C_26
REMARK   12  A    between atoms: N_25  and  C_27
REMARK                            x       y       z     vdW  Elec       q    Type
REMARK                         _______ _______ _______ _____ _____    ______ ____
ROOT
ATOM      1  C   UNL     1       5.090   6.178  16.926  0.00  0.00    +0.000 C 
ATOM      2  C   UNL     1       4.903   6.500  15.417  0.00  0.00    +0.000 C 
ENDROOT
BRANCH   1   6
ATOM      3  C   UNL     1       2.040   8.226  19.416  0.00  0.00    +0.000 A 
ATOM      4  C   UNL     1       2.339   8.680  18.123  0.00  0.00    +0.000 A 
ATOM      5  C   UNL     1       3.299   8.034  17.315  0.00  0.00    +0.000 A 
ATOM      6  C   UNL     1       4.000   6.903  17.768  0.00  0.00    +0.000 A 
ATOM      7  C   UNL     1       3.636   6.416  19.039  0.00  0.00    +0.000 A 
ATOM      8  C   UNL     1       2.693   7.065  19.844  0.00  0.00    +0.000 A 
BRANCH   3  13
ATOM      9  N   UNL     1      -1.523  10.936  22.813  0.00  0.00    +0.000 N 
ATOM     10  C   UNL     1      -0.659  10.271  21.949  0.00  0.00    +0.000 A 
ATOM     11  N   UNL     1       0.096   9.303  22.481  0.00  0.00    +0.000 NA
ATOM     12  C   UNL     1       0.968   8.673  21.658  0.00  0.00    +0.000 A 
ATOM     13  C   UNL     1       1.083   8.909  20.304  0.00  0.00    +0.000 A 
ATOM     14  C   UNL     1       0.203   9.882  19.861  0.00  0.00    +0.000 A 
ATOM     15  N   UNL     1      -0.646  10.577  20.647  0.00  0.00    +0.000 NA
ATOM     16  H   UNL     1      -2.299  10.298  22.957  0.00  0.00    +0.000 HD
BRANCH   9  18
ATOM     17  C   UNL     1      -1.427  13.307  23.316  0.00  0.00    +0.000 C 
ATOM     18  C   UNL     1      -1.941  12.249  22.353  0.00  0.00    +0.000 C 
ENDBRANCH   9  18
ENDBRANCH   3  13
ENDBRANCH   1   6
BRANCH   1  19
ATOM     19  C   UNL     1       6.390   6.776  17.460  0.00  0.00    +0.000 A 
ATOM     20  N   UNL     1       7.359   6.048  18.038  0.00  0.00    +0.000 NA
ATOM     21  O   UNL     1       8.299   7.003  18.423  0.00  0.00    +0.000 OA
ATOM     22  C   UNL     1       7.803   8.227  18.056  0.00  0.00    +0.000 A 
ATOM     23  N   UNL     1       6.624   8.136  17.480  0.00  0.00    +0.000 NA
BRANCH  22  24
ATOM     24  C   UNL     1       8.515   9.503  18.278  0.00  0.00    +0.000 A 
ATOM     25  C   UNL     1       8.406  10.705  17.563  0.00  0.00    +0.000 A 
ATOM     26  N   UNL     1       9.201  11.661  18.056  0.00  0.00    +0.000 NA
ATOM     27  N   UNL     1       9.869  11.035  19.052  0.00  0.00    +0.000 N 
ATOM     28  C   UNL     1       9.439   9.755  19.264  0.00  0.00    +0.000 A 
BRANCH  27  29
ATOM     29  C   UNL     1      10.835  11.771  19.855  0.00  0.00    +0.000 C 
BRANCH  29  30
ATOM     30  C   UNL     1      11.348  13.023  19.159  0.00  0.00    +0.000 C 
ATOM     31  O   UNL     1      12.195  12.975  18.270  0.00  0.00    +0.000 OA
ATOM     32  N   UNL     1      10.823  14.246  19.590  0.00  0.00    +0.000 N 
ATOM     33  C   UNL     1       9.817  14.414  20.628  0.00  0.00    +0.000 C 
ATOM     34  C   UNL     1      11.245  15.464  18.915  0.00  0.00    +0.000 C 
ENDBRANCH  29  30
ENDBRANCH  27  29
ENDBRANCH  22  24
ENDBRANCH   1  19
BRANCH   1  35
ATOM     35  C   UNL     1       5.089   4.644  17.150  0.00  0.00    +0.000 C 
ATOM     36  C   UNL     1       3.931   3.718  16.837  0.00  0.00    +0.000 C 
ATOM     37  C   UNL     1       5.173   3.655  15.996  0.00  0.00    +0.000 C 
ENDBRANCH   1  35
TORSDOF 8
ENDMDL
