MODEL 1
REMARK VINA RESULT:      -7.3      0.000      0.000
REMARK  Name = 
REMARK  6 active torsions:
REMARK  status: ('A' for Active; 'I' for Inactive)
REMARK    1  A    between atoms: C_1  and  C_2
REMARK    2  A    between atoms: C_3  and  C_4
REMARK    3  A    between atoms: C_4  and  N_5
REMARK    4  A    between atoms: N_8  and  C_9
REMARK    5  A    between atoms: C_13  and  C_14
REMARK    6  A    between atoms: N_20  and  C_21
REMARK                            x       y       z     vdW  Elec       q    Type
REMARK                         _______ _______ _______ _____ _____    ______ ____
ROOT
ATOM      1  C   UNL     1       5.560   7.511  16.713  0.00  0.00    +0.000 C 
ATOM      2  C   UNL     1       5.119   6.157  17.170  0.00  0.00    +0.000 A 
ATOM      3  C   UNL     1       5.755   4.946  16.922  0.00  0.00    +0.000 A 
ATOM      4  C   UNL     1       5.015   3.954  17.603  0.00  0.00    +0.000 A 
ATOM      5  C   UNL     1       3.903   4.531  18.198  0.00  0.00    +0.000 A 
ATOM      6  N   UNL     1       3.977   5.914  17.945  0.00  0.00    +0.000 N 
ENDROOT
BRANCH   6   7
ATOM      7  C   UNL     1       3.038   6.910  18.380  0.00  0.00    +0.000 A 
ATOM      8  C   UNL     1       2.602   7.909  17.496  0.00  0.00    +0.000 A 
ATOM      9  C   UNL     1       1.802   8.959  17.957  0.00  0.00    +0.000 A 
ATOM     10  C   UNL     1       1.391   8.987  19.288  0.00  0.00    +0.000 A 
ATOM     11 CL   UNL     1       0.424  10.290  19.861  0.00  0.00    +0.000 Cl
ATOM     12  C   UNL     1       1.779   7.977  20.164  0.00  0.00    +0.000 A 
ATOM     13  C   UNL     1       2.613   6.950  19.717  0.00  0.00    +0.000 A 
ENDBRANCH   6   7
BRANCH   5  14
ATOM     14  C   UNL     1       2.801   3.795  18.856  0.00  0.00    +0.000 A 
ATOM     15  C   UNL     1       2.861   3.518  20.232  0.00  0.00    +0.000 A 
ATOM     16  C   UNL     1       1.816   2.852  20.881  0.00  0.00    +0.000 A 
ATOM     17  C   UNL     1       0.684   2.471  20.175  0.00  0.00    +0.000 A 
ATOM     18  C   UNL     1       0.620   2.702  18.801  0.00  0.00    +0.000 A 
ATOM     19  C   UNL     1       1.687   3.315  18.144  0.00  0.00    +0.000 A 
ENDBRANCH   5  14
BRANCH   3  20
ATOM     20  C   UNL     1       6.964   4.706  16.060  0.00  0.00    +0.000 C 
BRANCH  20  21
ATOM     21  N   UNL     1       6.602   4.789  14.637  0.00  0.00    +0.000 NA
ATOM     22  C   UNL     1       5.792   3.621  14.243  0.00  0.00    +0.000 C 
ATOM     23  C   UNL     1       5.400   3.653  12.744  0.00  0.00    +0.000 C 
ATOM     24  N   UNL     1       6.521   3.825  11.799  0.00  0.00    +0.000 NA
ATOM     25  C   UNL     1       7.310   2.604  11.656  0.00  0.00    +0.000 C 
ATOM     26  C   UNL     1       7.355   4.953  12.253  0.00  0.00    +0.000 C 
ATOM     27  C   UNL     1       7.770   4.892  13.739  0.00  0.00    +0.000 C 
ENDBRANCH  20  21
ENDBRANCH   3  20
TORSDOF 4
ENDMDL
MODEL 2
REMARK VINA RESULT:      -6.9      3.521      7.625
REMARK  Name = 
REMARK  6 active torsions:
REMARK  status: ('A' for Active; 'I' for Inactive)
REMARK    1  A    between atoms: C_1  and  C_2
REMARK    2  A    between atoms: C_3  and  C_4
REMARK    3  A    between atoms: C_4  and  N_5
REMARK    4  A    between atoms: N_8  and  C_9
REMARK    5  A    between atoms: C_13  and  C_14
REMARK    6  A    between atoms: N_20  and  C_21
REMARK                            x       y       z     vdW  Elec       q    Type
REMARK                         _______ _______ _______ _____ _____    ______ ____
ROOT
ATOM      1  C   UNL     1       2.769   9.192  17.847  0.00  0.00    +0.000 C 
ATOM      2  C   UNL     1       2.200   8.261  18.870  0.00  0.00    +0.000 A 
ATOM      3  C   UNL     1       1.378   8.600  19.939  0.00  0.00    +0.000 A 
ATOM      4  C   UNL     1       1.040   7.392  20.588  0.00  0.00    +0.000 A 
ATOM      5  C   UNL     1       1.699   6.336  19.976  0.00  0.00    +0.000 A 
ATOM      6  N   UNL     1       2.410   6.876  18.887  0.00  0.00    +0.000 N 
ENDROOT
BRANCH   6   7
ATOM      7  C   UNL     1       3.232   6.147  17.962  0.00  0.00    +0.000 A 
ATOM      8  C   UNL     1       2.925   4.817  17.634  0.00  0.00    +0.000 A 
ATOM      9  C   UNL     1       3.803   4.064  16.849  0.00  0.00    +0.000 A 
ATOM     10  C   UNL     1       4.961   4.649  16.343  0.00  0.00    +0.000 A 
ATOM     11 CL   UNL     1       6.052   3.717  15.394  0.00  0.00    +0.000 Cl
ATOM     12  C   UNL     1       5.253   5.981  16.623  0.00  0.00    +0.000 A 
ATOM     13  C   UNL     1       4.401   6.724  17.443  0.00  0.00    +0.000 A 
ENDBRANCH   6   7
BRANCH   5  14
ATOM     14  C   UNL     1       1.733   4.942  20.469  0.00  0.00    +0.000 A 
ATOM     15  C   UNL     1       0.731   4.035  20.089  0.00  0.00    +0.000 A 
ATOM     16  C   UNL     1       0.760   2.704  20.518  0.00  0.00    +0.000 A 
ATOM     17  C   UNL     1       1.802   2.248  21.314  0.00  0.00    +0.000 A 
ATOM     18  C   UNL     1       2.787   3.141  21.734  0.00  0.00    +0.000 A 
ATOM     19  C   UNL     1       2.725   4.481  21.353  0.00  0.00    +0.000 A 
ENDBRANCH   5  14
BRANCH   3  20
ATOM     20  C   UNL     1       0.959   9.978  20.371  0.00  0.00    +0.000 C 
BRANCH  20  21
ATOM     21  N   UNL     1       0.178  10.632  19.309  0.00  0.00    +0.000 NA
ATOM     22  C   UNL     1      -0.148  12.019  19.690  0.00  0.00    +0.000 C 
ATOM     23  C   UNL     1      -0.987  12.746  18.609  0.00  0.00    +0.000 C 
ATOM     24  N   UNL     1      -2.214  12.044  18.180  0.00  0.00    +0.000 NA
ATOM     25  C   UNL     1      -3.272  12.128  19.183  0.00  0.00    +0.000 C 
ATOM     26  C   UNL     1      -1.875  10.643  17.872  0.00  0.00    +0.000 C 
ATOM     27  C   UNL     1      -1.069   9.917  18.972  0.00  0.00    +0.000 C 
ENDBRANCH  20  21
ENDBRANCH   3  20
TORSDOF 4
ENDMDL
MODEL 3
REMARK VINA RESULT:      -6.7      8.758     10.494
REMARK  Name = 
REMARK  6 active torsions:
REMARK  status: ('A' for Active; 'I' for Inactive)
REMARK    1  A    between atoms: C_1  and  C_2
REMARK    2  A    between atoms: C_3  and  C_4
REMARK    3  A    between atoms: C_4  and  N_5
REMARK    4  A    between atoms: N_8  and  C_9
REMARK    5  A    between atoms: C_13  and  C_14
REMARK    6  A    between atoms: N_20  and  C_21
REMARK                            x       y       z     vdW  Elec       q    Type
REMARK                         _______ _______ _______ _____ _____    ______ ____
ROOT
ATOM      1  C   UNL     1       0.182  15.472  21.660  0.00  0.00    +0.000 C 
ATOM      2  C   UNL     1      -0.018  14.606  20.458  0.00  0.00    +0.000 A 
ATOM      3  C   UNL     1       0.667  14.686  19.250  0.00  0.00    +0.000 A 
ATOM      4  C   UNL     1       0.189  13.628  18.444  0.00  0.00    +0.000 A 
ATOM      5  C   UNL     1      -0.822  12.954  19.114  0.00  0.00    +0.000 A 
ATOM      6  N   UNL     1      -0.938  13.552  20.383  0.00  0.00    +0.000 N 
ENDROOT
BRANCH   6   7
ATOM      7  C   UNL     1      -1.856  13.172  21.421  0.00  0.00    +0.000 A 
ATOM      8  C   UNL     1      -3.020  13.922  21.649  0.00  0.00    +0.000 A 
ATOM      9  C   UNL     1      -3.837  13.639  22.748  0.00  0.00    +0.000 A 
ATOM     10  C   UNL     1      -3.525  12.575  23.591  0.00  0.00    +0.000 A 
ATOM     11 CL   UNL     1      -4.519  12.239  24.954  0.00  0.00    +0.000 Cl
ATOM     12  C   UNL     1      -2.398  11.794  23.348  0.00  0.00    +0.000 A 
ATOM     13  C   UNL     1      -1.556  12.102  22.277  0.00  0.00    +0.000 A 
ENDBRANCH   6   7
BRANCH   5  14
ATOM     14  C   UNL     1      -1.681  11.898  18.535  0.00  0.00    +0.000 A 
ATOM     15  C   UNL     1      -3.078  12.039  18.549  0.00  0.00    +0.000 A 
ATOM     16  C   UNL     1      -3.908  11.068  17.979  0.00  0.00    +0.000 A 
ATOM     17  C   UNL     1      -3.359   9.951  17.365  0.00  0.00    +0.000 A 
ATOM     18  C   UNL     1      -1.976   9.773  17.373  0.00  0.00    +0.000 A 
ATOM     19  C   UNL     1      -1.152  10.714  17.992  0.00  0.00    +0.000 A 
ENDBRANCH   5  14
BRANCH   3  20
ATOM     20  C   UNL     1       1.681  15.717  18.839  0.00  0.00    +0.000 C 
BRANCH  20  21
ATOM     21  N   UNL     1       3.040  15.156  18.915  0.00  0.00    +0.000 NA
ATOM     22  C   UNL     1       3.740  15.667  20.109  0.00  0.00    +0.000 C 
ATOM     23  C   UNL     1       5.185  15.119  20.224  0.00  0.00    +0.000 C 
ATOM     24  N   UNL     1       6.031  15.306  19.029  0.00  0.00    +0.000 NA
ATOM     25  C   UNL     1       6.476  16.690  18.883  0.00  0.00    +0.000 C 
ATOM     26  C   UNL     1       5.283  14.854  17.842  0.00  0.00    +0.000 C 
ATOM     27  C   UNL     1       3.858  15.434  17.718  0.00  0.00    +0.000 C 
ENDBRANCH  20  21
ENDBRANCH   3  20
TORSDOF 4
ENDMDL
MODEL 4
REMARK VINA RESULT:      -6.6      8.779     11.918
REMARK  Name = 
REMARK  6 active torsions:
REMARK  status: ('A' for Active; 'I' for Inactive)
REMARK    1  A    between atoms: C_1  and  C_2
REMARK    2  A    between atoms: C_3  and  C_4
REMARK    3  A    between atoms: C_4  and  N_5
REMARK    4  A    between atoms: N_8  and  C_9
REMARK    5  A    between atoms: C_13  and  C_14
REMARK    6  A    between atoms: N_20  and  C_21
REMARK                            x       y       z     vdW  Elec       q    Type
REMARK                         _______ _______ _______ _____ _____    ______ ____
ROOT
ATOM      1  C   UNL     1       5.855  16.595  20.320  0.00  0.00    +0.000 C 
ATOM      2  C   UNL     1       6.437  15.604  19.364  0.00  0.00    +0.000 A 
ATOM      3  C   UNL     1       5.813  15.057  18.248  0.00  0.00    +0.000 A 
ATOM      4  C   UNL     1       6.767  14.228  17.617  0.00  0.00    +0.000 A 
ATOM      5  C   UNL     1       7.933  14.206  18.369  0.00  0.00    +0.000 A 
ATOM      6  N   UNL     1       7.735  15.083  19.452  0.00  0.00    +0.000 N 
ENDROOT
BRANCH   6   7
ATOM      7  C   UNL     1       8.684  15.382  20.488  0.00  0.00    +0.000 A 
ATOM      8  C   UNL     1       8.681  14.650  21.685  0.00  0.00    +0.000 A 
ATOM      9  C   UNL     1       9.506  15.032  22.748  0.00  0.00    +0.000 A 
ATOM     10  C   UNL     1      10.373  16.112  22.601  0.00  0.00    +0.000 A 
ATOM     11 CL   UNL     1      11.372  16.596  23.915  0.00  0.00    +0.000 Cl
ATOM     12  C   UNL     1      10.418  16.818  21.402  0.00  0.00    +0.000 A 
ATOM     13  C   UNL     1       9.565  16.465  20.354  0.00  0.00    +0.000 A 
ENDBRANCH   6   7
BRANCH   5  14
ATOM     14  C   UNL     1       9.096  13.325  18.126  0.00  0.00    +0.000 A 
ATOM     15  C   UNL     1      10.245  13.831  17.496  0.00  0.00    +0.000 A 
ATOM     16  C   UNL     1      11.367  13.024  17.285  0.00  0.00    +0.000 A 
ATOM     17  C   UNL     1      11.374  11.706  17.718  0.00  0.00    +0.000 A 
ATOM     18  C   UNL     1      10.230  11.172  18.311  0.00  0.00    +0.000 A 
ATOM     19  C   UNL     1       9.090  11.961  18.469  0.00  0.00    +0.000 A 
ENDBRANCH   5  14
BRANCH   3  20
ATOM     20  C   UNL     1       4.388  15.253  17.807  0.00  0.00    +0.000 C 
BRANCH  20  21
ATOM     21  N   UNL     1       3.468  14.597  18.749  0.00  0.00    +0.000 NA
ATOM     22  C   UNL     1       2.922  13.361  18.157  0.00  0.00    +0.000 C 
ATOM     23  C   UNL     1       1.929  12.641  19.104  0.00  0.00    +0.000 C 
ATOM     24  N   UNL     1       0.827  13.477  19.621  0.00  0.00    +0.000 NA
ATOM     25  C   UNL     1      -0.192  13.730  18.606  0.00  0.00    +0.000 C 
ATOM     26  C   UNL     1       1.391  14.735  20.143  0.00  0.00    +0.000 C 
ATOM     27  C   UNL     1       2.350  15.462  19.176  0.00  0.00    +0.000 C 
ENDBRANCH  20  21
ENDBRANCH   3  20
TORSDOF 4
ENDMDL
MODEL 5
REMARK VINA RESULT:      -6.5      6.023     11.284
REMARK  Name = 
REMARK  6 active torsions:
REMARK  status: ('A' for Active; 'I' for Inactive)
REMARK    1  A    between atoms: C_1  and  C_2
REMARK    2  A    between atoms: C_3  and  C_4
REMARK    3  A    between atoms: C_4  and  N_5
REMARK    4  A    between atoms: N_8  and  C_9
REMARK    5  A    between atoms: C_13  and  C_14
REMARK    6  A    between atoms: N_20  and  C_21
REMARK                            x       y       z     vdW  Elec       q    Type
REMARK                         _______ _______ _______ _____ _____    ______ ____
ROOT
ATOM      1  C   UNL     1      -2.282   9.318  18.298  0.00  0.00    +0.000 C 
ATOM      2  C   UNL     1      -1.643  10.641  18.579  0.00  0.00    +0.000 A 
ATOM      3  C   UNL     1      -2.267  11.883  18.587  0.00  0.00    +0.000 A 
ATOM      4  C   UNL     1      -1.286  12.826  18.967  0.00  0.00    +0.000 A 
ATOM      5  C   UNL     1      -0.064  12.188  19.118  0.00  0.00    +0.000 A 
ATOM      6  N   UNL     1      -0.289  10.816  18.896  0.00  0.00    +0.000 N 
ENDROOT
BRANCH   6   7
ATOM      7  C   UNL     1       0.694   9.772  18.956  0.00  0.00    +0.000 A 
ATOM      8  C   UNL     1       1.375   9.370  17.797  0.00  0.00    +0.000 A 
ATOM      9  C   UNL     1       2.225   8.261  17.827  0.00  0.00    +0.000 A 
ATOM     10  C   UNL     1       2.440   7.581  19.024  0.00  0.00    +0.000 A 
ATOM     11 CL   UNL     1       3.470   6.203  19.057  0.00  0.00    +0.000 Cl
ATOM     12  C   UNL     1       1.807   7.998  20.191  0.00  0.00    +0.000 A 
ATOM     13  C   UNL     1       0.923   9.080  20.155  0.00  0.00    +0.000 A 
ENDBRANCH   6   7
BRANCH   5  14
ATOM     14  C   UNL     1       1.234  12.861  19.345  0.00  0.00    +0.000 A 
ATOM     15  C   UNL     1       2.009  13.285  18.253  0.00  0.00    +0.000 A 
ATOM     16  C   UNL     1       3.224  13.951  18.444  0.00  0.00    +0.000 A 
ATOM     17  C   UNL     1       3.677  14.227  19.727  0.00  0.00    +0.000 A 
ATOM     18  C   UNL     1       2.942  13.781  20.825  0.00  0.00    +0.000 A 
ATOM     19  C   UNL     1       1.759  13.067  20.633  0.00  0.00    +0.000 A 
ENDBRANCH   5  14
BRANCH   3  20
ATOM     20  C   UNL     1      -3.692  12.195  18.218  0.00  0.00    +0.000 C 
BRANCH  20  21
ATOM     21  N   UNL     1      -4.591  11.880  19.339  0.00  0.00    +0.000 NA
ATOM     22  C   UNL     1      -5.926  11.504  18.837  0.00  0.00    +0.000 C 
ATOM     23  C   UNL     1      -6.917  11.180  19.983  0.00  0.00    +0.000 C 
ATOM     24  N   UNL     1      -7.049  12.222  21.021  0.00  0.00    +0.000 NA
ATOM     25  C   UNL     1      -7.828  13.366  20.554  0.00  0.00    +0.000 C 
ATOM     26  C   UNL     1      -5.701  12.631  21.456  0.00  0.00    +0.000 C 
ATOM     27  C   UNL     1      -4.732  12.986  20.307  0.00  0.00    +0.000 C 
ENDBRANCH  20  21
ENDBRANCH   3  20
TORSDOF 4
ENDMDL
MODEL 6
REMARK VINA RESULT:      -6.5      7.566      9.731
REMARK  Name = 
REMARK  6 active torsions:
REMARK  status: ('A' for Active; 'I' for Inactive)
REMARK    1  A    between atoms: C_1  and  C_2
REMARK    2  A    between atoms: C_3  and  C_4
REMARK    3  A    between atoms: C_4  and  N_5
REMARK    4  A    between atoms: N_8  and  C_9
REMARK    5  A    between atoms: C_13  and  C_14
REMARK    6  A    between atoms: N_20  and  C_21
REMARK                            x       y       z     vdW  Elec       q    Type
REMARK                         _______ _______ _______ _____ _____    ______ ____
ROOT
ATOM      1  C   UNL     1      -0.414  15.568  18.746  0.00  0.00    +0.000 C 
ATOM      2  C   UNL     1       0.287  14.480  19.495  0.00  0.00    +0.000 A 
ATOM      3  C   UNL     1       1.589  14.509  19.980  0.00  0.00    +0.000 A 
ATOM      4  C   UNL     1       1.789  13.293  20.673  0.00  0.00    +0.000 A 
ATOM      5  C   UNL     1       0.657  12.500  20.554  0.00  0.00    +0.000 A 
ATOM      6  N   UNL     1      -0.292  13.250  19.834  0.00  0.00    +0.000 N 
ENDROOT
BRANCH   6   7
ATOM      7  C   UNL     1      -1.619  12.828  19.481  0.00  0.00    +0.000 A 
ATOM      8  C   UNL     1      -2.710  13.153  20.301  0.00  0.00    +0.000 A 
ATOM      9  C   UNL     1      -3.975  12.623  20.034  0.00  0.00    +0.000 A 
ATOM     10  C   UNL     1      -4.169  11.810  18.920  0.00  0.00    +0.000 A 
ATOM     11 CL   UNL     1      -5.721  11.140  18.603  0.00  0.00    +0.000 Cl
ATOM     12  C   UNL     1      -3.104  11.518  18.072  0.00  0.00    +0.000 A 
ATOM     13  C   UNL     1      -1.829  12.011  18.360  0.00  0.00    +0.000 A 
ENDBRANCH   6   7
BRANCH   5  14
ATOM     14  C   UNL     1       0.543  11.093  20.998  0.00  0.00    +0.000 A 
ATOM     15  C   UNL     1      -0.085  10.788  22.216  0.00  0.00    +0.000 A 
ATOM     16  C   UNL     1      -0.231   9.463  22.640  0.00  0.00    +0.000 A 
ATOM     17  C   UNL     1       0.223   8.419  21.846  0.00  0.00    +0.000 A 
ATOM     18  C   UNL     1       0.883   8.703  20.651  0.00  0.00    +0.000 A 
ATOM     19  C   UNL     1       1.080  10.026  20.257  0.00  0.00    +0.000 A 
ENDBRANCH   5  14
BRANCH   3  20
ATOM     20  C   UNL     1       2.619  15.586  19.778  0.00  0.00    +0.000 C 
BRANCH  20  21
ATOM     21  N   UNL     1       3.932  14.989  19.485  0.00  0.00    +0.000 NA
ATOM     22  C   UNL     1       4.941  15.467  20.449  0.00  0.00    +0.000 C 
ATOM     23  C   UNL     1       6.347  14.881  20.171  0.00  0.00    +0.000 C 
ATOM     24  N   UNL     1       6.848  15.061  18.794  0.00  0.00    +0.000 NA
ATOM     25  C   UNL     1       7.276  16.434  18.541  0.00  0.00    +0.000 C 
ATOM     26  C   UNL     1       5.797  14.642  17.849  0.00  0.00    +0.000 C 
ATOM     27  C   UNL     1       4.407  15.261  18.114  0.00  0.00    +0.000 C 
ENDBRANCH  20  21
ENDBRANCH   3  20
TORSDOF 4
ENDMDL
MODEL 7
REMARK VINA RESULT:      -6.5      6.309     11.262
REMARK  Name = 
REMARK  6 active torsions:
REMARK  status: ('A' for Active; 'I' for Inactive)
REMARK    1  A    between atoms: C_1  and  C_2
REMARK    2  A    between atoms: C_3  and  C_4
REMARK    3  A    between atoms: C_4  and  N_5
REMARK    4  A    between atoms: N_8  and  C_9
REMARK    5  A    between atoms: C_13  and  C_14
REMARK    6  A    between atoms: N_20  and  C_21
REMARK                            x       y       z     vdW  Elec       q    Type
REMARK                         _______ _______ _______ _____ _____    ______ ____
ROOT
ATOM      1  C   UNL     1      -1.293  14.770  19.973  0.00  0.00    +0.000 C 
ATOM      2  C   UNL     1      -1.256  13.288  19.775  0.00  0.00    +0.000 A 
ATOM      3  C   UNL     1      -2.344  12.422  19.759  0.00  0.00    +0.000 A 
ATOM      4  C   UNL     1      -1.833  11.136  19.475  0.00  0.00    +0.000 A 
ATOM      5  C   UNL     1      -0.450  11.195  19.390  0.00  0.00    +0.000 A 
ATOM      6  N   UNL     1      -0.088  12.546  19.557  0.00  0.00    +0.000 N 
ENDROOT
BRANCH   6   7
ATOM      7  C   UNL     1       1.245  13.078  19.534  0.00  0.00    +0.000 A 
ATOM      8  C   UNL     1       1.912  13.374  20.733  0.00  0.00    +0.000 A 
ATOM      9  C   UNL     1       3.149  14.024  20.710  0.00  0.00    +0.000 A 
ATOM     10  C   UNL     1       3.750  14.333  19.493  0.00  0.00    +0.000 A 
ATOM     11 CL   UNL     1       5.263  15.152  19.463  0.00  0.00    +0.000 Cl
ATOM     12  C   UNL     1       3.120  14.004  18.296  0.00  0.00    +0.000 A 
ATOM     13  C   UNL     1       1.864  13.394  18.315  0.00  0.00    +0.000 A 
ENDBRANCH   6   7
BRANCH   5  14
ATOM     14  C   UNL     1       0.455  10.030  19.272  0.00  0.00    +0.000 A 
ATOM     15  C   UNL     1       1.004   9.688  18.026  0.00  0.00    +0.000 A 
ATOM     16  C   UNL     1       1.886   8.609  17.897  0.00  0.00    +0.000 A 
ATOM     17  C   UNL     1       2.254   7.869  19.012  0.00  0.00    +0.000 A 
ATOM     18  C   UNL     1       1.691   8.169  20.252  0.00  0.00    +0.000 A 
ATOM     19  C   UNL     1       0.767   9.208  20.369  0.00  0.00    +0.000 A 
ENDBRANCH   5  14
BRANCH   3  20
ATOM     20  C   UNL     1      -3.784  12.755  20.039  0.00  0.00    +0.000 C 
BRANCH  20  21
ATOM     21  N   UNL     1      -4.066  12.636  21.478  0.00  0.00    +0.000 NA
ATOM     22  C   UNL     1      -4.711  13.865  21.979  0.00  0.00    +0.000 C 
ATOM     23  C   UNL     1      -5.012  13.796  23.497  0.00  0.00    +0.000 C 
ATOM     24  N   UNL     1      -3.862  13.449  24.356  0.00  0.00    +0.000 NA
ATOM     25  C   UNL     1      -2.931  14.565  24.503  0.00  0.00    +0.000 C 
ATOM     26  C   UNL     1      -3.193  12.261  23.796  0.00  0.00    +0.000 C 
ATOM     27  C   UNL     1      -2.866  12.355  22.290  0.00  0.00    +0.000 C 
ENDBRANCH  20  21
ENDBRANCH   3  20
TORSDOF 4
ENDMDL
MODEL 8
REMARK VINA RESULT:      -6.5      7.442      9.649
REMARK  Name = 
REMARK  6 active torsions:
REMARK  status: ('A' for Active; 'I' for Inactive)
REMARK    1  A    between atoms: C_1  and  C_2
REMARK    2  A    between atoms: C_3  and  C_4
REMARK    3  A    between atoms: C_4  and  N_5
REMARK    4  A    between atoms: N_8  and  C_9
REMARK    5  A    between atoms: C_13  and  C_14
REMARK    6  A    between atoms: N_20  and  C_21
REMARK                            x       y       z     vdW  Elec       q    Type
REMARK                         _______ _______ _______ _____ _____    ______ ____
ROOT
ATOM      1  C   UNL     1      -0.410  15.260  18.647  0.00  0.00    +0.000 C 
ATOM      2  C   UNL     1       0.270  14.221  19.481  0.00  0.00    +0.000 A 
ATOM      3  C   UNL     1       1.510  14.329  20.099  0.00  0.00    +0.000 A 
ATOM      4  C   UNL     1       1.705  13.133  20.825  0.00  0.00    +0.000 A 
ATOM      5  C   UNL     1       0.639  12.274  20.601  0.00  0.00    +0.000 A 
ATOM      6  N   UNL     1      -0.271  12.962  19.775  0.00  0.00    +0.000 N 
ENDROOT
BRANCH   6   7
ATOM      7  C   UNL     1      -1.527  12.461  19.292  0.00  0.00    +0.000 A 
ATOM      8  C   UNL     1      -1.610  11.852  18.031  0.00  0.00    +0.000 A 
ATOM      9  C   UNL     1      -2.854  11.495  17.501  0.00  0.00    +0.000 A 
ATOM     10  C   UNL     1      -4.012  11.695  18.248  0.00  0.00    +0.000 A 
ATOM     11 CL   UNL     1      -5.545  11.275  17.589  0.00  0.00    +0.000 Cl
ATOM     12  C   UNL     1      -3.938  12.256  19.520  0.00  0.00    +0.000 A 
ATOM     13  C   UNL     1      -2.702  12.653  20.035  0.00  0.00    +0.000 A 
ENDBRANCH   6   7
BRANCH   5  14
ATOM     14  C   UNL     1       0.559  10.867  21.050  0.00  0.00    +0.000 A 
ATOM     15  C   UNL     1       1.105   9.842  20.259  0.00  0.00    +0.000 A 
ATOM     16  C   UNL     1       1.068   8.509  20.679  0.00  0.00    +0.000 A 
ATOM     17  C   UNL     1       0.509   8.176  21.905  0.00  0.00    +0.000 A 
ATOM     18  C   UNL     1      -0.071   9.173  22.688  0.00  0.00    +0.000 A 
ATOM     19  C   UNL     1      -0.086  10.494  22.242  0.00  0.00    +0.000 A 
ENDBRANCH   5  14
BRANCH   3  20
ATOM     20  C   UNL     1       2.493  15.462  19.989  0.00  0.00    +0.000 C 
BRANCH  20  21
ATOM     21  N   UNL     1       3.814  14.956  19.585  0.00  0.00    +0.000 NA
ATOM     22  C   UNL     1       4.851  15.417  20.527  0.00  0.00    +0.000 C 
ATOM     23  C   UNL     1       6.267  14.924  20.133  0.00  0.00    +0.000 C 
ATOM     24  N   UNL     1       6.680  15.226  18.748  0.00  0.00    +0.000 NA
ATOM     25  C   UNL     1       7.027  16.634  18.573  0.00  0.00    +0.000 C 
ATOM     26  C   UNL     1       5.598  14.821  17.831  0.00  0.00    +0.000 C 
ATOM     27  C   UNL     1       4.198  15.347  18.214  0.00  0.00    +0.000 C 
ENDBRANCH  20  21
ENDBRANCH   3  20
TORSDOF 4
ENDMDL
MODEL 9
REMARK VINA RESULT:      -6.5      9.060     12.105
REMARK  Name = 
REMARK  6 active torsions:
REMARK  status: ('A' for Active; 'I' for Inactive)
REMARK    1  A    between atoms: C_1  and  C_2
REMARK    2  A    between atoms: C_3  and  C_4
REMARK    3  A    between atoms: C_4  and  N_5
REMARK    4  A    between atoms: N_8  and  C_9
REMARK    5  A    between atoms: C_13  and  C_14
REMARK    6  A    between atoms: N_20  and  C_21
REMARK                            x       y       z     vdW  Elec       q    Type
REMARK                         _______ _______ _______ _____ _____    ______ ____
ROOT
ATOM      1  C   UNL     1       6.072  17.138  19.754  0.00  0.00    +0.000 C 
ATOM      2  C   UNL     1       6.612  15.946  19.030  0.00  0.00    +0.000 A 
ATOM      3  C   UNL     1       5.944  15.166  18.093  0.00  0.00    +0.000 A 
ATOM      4  C   UNL     1       6.869  14.201  17.636  0.00  0.00    +0.000 A 
ATOM      5  C   UNL     1       8.062  14.336  18.331  0.00  0.00    +0.000 A 
ATOM      6  N   UNL     1       7.910  15.441  19.190  0.00  0.00    +0.000 N 
ENDROOT
BRANCH   6   7
ATOM      7  C   UNL     1       8.898  15.956  20.096  0.00  0.00    +0.000 A 
ATOM      8  C   UNL     1       9.819  16.925  19.668  0.00  0.00    +0.000 A 
ATOM      9  C   UNL     1      10.867  17.319  20.504  0.00  0.00    +0.000 A 
ATOM     10  C   UNL     1      10.971  16.790  21.788  0.00  0.00    +0.000 A 
ATOM     11 CL   UNL     1      12.273  17.260  22.809  0.00  0.00    +0.000 Cl
ATOM     12  C   UNL     1      10.037  15.863  22.241  0.00  0.00    +0.000 A 
ATOM     13  C   UNL     1       9.013  15.434  21.393  0.00  0.00    +0.000 A 
ENDBRANCH   6   7
BRANCH   5  14
ATOM     14  C   UNL     1       9.210  13.406  18.256  0.00  0.00    +0.000 A 
ATOM     15  C   UNL     1       9.238  12.254  19.059  0.00  0.00    +0.000 A 
ATOM     16  C   UNL     1      10.298  11.345  18.982  0.00  0.00    +0.000 A 
ATOM     17  C   UNL     1      11.338  11.557  18.086  0.00  0.00    +0.000 A 
ATOM     18  C   UNL     1      11.348  12.713  17.308  0.00  0.00    +0.000 A 
ATOM     19  C   UNL     1      10.319  13.648  17.427  0.00  0.00    +0.000 A 
ENDBRANCH   5  14
BRANCH   3  20
ATOM     20  C   UNL     1       4.505  15.276  17.670  0.00  0.00    +0.000 C 
BRANCH  20  21
ATOM     21  N   UNL     1       3.625  14.683  18.690  0.00  0.00    +0.000 NA
ATOM     22  C   UNL     1       2.983  13.462  18.169  0.00  0.00    +0.000 C 
ATOM     23  C   UNL     1       2.030  12.810  19.202  0.00  0.00    +0.000 C 
ATOM     24  N   UNL     1       1.007  13.707  19.775  0.00  0.00    +0.000 NA
ATOM     25  C   UNL     1      -0.070  13.986  18.829  0.00  0.00    +0.000 C 
ATOM     26  C   UNL     1       1.663  14.948  20.225  0.00  0.00    +0.000 C 
ATOM     27  C   UNL     1       2.582  15.609  19.175  0.00  0.00    +0.000 C 
ENDBRANCH  20  21
ENDBRANCH   3  20
TORSDOF 4
ENDMDL
