MODEL 1
REMARK VINA RESULT:      -9.3      0.000      0.000
REMARK  Name = 
REMARK  8 active torsions:
REMARK  status: ('A' for Active; 'I' for Inactive)
REMARK    1  A    between atoms: C_1  and  C_2
REMARK    2  A    between atoms: C_8  and  N_9
REMARK    3  A    between atoms: C_13  and  C_14
REMARK    4  A    between atoms: C_18  and  C_19
REMARK    5  A    between atoms: N_21  and  C_22
REMARK    6  A    between atoms: C_22  and  C_23
REMARK    7  A    between atoms: C_29  and  C_30
REMARK    8  A    between atoms: C_29  and  C_31
REMARK                            x       y       z     vdW  Elec       q    Type
REMARK                         _______ _______ _______ _____ _____    ______ ____
ROOT
ATOM      1  C   UNL     1       0.298   9.883  21.111  0.00  0.00    +0.000 A 
ATOM      2  C   UNL     1       0.066   9.575  22.455  0.00  0.00    +0.000 A 
ATOM      3  C   UNL     1      -0.838  10.321  23.212  0.00  0.00    +0.000 A 
ATOM      4  C   UNL     1      -1.524  11.377  22.621  0.00  0.00    +0.000 A 
ATOM      5  C   UNL     1      -1.287  11.725  21.289  0.00  0.00    +0.000 A 
ATOM      6  C   UNL     1      -0.347  10.998  20.542  0.00  0.00    +0.000 A 
ENDROOT
BRANCH   1  11
ATOM      7  N   UNL     1       2.907   6.129  20.044  0.00  0.00    +0.000 N 
ATOM      8  C   UNL     1       2.322   7.325  19.815  0.00  0.00    +0.000 A 
ATOM      9  N   UNL     1       2.164   7.997  18.702  0.00  0.00    +0.000 NA
ATOM     10  N   UNL     1       1.337   9.061  18.983  0.00  0.00    +0.000 NA
ATOM     11  C   UNL     1       1.139   9.026  20.280  0.00  0.00    +0.000 A 
ATOM     12  O   UNL     1       1.773   7.971  20.892  0.00  0.00    +0.000 OA
ATOM     13  H   UNL     1       3.846   6.235  20.423  0.00  0.00    +0.000 HD
BRANCH   7  21
ATOM     14  C   UNL     1       5.054   5.853  17.792  0.00  0.00    +0.000 C 
ATOM     15  C   UNL     1       3.862   4.961  18.009  0.00  0.00    +0.000 A 
ATOM     16  C   UNL     1       3.690   3.947  17.042  0.00  0.00    +0.000 A 
ATOM     17  C   UNL     1       2.665   3.012  17.139  0.00  0.00    +0.000 A 
ATOM     18  C   UNL     1       1.785   3.070  18.209  0.00  0.00    +0.000 A 
ATOM     19  C   UNL     1       1.916   4.086  19.160  0.00  0.00    +0.000 A 
ATOM     20 CL   UNL     1       0.794   4.085  20.483  0.00  0.00    +0.000 Cl
ATOM     21  C   UNL     1       2.949   5.058  19.090  0.00  0.00    +0.000 A 
ENDBRANCH   7  21
ENDBRANCH   1  11
BRANCH   5  22
ATOM     22  C   UNL     1      -2.061  12.855  20.683  0.00  0.00    +0.000 C 
ATOM     23  O   UNL     1      -1.568  13.548  19.825  0.00  0.00    +0.000 OA
ATOM     24  N   UNL     1      -3.349  13.030  21.180  0.00  0.00    +0.000 N 
ATOM     25  H   UNL     1      -3.694  12.510  21.967  0.00  0.00    +0.000 HD
BRANCH  24  26
ATOM     26  C   UNL     1      -4.191  14.091  20.680  0.00  0.00    +0.000 C 
BRANCH  26  27
ATOM     27  C   UNL     1      -5.685  13.746  20.803  0.00  0.00    +0.000 C 
ATOM     28  C   UNL     1      -5.931  12.314  21.341  0.00  0.00    +0.000 C 
ATOM     29  C   UNL     1      -6.927  11.450  20.545  0.00  0.00    +0.000 C 
ATOM     30  C   UNL     1      -7.383  12.130  19.253  0.00  0.00    +0.000 C 
ATOM     31  C   UNL     1      -7.880  13.566  19.571  0.00  0.00    +0.000 C 
ATOM     32  C   UNL     1      -6.378  13.963  19.448  0.00  0.00    +0.000 C 
ATOM     33  C   UNL     1      -6.253  12.804  18.378  0.00  0.00    +0.000 C 
ATOM     34  C   UNL     1      -6.673  13.226  16.959  0.00  0.00    +0.000 C 
ATOM     35  C   UNL     1      -4.927  12.041  18.262  0.00  0.00    +0.000 C 
ENDBRANCH  26  27
ENDBRANCH  24  26
ENDBRANCH   5  22
TORSDOF 5
ENDMDL
MODEL 2
REMARK VINA RESULT:      -9.2      4.383     10.268
REMARK  Name = 
REMARK  8 active torsions:
REMARK  status: ('A' for Active; 'I' for Inactive)
REMARK    1  A    between atoms: C_1  and  C_2
REMARK    2  A    between atoms: C_8  and  N_9
REMARK    3  A    between atoms: C_13  and  C_14
REMARK    4  A    between atoms: C_18  and  C_19
REMARK    5  A    between atoms: N_21  and  C_22
REMARK    6  A    between atoms: C_22  and  C_23
REMARK    7  A    between atoms: C_29  and  C_30
REMARK    8  A    between atoms: C_29  and  C_31
REMARK                            x       y       z     vdW  Elec       q    Type
REMARK                         _______ _______ _______ _____ _____    ______ ____
ROOT
ATOM      1  C   UNL     1      -0.136  11.121  20.868  0.00  0.00    +0.000 A 
ATOM      2  C   UNL     1      -0.505  11.026  22.214  0.00  0.00    +0.000 A 
ATOM      3  C   UNL     1      -0.165   9.902  22.968  0.00  0.00    +0.000 A 
ATOM      4  C   UNL     1       0.554   8.868  22.378  0.00  0.00    +0.000 A 
ATOM      5  C   UNL     1       0.906   8.925  21.028  0.00  0.00    +0.000 A 
ATOM      6  C   UNL     1       0.529  10.039  20.261  0.00  0.00    +0.000 A 
ENDROOT
BRANCH   1  11
ATOM      7  N   UNL     1       0.384  15.643  19.716  0.00  0.00    +0.000 N 
ATOM      8  C   UNL     1      -0.128  14.397  19.608  0.00  0.00    +0.000 A 
ATOM      9  N   UNL     1      -0.850  13.852  18.660  0.00  0.00    +0.000 NA
ATOM     10  N   UNL     1      -0.948  12.508  18.945  0.00  0.00    +0.000 NA
ATOM     11  C   UNL     1      -0.370  12.348  20.113  0.00  0.00    +0.000 A 
ATOM     12  O   UNL     1       0.140  13.518  20.625  0.00  0.00    +0.000 OA
ATOM     13  H   UNL     1      -0.176  16.228  20.331  0.00  0.00    +0.000 HD
BRANCH   7  21
ATOM     14  C   UNL     1       3.146  15.438  18.271  0.00  0.00    +0.000 C 
ATOM     15  C   UNL     1       2.055  16.433  17.984  0.00  0.00    +0.000 A 
ATOM     16  C   UNL     1       2.368  17.397  17.001  0.00  0.00    +0.000 A 
ATOM     17  C   UNL     1       1.440  18.347  16.589  0.00  0.00    +0.000 A 
ATOM     18  C   UNL     1       0.173  18.356  17.152  0.00  0.00    +0.000 A 
ATOM     19  C   UNL     1      -0.148  17.433  18.151  0.00  0.00    +0.000 A 
ATOM     20 CL   UNL     1      -1.757  17.488  18.796  0.00  0.00    +0.000 Cl
ATOM     21  C   UNL     1       0.776  16.450  18.597  0.00  0.00    +0.000 A 
ENDBRANCH   7  21
ENDBRANCH   1  11
BRANCH   5  22
ATOM     22  C   UNL     1       1.700   7.801  20.435  0.00  0.00    +0.000 C 
ATOM     23  O   UNL     1       2.284   7.946  19.387  0.00  0.00    +0.000 OA
ATOM     24  N   UNL     1       1.702   6.619  21.170  0.00  0.00    +0.000 N 
ATOM     25  H   UNL     1       1.121   6.492  21.980  0.00  0.00    +0.000 HD
BRANCH  24  26
ATOM     26  C   UNL     1       2.425   5.462  20.698  0.00  0.00    +0.000 C 
BRANCH  26  27
ATOM     27  C   UNL     1       1.582   4.611  19.733  0.00  0.00    +0.000 C 
ATOM     28  C   UNL     1       1.362   3.164  20.240  0.00  0.00    +0.000 C 
ATOM     29  C   UNL     1       1.652   2.038  19.231  0.00  0.00    +0.000 C 
ATOM     30  C   UNL     1       2.265   2.564  17.932  0.00  0.00    +0.000 C 
ATOM     31  C   UNL     1       1.391   3.721  17.379  0.00  0.00    +0.000 C 
ATOM     32  C   UNL     1       2.226   4.624  18.337  0.00  0.00    +0.000 C 
ATOM     33  C   UNL     1       3.427   3.625  18.085  0.00  0.00    +0.000 C 
ATOM     34  C   UNL     1       4.223   3.928  16.803  0.00  0.00    +0.000 C 
ATOM     35  C   UNL     1       4.438   3.381  19.212  0.00  0.00    +0.000 C 
ENDBRANCH  26  27
ENDBRANCH  24  26
ENDBRANCH   5  22
TORSDOF 5
ENDMDL
MODEL 3
REMARK VINA RESULT:      -9.0      4.401     10.693
REMARK  Name = 
REMARK  8 active torsions:
REMARK  status: ('A' for Active; 'I' for Inactive)
REMARK    1  A    between atoms: C_1  and  C_2
REMARK    2  A    between atoms: C_8  and  N_9
REMARK    3  A    between atoms: C_13  and  C_14
REMARK    4  A    between atoms: C_18  and  C_19
REMARK    5  A    between atoms: N_21  and  C_22
REMARK    6  A    between atoms: C_22  and  C_23
REMARK    7  A    between atoms: C_29  and  C_30
REMARK    8  A    between atoms: C_29  and  C_31
REMARK                            x       y       z     vdW  Elec       q    Type
REMARK                         _______ _______ _______ _____ _____    ______ ____
ROOT
ATOM      1  C   UNL     1       0.493  10.613  19.714  0.00  0.00    +0.000 A 
ATOM      2  C   UNL     1       0.235  10.054  20.971  0.00  0.00    +0.000 A 
ATOM      3  C   UNL     1       0.734   8.796  21.307  0.00  0.00    +0.000 A 
ATOM      4  C   UNL     1       1.505   8.091  20.387  0.00  0.00    +0.000 A 
ATOM      5  C   UNL     1       1.749   8.613  19.115  0.00  0.00    +0.000 A 
ATOM      6  C   UNL     1       1.212   9.862  18.765  0.00  0.00    +0.000 A 
ENDROOT
BRANCH   1  11
ATOM      7  N   UNL     1       0.799  15.297  19.677  0.00  0.00    +0.000 N 
ATOM      8  C   UNL     1       0.238  14.099  19.402  0.00  0.00    +0.000 A 
ATOM      9  N   UNL     1      -0.747  13.784  18.598  0.00  0.00    +0.000 NA
ATOM     10  N   UNL     1      -0.801  12.410  18.540  0.00  0.00    +0.000 NA
ATOM     11  C   UNL     1       0.088  11.981  19.405  0.00  0.00    +0.000 A 
ATOM     12  O   UNL     1       0.763  13.001  20.033  0.00  0.00    +0.000 OA
ATOM     13  H   UNL     1       0.463  15.678  20.558  0.00  0.00    +0.000 HD
BRANCH   7  21
ATOM     14  C   UNL     1      -1.550  17.262  19.062  0.00  0.00    +0.000 C 
ATOM     15  C   UNL     1      -0.207  17.231  18.386  0.00  0.00    +0.000 A 
ATOM     16  C   UNL     1      -0.048  18.153  17.329  0.00  0.00    +0.000 A 
ATOM     17  C   UNL     1       1.157  18.280  16.646  0.00  0.00    +0.000 A 
ATOM     18  C   UNL     1       2.235  17.484  17.005  0.00  0.00    +0.000 A 
ATOM     19  C   UNL     1       2.090  16.541  18.025  0.00  0.00    +0.000 A 
ATOM     20 CL   UNL     1       3.484  15.595  18.437  0.00  0.00    +0.000 Cl
ATOM     21  C   UNL     1       0.873  16.383  18.742  0.00  0.00    +0.000 A 
ENDBRANCH   7  21
ENDBRANCH   1  11
BRANCH   5  22
ATOM     22  C   UNL     1       2.601   7.833  18.161  0.00  0.00    +0.000 C 
ATOM     23  O   UNL     1       2.968   8.326  17.120  0.00  0.00    +0.000 OA
ATOM     24  N   UNL     1       2.918   6.540  18.563  0.00  0.00    +0.000 N 
ATOM     25  H   UNL     1       2.511   6.119  19.380  0.00  0.00    +0.000 HD
BRANCH  24  26
ATOM     26  C   UNL     1       3.727   5.687  17.725  0.00  0.00    +0.000 C 
BRANCH  26  27
ATOM     27  C   UNL     1       3.031   4.349  17.424  0.00  0.00    +0.000 C 
ATOM     28  C   UNL     1       1.524   4.359  17.780  0.00  0.00    +0.000 C 
ATOM     29  C   UNL     1       1.015   3.172  18.619  0.00  0.00    +0.000 C 
ATOM     30  C   UNL     1       2.152   2.261  19.086  0.00  0.00    +0.000 C 
ATOM     31  C   UNL     1       3.030   1.865  17.870  0.00  0.00    +0.000 C 
ATOM     32  C   UNL     1       3.770   3.209  18.144  0.00  0.00    +0.000 C 
ATOM     33  C   UNL     1       3.432   2.980  19.672  0.00  0.00    +0.000 C 
ATOM     34  C   UNL     1       4.435   2.065  20.396  0.00  0.00    +0.000 C 
ATOM     35  C   UNL     1       3.186   4.200  20.569  0.00  0.00    +0.000 C 
ENDBRANCH  26  27
ENDBRANCH  24  26
ENDBRANCH   5  22
TORSDOF 5
ENDMDL
MODEL 4
REMARK VINA RESULT:      -8.9      1.445      2.543
REMARK  Name = 
REMARK  8 active torsions:
REMARK  status: ('A' for Active; 'I' for Inactive)
REMARK    1  A    between atoms: C_1  and  C_2
REMARK    2  A    between atoms: C_8  and  N_9
REMARK    3  A    between atoms: C_13  and  C_14
REMARK    4  A    between atoms: C_18  and  C_19
REMARK    5  A    between atoms: N_21  and  C_22
REMARK    6  A    between atoms: C_22  and  C_23
REMARK    7  A    between atoms: C_29  and  C_30
REMARK    8  A    between atoms: C_29  and  C_31
REMARK                            x       y       z     vdW  Elec       q    Type
REMARK                         _______ _______ _______ _____ _____    ______ ____
ROOT
ATOM      1  C   UNL     1       0.399   9.750  21.230  0.00  0.00    +0.000 A 
ATOM      2  C   UNL     1       0.161   9.381  22.557  0.00  0.00    +0.000 A 
ATOM      3  C   UNL     1      -0.727  10.108  23.351  0.00  0.00    +0.000 A 
ATOM      4  C   UNL     1      -1.390  11.207  22.814  0.00  0.00    +0.000 A 
ATOM      5  C   UNL     1      -1.144  11.616  21.501  0.00  0.00    +0.000 A 
ATOM      6  C   UNL     1      -0.221  10.906  20.717  0.00  0.00    +0.000 A 
ENDROOT
BRANCH   1  11
ATOM      7  N   UNL     1       3.001   6.039  20.006  0.00  0.00    +0.000 N 
ATOM      8  C   UNL     1       2.401   7.235  19.820  0.00  0.00    +0.000 A 
ATOM      9  N   UNL     1       2.207   7.930  18.727  0.00  0.00    +0.000 NA
ATOM     10  N   UNL     1       1.381   8.982  19.055  0.00  0.00    +0.000 NA
ATOM     11  C   UNL     1       1.221   8.918  20.357  0.00  0.00    +0.000 A 
ATOM     12  O   UNL     1       1.880   7.854  20.927  0.00  0.00    +0.000 OA
ATOM     13  H   UNL     1       3.949   6.144  20.359  0.00  0.00    +0.000 HD
BRANCH   7  21
ATOM     14  C   UNL     1       5.129   5.784  17.734  0.00  0.00    +0.000 C 
ATOM     15  C   UNL     1       3.926   4.904  17.939  0.00  0.00    +0.000 A 
ATOM     16  C   UNL     1       3.734   3.915  16.950  0.00  0.00    +0.000 A 
ATOM     17  C   UNL     1       2.697   2.992  17.033  0.00  0.00    +0.000 A 
ATOM     18  C   UNL     1       1.824   3.038  18.110  0.00  0.00    +0.000 A 
ATOM     19  C   UNL     1       1.975   4.030  19.082  0.00  0.00    +0.000 A 
ATOM     20 CL   UNL     1       0.862   4.015  20.413  0.00  0.00    +0.000 Cl
ATOM     21  C   UNL     1       3.022   4.990  19.028  0.00  0.00    +0.000 A 
ENDBRANCH   7  21
ENDBRANCH   1  11
BRANCH   5  22
ATOM     22  C   UNL     1      -1.894  12.792  20.953  0.00  0.00    +0.000 C 
ATOM     23  O   UNL     1      -1.301  13.734  20.484  0.00  0.00    +0.000 OA
ATOM     24  N   UNL     1      -3.280  12.706  21.033  0.00  0.00    +0.000 N 
ATOM     25  H   UNL     1      -3.743  11.961  21.525  0.00  0.00    +0.000 HD
BRANCH  24  26
ATOM     26  C   UNL     1      -4.111  13.780  20.545  0.00  0.00    +0.000 C 
BRANCH  26  27
ATOM     27  C   UNL     1      -5.525  13.733  21.148  0.00  0.00    +0.000 C 
ATOM     28  C   UNL     1      -6.089  15.140  21.472  0.00  0.00    +0.000 C 
ATOM     29  C   UNL     1      -6.689  15.325  22.878  0.00  0.00    +0.000 C 
ATOM     30  C   UNL     1      -6.473  14.100  23.768  0.00  0.00    +0.000 C 
ATOM     31  C   UNL     1      -6.952  12.826  23.022  0.00  0.00    +0.000 C 
ATOM     32  C   UNL     1      -5.526  12.829  22.391  0.00  0.00    +0.000 C 
ATOM     33  C   UNL     1      -5.025  13.466  23.750  0.00  0.00    +0.000 C 
ATOM     34  C   UNL     1      -4.739  12.428  24.849  0.00  0.00    +0.000 C 
ATOM     35  C   UNL     1      -3.845  14.446  23.719  0.00  0.00    +0.000 C 
ENDBRANCH  26  27
ENDBRANCH  24  26
ENDBRANCH   5  22
TORSDOF 5
ENDMDL
MODEL 5
REMARK VINA RESULT:      -8.9      0.932      1.992
REMARK  Name = 
REMARK  8 active torsions:
REMARK  status: ('A' for Active; 'I' for Inactive)
REMARK    1  A    between atoms: C_1  and  C_2
REMARK    2  A    between atoms: C_8  and  N_9
REMARK    3  A    between atoms: C_13  and  C_14
REMARK    4  A    between atoms: C_18  and  C_19
REMARK    5  A    between atoms: N_21  and  C_22
REMARK    6  A    between atoms: C_22  and  C_23
REMARK    7  A    between atoms: C_29  and  C_30
REMARK    8  A    between atoms: C_29  and  C_31
REMARK                            x       y       z     vdW  Elec       q    Type
REMARK                         _______ _______ _______ _____ _____    ______ ____
ROOT
ATOM      1  C   UNL     1       0.473   9.627  21.267  0.00  0.00    +0.000 A 
ATOM      2  C   UNL     1       0.243   9.289  22.604  0.00  0.00    +0.000 A 
ATOM      3  C   UNL     1      -0.635  10.039  23.388  0.00  0.00    +0.000 A 
ATOM      4  C   UNL     1      -1.296  11.130  22.831  0.00  0.00    +0.000 A 
ATOM      5  C   UNL     1      -1.058  11.507  21.507  0.00  0.00    +0.000 A 
ATOM      6  C   UNL     1      -0.144  10.774  20.733  0.00  0.00    +0.000 A 
ENDROOT
BRANCH   1  11
ATOM      7  N   UNL     1       3.033   5.866  20.105  0.00  0.00    +0.000 N 
ATOM      8  C   UNL     1       2.445   7.065  19.899  0.00  0.00    +0.000 A 
ATOM      9  N   UNL     1       2.254   7.742  18.793  0.00  0.00    +0.000 NA
ATOM     10  N   UNL     1       1.441   8.809  19.104  0.00  0.00    +0.000 NA
ATOM     11  C   UNL     1       1.284   8.770  20.407  0.00  0.00    +0.000 A 
ATOM     12  O   UNL     1       1.933   7.710  20.995  0.00  0.00    +0.000 OA
ATOM     13  H   UNL     1       3.983   5.968  20.454  0.00  0.00    +0.000 HD
BRANCH   7  21
ATOM     14  C   UNL     1       5.220   5.480  17.908  0.00  0.00    +0.000 C 
ATOM     15  C   UNL     1       3.974   4.655  18.089  0.00  0.00    +0.000 A 
ATOM     16  C   UNL     1       3.771   3.656  17.112  0.00  0.00    +0.000 A 
ATOM     17  C   UNL     1       2.693   2.780  17.177  0.00  0.00    +0.000 A 
ATOM     18  C   UNL     1       1.790   2.883  18.224  0.00  0.00    +0.000 A 
ATOM     19  C   UNL     1       1.952   3.886  19.183  0.00  0.00    +0.000 A 
ATOM     20 CL   UNL     1       0.797   3.943  20.477  0.00  0.00    +0.000 Cl
ATOM     21  C   UNL     1       3.040   4.799  19.146  0.00  0.00    +0.000 A 
ENDBRANCH   7  21
ENDBRANCH   1  11
BRANCH   5  22
ATOM     22  C   UNL     1      -1.805  12.674  20.938  0.00  0.00    +0.000 C 
ATOM     23  O   UNL     1      -1.246  13.473  20.224  0.00  0.00    +0.000 OA
ATOM     24  N   UNL     1      -3.147  12.754  21.293  0.00  0.00    +0.000 N 
ATOM     25  H   UNL     1      -3.559  12.139  21.973  0.00  0.00    +0.000 HD
BRANCH  24  26
ATOM     26  C   UNL     1      -3.971  13.838  20.813  0.00  0.00    +0.000 C 
BRANCH  26  27
ATOM     27  C   UNL     1      -5.323  13.340  20.276  0.00  0.00    +0.000 C 
ATOM     28  C   UNL     1      -6.240  14.491  19.790  0.00  0.00    +0.000 C 
ATOM     29  C   UNL     1      -7.689  14.473  20.311  0.00  0.00    +0.000 C 
ATOM     30  C   UNL     1      -7.916  13.382  21.359  0.00  0.00    +0.000 C 
ATOM     31  C   UNL     1      -7.408  12.022  20.809  0.00  0.00    +0.000 C 
ATOM     32  C   UNL     1      -6.019  12.483  21.345  0.00  0.00    +0.000 C 
ATOM     33  C   UNL     1      -6.812  13.246  22.481  0.00  0.00    +0.000 C 
ATOM     34  C   UNL     1      -7.187  12.354  23.679  0.00  0.00    +0.000 C 
ATOM     35  C   UNL     1      -6.234  14.553  23.040  0.00  0.00    +0.000 C 
ENDBRANCH  26  27
ENDBRANCH  24  26
ENDBRANCH   5  22
TORSDOF 5
ENDMDL
MODEL 6
REMARK VINA RESULT:      -8.9      4.658     10.517
REMARK  Name = 
REMARK  8 active torsions:
REMARK  status: ('A' for Active; 'I' for Inactive)
REMARK    1  A    between atoms: C_1  and  C_2
REMARK    2  A    between atoms: C_8  and  N_9
REMARK    3  A    between atoms: C_13  and  C_14
REMARK    4  A    between atoms: C_18  and  C_19
REMARK    5  A    between atoms: N_21  and  C_22
REMARK    6  A    between atoms: C_22  and  C_23
REMARK    7  A    between atoms: C_29  and  C_30
REMARK    8  A    between atoms: C_29  and  C_31
REMARK                            x       y       z     vdW  Elec       q    Type
REMARK                         _______ _______ _______ _____ _____    ______ ____
ROOT
ATOM      1  C   UNL     1       0.608  10.446  19.836  0.00  0.00    +0.000 A 
ATOM      2  C   UNL     1       0.365   9.963  21.126  0.00  0.00    +0.000 A 
ATOM      3  C   UNL     1       0.862   8.723  21.528  0.00  0.00    +0.000 A 
ATOM      4  C   UNL     1       1.615   7.961  20.640  0.00  0.00    +0.000 A 
ATOM      5  C   UNL     1       1.844   8.406  19.337  0.00  0.00    +0.000 A 
ATOM      6  C   UNL     1       1.310   9.636  18.922  0.00  0.00    +0.000 A 
ENDROOT
BRANCH   1  11
ATOM      7  N   UNL     1       0.896  15.125  19.596  0.00  0.00    +0.000 N 
ATOM      8  C   UNL     1       0.348  13.913  19.359  0.00  0.00    +0.000 A 
ATOM      9  N   UNL     1      -0.611  13.557  18.541  0.00  0.00    +0.000 NA
ATOM     10  N   UNL     1      -0.657  12.181  18.544  0.00  0.00    +0.000 NA
ATOM     11  C   UNL     1       0.207  11.796  19.454  0.00  0.00    +0.000 A 
ATOM     12  O   UNL     1       0.859  12.847  20.054  0.00  0.00    +0.000 OA
ATOM     13  H   UNL     1       0.533  15.543  20.449  0.00  0.00    +0.000 HD
BRANCH   7  21
ATOM     14  C   UNL     1       3.339  15.542  17.693  0.00  0.00    +0.000 C 
ATOM     15  C   UNL     1       2.127  16.426  17.804  0.00  0.00    +0.000 A 
ATOM     16  C   UNL     1       2.158  17.587  17.000  0.00  0.00    +0.000 A 
ATOM     17  C   UNL     1       1.086  18.472  16.954  0.00  0.00    +0.000 A 
ATOM     18  C   UNL     1      -0.045  18.217  17.715  0.00  0.00    +0.000 A 
ATOM     19  C   UNL     1      -0.084  17.093  18.543  0.00  0.00    +0.000 A 
ATOM     20 CL   UNL     1      -1.539  16.823  19.449  0.00  0.00    +0.000 Cl
ATOM     21  C   UNL     1       0.993  16.169  18.616  0.00  0.00    +0.000 A 
ENDBRANCH   7  21
ENDBRANCH   1  11
BRANCH   5  22
ATOM     22  C   UNL     1       2.678   7.567  18.417  0.00  0.00    +0.000 C 
ATOM     23  O   UNL     1       2.667   7.764  17.225  0.00  0.00    +0.000 OA
ATOM     24  N   UNL     1       3.434   6.576  19.035  0.00  0.00    +0.000 N 
ATOM     25  H   UNL     1       3.342   6.364  20.013  0.00  0.00    +0.000 HD
BRANCH  24  26
ATOM     26  C   UNL     1       4.273   5.698  18.254  0.00  0.00    +0.000 C 
BRANCH  26  27
ATOM     27  C   UNL     1       4.386   4.300  18.884  0.00  0.00    +0.000 C 
ATOM     28  C   UNL     1       4.478   3.168  17.830  0.00  0.00    +0.000 C 
ATOM     29  C   UNL     1       3.528   1.973  18.028  0.00  0.00    +0.000 C 
ATOM     30  C   UNL     1       2.537   2.202  19.172  0.00  0.00    +0.000 C 
ATOM     31  C   UNL     1       3.310   2.635  20.446  0.00  0.00    +0.000 C 
ATOM     32  C   UNL     1       3.211   4.071  19.849  0.00  0.00    +0.000 C 
ATOM     33  C   UNL     1       1.834   3.617  19.218  0.00  0.00    +0.000 C 
ATOM     34  C   UNL     1       0.643   3.736  20.185  0.00  0.00    +0.000 C 
ATOM     35  C   UNL     1       1.401   4.214  17.873  0.00  0.00    +0.000 C 
ENDBRANCH  26  27
ENDBRANCH  24  26
ENDBRANCH   5  22
TORSDOF 5
ENDMDL
MODEL 7
REMARK VINA RESULT:      -8.9      2.337      3.539
REMARK  Name = 
REMARK  8 active torsions:
REMARK  status: ('A' for Active; 'I' for Inactive)
REMARK    1  A    between atoms: C_1  and  C_2
REMARK    2  A    between atoms: C_8  and  N_9
REMARK    3  A    between atoms: C_13  and  C_14
REMARK    4  A    between atoms: C_18  and  C_19
REMARK    5  A    between atoms: N_21  and  C_22
REMARK    6  A    between atoms: C_22  and  C_23
REMARK    7  A    between atoms: C_29  and  C_30
REMARK    8  A    between atoms: C_29  and  C_31
REMARK                            x       y       z     vdW  Elec       q    Type
REMARK                         _______ _______ _______ _____ _____    ______ ____
ROOT
ATOM      1  C   UNL     1       0.530   9.702  19.332  0.00  0.00    +0.000 A 
ATOM      2  C   UNL     1      -0.181  10.281  18.276  0.00  0.00    +0.000 A 
ATOM      3  C   UNL     1      -1.034  11.362  18.499  0.00  0.00    +0.000 A 
ATOM      4  C   UNL     1      -1.174  11.876  19.784  0.00  0.00    +0.000 A 
ATOM      5  C   UNL     1      -0.501  11.295  20.861  0.00  0.00    +0.000 A 
ATOM      6  C   UNL     1       0.326  10.182  20.640  0.00  0.00    +0.000 A 
ENDROOT
BRANCH   1  11
ATOM      7  N   UNL     1       3.010   5.813  20.206  0.00  0.00    +0.000 N 
ATOM      8  C   UNL     1       2.641   6.903  19.498  0.00  0.00    +0.000 A 
ATOM      9  N   UNL     1       2.924   7.257  18.269  0.00  0.00    +0.000 NA
ATOM     10  N   UNL     1       2.146   8.354  17.972  0.00  0.00    +0.000 NA
ATOM     11  C   UNL     1       1.523   8.661  19.086  0.00  0.00    +0.000 A 
ATOM     12  O   UNL     1       1.821   7.808  20.121  0.00  0.00    +0.000 OA
ATOM     13  H   UNL     1       3.773   6.020  20.846  0.00  0.00    +0.000 HD
BRANCH   7  21
ATOM     14  C   UNL     1       5.761   4.958  18.997  0.00  0.00    +0.000 C 
ATOM     15  C   UNL     1       4.490   4.152  18.993  0.00  0.00    +0.000 A 
ATOM     16  C   UNL     1       4.566   2.919  18.310  0.00  0.00    +0.000 A 
ATOM     17  C   UNL     1       3.488   2.040  18.268  0.00  0.00    +0.000 A 
ATOM     18  C   UNL     1       2.305   2.377  18.909  0.00  0.00    +0.000 A 
ATOM     19  C   UNL     1       2.197   3.607  19.562  0.00  0.00    +0.000 A 
ATOM     20 CL   UNL     1       0.697   3.953  20.362  0.00  0.00    +0.000 Cl
ATOM     21  C   UNL     1       3.277   4.529  19.623  0.00  0.00    +0.000 A 
ENDBRANCH   7  21
ENDBRANCH   1  11
BRANCH   5  22
ATOM     22  C   UNL     1      -0.662  11.891  22.226  0.00  0.00    +0.000 C 
ATOM     23  O   UNL     1      -0.536  11.206  23.214  0.00  0.00    +0.000 OA
ATOM     24  N   UNL     1      -0.960  13.249  22.253  0.00  0.00    +0.000 N 
ATOM     25  H   UNL     1      -1.166  13.769  21.418  0.00  0.00    +0.000 HD
BRANCH  24  26
ATOM     26  C   UNL     1      -1.146  13.935  23.510  0.00  0.00    +0.000 C 
BRANCH  26  27
ATOM     27  C   UNL     1      -2.112  15.125  23.379  0.00  0.00    +0.000 C 
ATOM     28  C   UNL     1      -2.496  15.744  24.746  0.00  0.00    +0.000 C 
ATOM     29  C   UNL     1      -3.999  15.970  24.993  0.00  0.00    +0.000 C 
ATOM     30  C   UNL     1      -4.865  15.385  23.876  0.00  0.00    +0.000 C 
ATOM     31  C   UNL     1      -4.350  15.892  22.502  0.00  0.00    +0.000 C 
ATOM     32  C   UNL     1      -3.358  14.693  22.589  0.00  0.00    +0.000 C 
ATOM     33  C   UNL     1      -4.491  13.930  23.386  0.00  0.00    +0.000 C 
ATOM     34  C   UNL     1      -5.530  13.246  22.479  0.00  0.00    +0.000 C 
ATOM     35  C   UNL     1      -4.086  12.922  24.469  0.00  0.00    +0.000 C 
ENDBRANCH  26  27
ENDBRANCH  24  26
ENDBRANCH   5  22
TORSDOF 5
ENDMDL
MODEL 8
REMARK VINA RESULT:      -8.9      4.468     10.667
REMARK  Name = 
REMARK  8 active torsions:
REMARK  status: ('A' for Active; 'I' for Inactive)
REMARK    1  A    between atoms: C_1  and  C_2
REMARK    2  A    between atoms: C_8  and  N_9
REMARK    3  A    between atoms: C_13  and  C_14
REMARK    4  A    between atoms: C_18  and  C_19
REMARK    5  A    between atoms: N_21  and  C_22
REMARK    6  A    between atoms: C_22  and  C_23
REMARK    7  A    between atoms: C_29  and  C_30
REMARK    8  A    between atoms: C_29  and  C_31
REMARK                            x       y       z     vdW  Elec       q    Type
REMARK                         _______ _______ _______ _____ _____    ______ ____
ROOT
ATOM      1  C   UNL     1       0.686  10.367  19.866  0.00  0.00    +0.000 A 
ATOM      2  C   UNL     1       0.532   9.919  21.182  0.00  0.00    +0.000 A 
ATOM      3  C   UNL     1       1.026   8.675  21.574  0.00  0.00    +0.000 A 
ATOM      4  C   UNL     1       1.687   7.873  20.649  0.00  0.00    +0.000 A 
ATOM      5  C   UNL     1       1.825   8.283  19.321  0.00  0.00    +0.000 A 
ATOM      6  C   UNL     1       1.292   9.518  18.920  0.00  0.00    +0.000 A 
ENDROOT
BRANCH   1  11
ATOM      7  N   UNL     1       0.862  15.058  19.811  0.00  0.00    +0.000 N 
ATOM      8  C   UNL     1       0.380  13.841  19.474  0.00  0.00    +0.000 A 
ATOM      9  N   UNL     1      -0.468  13.489  18.540  0.00  0.00    +0.000 NA
ATOM     10  N   UNL     1      -0.474  12.113  18.493  0.00  0.00    +0.000 NA
ATOM     11  C   UNL     1       0.292  11.719  19.484  0.00  0.00    +0.000 A 
ATOM     12  O   UNL     1       0.839  12.765  20.188  0.00  0.00    +0.000 OA
ATOM     13  H   UNL     1       0.391  15.436  20.630  0.00  0.00    +0.000 HD
BRANCH   7  21
ATOM     14  C   UNL     1      -1.332  17.171  19.117  0.00  0.00    +0.000 C 
ATOM     15  C   UNL     1       0.031  17.053  18.490  0.00  0.00    +0.000 A 
ATOM     16  C   UNL     1       0.287  17.964  17.442  0.00  0.00    +0.000 A 
ATOM     17  C   UNL     1       1.522  18.012  16.803  0.00  0.00    +0.000 A 
ATOM     18  C   UNL     1       2.531  17.148  17.199  0.00  0.00    +0.000 A 
ATOM     19  C   UNL     1       2.289  16.216  18.211  0.00  0.00    +0.000 A 
ATOM     20 CL   UNL     1       3.603  15.181  18.670  0.00  0.00    +0.000 Cl
ATOM     21  C   UNL     1       1.039  16.137  18.883  0.00  0.00    +0.000 A 
ENDBRANCH   7  21
ENDBRANCH   1  11
BRANCH   5  22
ATOM     22  C   UNL     1       2.562   7.400  18.360  0.00  0.00    +0.000 C 
ATOM     23  O   UNL     1       3.384   7.864  17.606  0.00  0.00    +0.000 OA
ATOM     24  N   UNL     1       2.225   6.052  18.410  0.00  0.00    +0.000 N 
ATOM     25  H   UNL     1       1.462   5.711  18.968  0.00  0.00    +0.000 HD
BRANCH  24  26
ATOM     26  C   UNL     1       2.861   5.103  17.527  0.00  0.00    +0.000 C 
BRANCH  26  27
ATOM     27  C   UNL     1       3.723   4.089  18.297  0.00  0.00    +0.000 C 
ATOM     28  C   UNL     1       3.922   2.758  17.529  0.00  0.00    +0.000 C 
ATOM     29  C   UNL     1       3.652   1.467  18.324  0.00  0.00    +0.000 C 
ATOM     30  C   UNL     1       3.077   1.749  19.713  0.00  0.00    +0.000 C 
ATOM     31  C   UNL     1       3.973   2.785  20.443  0.00  0.00    +0.000 C 
ATOM     32  C   UNL     1       3.118   3.848  19.690  0.00  0.00    +0.000 C 
ATOM     33  C   UNL     1       1.919   2.821  19.788  0.00  0.00    +0.000 C 
ATOM     34  C   UNL     1       1.159   2.886  21.125  0.00  0.00    +0.000 C 
ATOM     35  C   UNL     1       0.876   2.787  18.664  0.00  0.00    +0.000 C 
ENDBRANCH  26  27
ENDBRANCH  24  26
ENDBRANCH   5  22
TORSDOF 5
ENDMDL
MODEL 9
REMARK VINA RESULT:      -8.9      1.480      2.399
REMARK  Name = 
REMARK  8 active torsions:
REMARK  status: ('A' for Active; 'I' for Inactive)
REMARK    1  A    between atoms: C_1  and  C_2
REMARK    2  A    between atoms: C_8  and  N_9
REMARK    3  A    between atoms: C_13  and  C_14
REMARK    4  A    between atoms: C_18  and  C_19
REMARK    5  A    between atoms: N_21  and  C_22
REMARK    6  A    between atoms: C_22  and  C_23
REMARK    7  A    between atoms: C_29  and  C_30
REMARK    8  A    between atoms: C_29  and  C_31
REMARK                            x       y       z     vdW  Elec       q    Type
REMARK                         _______ _______ _______ _____ _____    ______ ____
ROOT
ATOM      1  C   UNL     1       0.405   9.984  19.240  0.00  0.00    +0.000 A 
ATOM      2  C   UNL     1       0.431  10.662  20.463  0.00  0.00    +0.000 A 
ATOM      3  C   UNL     1      -0.584  11.557  20.803  0.00  0.00    +0.000 A 
ATOM      4  C   UNL     1      -1.638  11.772  19.920  0.00  0.00    +0.000 A 
ATOM      5  C   UNL     1      -1.669  11.132  18.679  0.00  0.00    +0.000 A 
ATOM      6  C   UNL     1      -0.626  10.262  18.323  0.00  0.00    +0.000 A 
ENDROOT
BRANCH   1  11
ATOM      7  N   UNL     1       2.965   6.117  19.975  0.00  0.00    +0.000 N 
ATOM      8  C   UNL     1       2.545   7.202  19.287  0.00  0.00    +0.000 A 
ATOM      9  N   UNL     1       2.749   7.552  18.041  0.00  0.00    +0.000 NA
ATOM     10  N   UNL     1       1.945   8.641  17.788  0.00  0.00    +0.000 NA
ATOM     11  C   UNL     1       1.389   8.949  18.937  0.00  0.00    +0.000 A 
ATOM     12  O   UNL     1       1.758   8.103  19.956  0.00  0.00    +0.000 OA
ATOM     13  H   UNL     1       3.765   6.333  20.566  0.00  0.00    +0.000 HD
BRANCH   7  21
ATOM     14  C   UNL     1       5.617   5.301  18.540  0.00  0.00    +0.000 C 
ATOM     15  C   UNL     1       4.366   4.473  18.653  0.00  0.00    +0.000 A 
ATOM     16  C   UNL     1       4.407   3.234  17.977  0.00  0.00    +0.000 A 
ATOM     17  C   UNL     1       3.347   2.335  18.036  0.00  0.00    +0.000 A 
ATOM     18  C   UNL     1       2.218   2.656  18.774  0.00  0.00    +0.000 A 
ATOM     19  C   UNL     1       2.142   3.891  19.424  0.00  0.00    +0.000 A 
ATOM     20 CL   UNL     1       0.711   4.217  20.347  0.00  0.00    +0.000 Cl
ATOM     21  C   UNL     1       3.205   4.833  19.383  0.00  0.00    +0.000 A 
ENDBRANCH   7  21
ENDBRANCH   1  11
BRANCH   5  22
ATOM     22  C   UNL     1      -2.832  11.373  17.766  0.00  0.00    +0.000 C 
ATOM     23  O   UNL     1      -2.659  11.532  16.580  0.00  0.00    +0.000 OA
ATOM     24  N   UNL     1      -4.079  11.399  18.381  0.00  0.00    +0.000 N 
ATOM     25  H   UNL     1      -4.184  11.372  19.380  0.00  0.00    +0.000 HD
BRANCH  24  26
ATOM     26  C   UNL     1      -5.275  11.631  17.607  0.00  0.00    +0.000 C 
BRANCH  26  27
ATOM     27  C   UNL     1      -6.537  11.637  18.485  0.00  0.00    +0.000 C 
ATOM     28  C   UNL     1      -7.448  12.863  18.224  0.00  0.00    +0.000 C 
ATOM     29  C   UNL     1      -7.916  13.640  19.468  0.00  0.00    +0.000 C 
ATOM     30  C   UNL     1      -7.254  13.136  20.752  0.00  0.00    +0.000 C 
ATOM     31  C   UNL     1      -7.419  11.597  20.850  0.00  0.00    +0.000 C 
ATOM     32  C   UNL     1      -6.136  11.542  19.966  0.00  0.00    +0.000 C 
ATOM     33  C   UNL     1      -5.696  12.881  20.683  0.00  0.00    +0.000 C 
ATOM     34  C   UNL     1      -4.999  12.656  22.037  0.00  0.00    +0.000 C 
ATOM     35  C   UNL     1      -4.865  13.905  19.898  0.00  0.00    +0.000 C 
ENDBRANCH  26  27
ENDBRANCH  24  26
ENDBRANCH   5  22
TORSDOF 5
ENDMDL
