MODEL 1
REMARK VINA RESULT:      -7.0      0.000      0.000
REMARK  Name = 
REMARK  8 active torsions:
REMARK  status: ('A' for Active; 'I' for Inactive)
REMARK    1  A    between atoms: C_1  and  C_2
REMARK    2  A    between atoms: C_2  and  C_3
REMARK    3  A    between atoms: C_8  and  C_9
REMARK    4  A    between atoms: C_9  and  O_10
REMARK    5  A    between atoms: O_10  and  S_11
REMARK    6  A    between atoms: S_11  and  N_12
REMARK    7  A    between atoms: C_16  and  C_17
REMARK    8  A    between atoms: C_16  and  C_18
REMARK                            x       y       z     vdW  Elec       q    Type
REMARK                         _______ _______ _______ _____ _____    ______ ____
ROOT
ATOM      1  C   UNL     1       5.950   5.659  17.575  0.00  0.00    +0.000 C 
ATOM      2  O   UNL     1       5.774   4.329  17.069  0.00  0.00    +0.000 OA
ATOM      3  C   UNL     1       4.743   3.745  17.870  0.00  0.00    +0.000 C 
ATOM      4  C   UNL     1       3.344   3.984  17.278  0.00  0.00    +0.000 C 
ATOM      5  O   UNL     1       2.568   5.036  17.877  0.00  0.00    +0.000 OA
ATOM      6  C   UNL     1       2.503   5.096  19.315  0.00  0.00    +0.000 C 
ATOM      7  O   UNL     1       1.312   4.482  19.828  0.00  0.00    +0.000 OA
ATOM      8  C   UNL     1       1.660   3.140  20.160  0.00  0.00    +0.000 C 
ATOM      9  C   UNL     1       0.918   2.226  19.187  0.00  0.00    +0.000 C 
ATOM     10  C   UNL     1       1.177   2.822  21.577  0.00  0.00    +0.000 C 
ATOM     11  O   UNL     1       3.092   2.980  20.075  0.00  0.00    +0.000 OA
ATOM     12  C   UNL     1       3.619   4.331  20.005  0.00  0.00    +0.000 C 
ATOM     13  C   UNL     1       4.906   4.427  19.196  0.00  0.00    +0.000 C 
ATOM     14  O   UNL     1       5.250   5.781  18.825  0.00  0.00    +0.000 OA
ENDROOT
BRANCH   1  16
ATOM     15  C   UNL     1       5.394   6.038  15.083  0.00  0.00    +0.000 C 
ATOM     16  C   UNL     1       5.480   6.622  16.479  0.00  0.00    +0.000 C 
ENDBRANCH   1  16
BRANCH   6  17
ATOM     17  C   UNL     1       2.479   6.576  19.747  0.00  0.00    +0.000 C 
BRANCH  17  18
ATOM     18  O   UNL     1       1.544   6.761  20.808  0.00  0.00    +0.000 OA
BRANCH  18  19
ATOM     19  S   UNL     1       0.952   8.253  21.003  0.00  0.00    +0.000 S 
ATOM     20  O   UNL     1       1.301   9.039  19.843  0.00  0.00    +0.000 OA
ATOM     21  O   UNL     1      -0.395   8.139  21.512  0.00  0.00    +0.000 OA
BRANCH  19  22
ATOM     22  N   UNL     1       1.907   8.829  22.261  0.00  0.00    +0.000 NA
ATOM     23  H   UNL     1       2.286   9.739  22.009  0.00  0.00    +0.000 HD
ATOM     24  H   UNL     1       2.611   8.142  22.500  0.00  0.00    +0.000 HD
ENDBRANCH  19  22
ENDBRANCH  18  19
ENDBRANCH  17  18
ENDBRANCH   6  17
TORSDOF 5
ENDMDL
MODEL 2
REMARK VINA RESULT:      -6.9      2.977      5.680
REMARK  Name = 
REMARK  8 active torsions:
REMARK  status: ('A' for Active; 'I' for Inactive)
REMARK    1  A    between atoms: C_1  and  C_2
REMARK    2  A    between atoms: C_2  and  C_3
REMARK    3  A    between atoms: C_8  and  C_9
REMARK    4  A    between atoms: C_9  and  O_10
REMARK    5  A    between atoms: O_10  and  S_11
REMARK    6  A    between atoms: S_11  and  N_12
REMARK    7  A    between atoms: C_16  and  C_17
REMARK    8  A    between atoms: C_16  and  C_18
REMARK                            x       y       z     vdW  Elec       q    Type
REMARK                         _______ _______ _______ _____ _____    ______ ____
ROOT
ATOM      1  C   UNL     1       1.405   4.248  19.770  0.00  0.00    +0.000 C 
ATOM      2  O   UNL     1       0.873   4.002  18.461  0.00  0.00    +0.000 OA
ATOM      3  C   UNL     1       1.938   4.293  17.552  0.00  0.00    +0.000 C 
ATOM      4  C   UNL     1       2.805   3.057  17.258  0.00  0.00    +0.000 C 
ATOM      5  O   UNL     1       4.055   2.971  17.963  0.00  0.00    +0.000 OA
ATOM      6  C   UNL     1       4.888   4.145  18.014  0.00  0.00    +0.000 C 
ATOM      7  O   UNL     1       5.918   4.121  17.015  0.00  0.00    +0.000 OA
ATOM      8  C   UNL     1       5.413   4.845  15.896  0.00  0.00    +0.000 C 
ATOM      9  C   UNL     1       5.208   3.842  14.763  0.00  0.00    +0.000 C 
ATOM     10  C   UNL     1       6.452   5.874  15.442  0.00  0.00    +0.000 C 
ATOM     11  O   UNL     1       4.185   5.508  16.266  0.00  0.00    +0.000 OA
ATOM     12  C   UNL     1       4.139   5.432  17.716  0.00  0.00    +0.000 C 
ATOM     13  C   UNL     1       2.720   5.359  18.263  0.00  0.00    +0.000 C 
ATOM     14  O   UNL     1       2.659   4.938  19.645  0.00  0.00    +0.000 OA
ENDROOT
BRANCH   1  16
ATOM     15  C   UNL     1       2.742   2.652  21.297  0.00  0.00    +0.000 C 
ATOM     16  C   UNL     1       1.486   2.892  20.482  0.00  0.00    +0.000 C 
ENDBRANCH   1  16
BRANCH   6  17
ATOM     17  C   UNL     1       5.583   4.199  19.389  0.00  0.00    +0.000 C 
BRANCH  17  18
ATOM     18  O   UNL     1       6.207   5.469  19.573  0.00  0.00    +0.000 OA
BRANCH  18  19
ATOM     19  S   UNL     1       7.804   5.536  19.335  0.00  0.00    +0.000 S 
ATOM     20  O   UNL     1       8.192   4.409  18.519  0.00  0.00    +0.000 OA
ATOM     21  O   UNL     1       8.156   6.902  19.025  0.00  0.00    +0.000 OA
BRANCH  19  22
ATOM     22  N   UNL     1       8.385   5.216  20.879  0.00  0.00    +0.000 NA
ATOM     23  H   UNL     1       9.278   4.730  20.811  0.00  0.00    +0.000 HD
ATOM     24  H   UNL     1       7.686   4.716  21.413  0.00  0.00    +0.000 HD
ENDBRANCH  19  22
ENDBRANCH  18  19
ENDBRANCH  17  18
ENDBRANCH   6  17
TORSDOF 5
ENDMDL
MODEL 3
REMARK VINA RESULT:      -6.6      1.920      4.632
REMARK  Name = 
REMARK  8 active torsions:
REMARK  status: ('A' for Active; 'I' for Inactive)
REMARK    1  A    between atoms: C_1  and  C_2
REMARK    2  A    between atoms: C_2  and  C_3
REMARK    3  A    between atoms: C_8  and  C_9
REMARK    4  A    between atoms: C_9  and  O_10
REMARK    5  A    between atoms: O_10  and  S_11
REMARK    6  A    between atoms: S_11  and  N_12
REMARK    7  A    between atoms: C_16  and  C_17
REMARK    8  A    between atoms: C_16  and  C_18
REMARK                            x       y       z     vdW  Elec       q    Type
REMARK                         _______ _______ _______ _____ _____    ______ ____
ROOT
ATOM      1  C   UNL     1       1.248   2.651  19.280  0.00  0.00    +0.000 C 
ATOM      2  O   UNL     1       2.443   1.870  19.403  0.00  0.00    +0.000 OA
ATOM      3  C   UNL     1       3.435   2.560  18.639  0.00  0.00    +0.000 C 
ATOM      4  C   UNL     1       4.209   3.585  19.485  0.00  0.00    +0.000 C 
ATOM      5  O   UNL     1       3.814   4.960  19.343  0.00  0.00    +0.000 OA
ATOM      6  C   UNL     1       3.621   5.477  18.012  0.00  0.00    +0.000 C 
ATOM      7  O   UNL     1       4.774   6.186  17.536  0.00  0.00    +0.000 OA
ATOM      8  C   UNL     1       5.541   5.250  16.781  0.00  0.00    +0.000 C 
ATOM      9  C   UNL     1       6.834   4.997  17.553  0.00  0.00    +0.000 C 
ATOM     10  C   UNL     1       5.904   5.862  15.426  0.00  0.00    +0.000 C 
ATOM     11  O   UNL     1       4.774   4.042  16.592  0.00  0.00    +0.000 OA
ATOM     12  C   UNL     1       3.416   4.396  16.966  0.00  0.00    +0.000 C 
ATOM     13  C   UNL     1       2.638   3.227  17.557  0.00  0.00    +0.000 C 
ATOM     14  O   UNL     1       1.432   3.631  18.244  0.00  0.00    +0.000 OA
ENDROOT
BRANCH   1  16
ATOM     15  C   UNL     1       1.597   2.516  21.835  0.00  0.00    +0.000 C 
ATOM     16  C   UNL     1       0.948   3.233  20.667  0.00  0.00    +0.000 C 
ENDBRANCH   1  16
BRANCH   6  17
ATOM     17  C   UNL     1       2.446   6.475  18.035  0.00  0.00    +0.000 C 
BRANCH  17  18
ATOM     18  O   UNL     1       2.924   7.799  17.806  0.00  0.00    +0.000 OA
BRANCH  18  19
ATOM     19  S   UNL     1       1.882   9.005  18.074  0.00  0.00    +0.000 S 
ATOM     20  O   UNL     1       2.594  10.257  17.973  0.00  0.00    +0.000 OA
ATOM     21  O   UNL     1       0.667   8.719  17.347  0.00  0.00    +0.000 OA
BRANCH  19  22
ATOM     22  N   UNL     1       1.540   8.794  19.706  0.00  0.00    +0.000 NA
ATOM     23  H   UNL     1       2.257   9.254  20.265  0.00  0.00    +0.000 HD
ATOM     24  H   UNL     1       1.432   7.809  19.910  0.00  0.00    +0.000 HD
ENDBRANCH  19  22
ENDBRANCH  18  19
ENDBRANCH  17  18
ENDBRANCH   6  17
TORSDOF 5
ENDMDL
MODEL 4
REMARK VINA RESULT:      -6.6      1.849      4.627
REMARK  Name = 
REMARK  8 active torsions:
REMARK  status: ('A' for Active; 'I' for Inactive)
REMARK    1  A    between atoms: C_1  and  C_2
REMARK    2  A    between atoms: C_2  and  C_3
REMARK    3  A    between atoms: C_8  and  C_9
REMARK    4  A    between atoms: C_9  and  O_10
REMARK    5  A    between atoms: O_10  and  S_11
REMARK    6  A    between atoms: S_11  and  N_12
REMARK    7  A    between atoms: C_16  and  C_17
REMARK    8  A    between atoms: C_16  and  C_18
REMARK                            x       y       z     vdW  Elec       q    Type
REMARK                         _______ _______ _______ _____ _____    ______ ____
ROOT
ATOM      1  C   UNL     1       1.508   2.726  18.950  0.00  0.00    +0.000 C 
ATOM      2  O   UNL     1       2.706   2.048  19.351  0.00  0.00    +0.000 OA
ATOM      3  C   UNL     1       3.783   2.803  18.787  0.00  0.00    +0.000 C 
ATOM      4  C   UNL     1       4.278   3.905  19.738  0.00  0.00    +0.000 C 
ATOM      5  O   UNL     1       3.819   5.239  19.464  0.00  0.00    +0.000 OA
ATOM      6  C   UNL     1       3.875   5.711  18.104  0.00  0.00    +0.000 C 
ATOM      7  O   UNL     1       5.046   6.502  17.854  0.00  0.00    +0.000 OA
ATOM      8  C   UNL     1       6.025   5.617  17.314  0.00  0.00    +0.000 C 
ATOM      9  C   UNL     1       7.139   5.488  18.350  0.00  0.00    +0.000 C 
ATOM     10  C   UNL     1       6.620   6.229  16.044  0.00  0.00    +0.000 C 
ATOM     11  O   UNL     1       5.410   4.347  17.014  0.00  0.00    +0.000 OA
ATOM     12  C   UNL     1       3.981   4.595  17.080  0.00  0.00    +0.000 C 
ATOM     13  C   UNL     1       3.186   3.379  17.537  0.00  0.00    +0.000 C 
ATOM     14  O   UNL     1       1.834   3.696  17.939  0.00  0.00    +0.000 OA
ENDROOT
BRANCH   1  16
ATOM     15  C   UNL     1       1.325   2.684  21.525  0.00  0.00    +0.000 C 
ATOM     16  C   UNL     1       0.876   3.310  20.219  0.00  0.00    +0.000 C 
ENDBRANCH   1  16
BRANCH   6  17
ATOM     17  C   UNL     1       2.650   6.609  17.840  0.00  0.00    +0.000 C 
BRANCH  17  18
ATOM     18  O   UNL     1       2.964   7.967  18.141  0.00  0.00    +0.000 OA
BRANCH  18  19
ATOM     19  S   UNL     1       1.720   8.991  18.265  0.00  0.00    +0.000 S 
ATOM     20  O   UNL     1       0.695   8.580  17.334  0.00  0.00    +0.000 OA
ATOM     21  O   UNL     1       1.471   9.229  19.668  0.00  0.00    +0.000 OA
BRANCH  19  22
ATOM     22  N   UNL     1       2.383  10.401  17.636  0.00  0.00    +0.000 NA
ATOM     23  H   UNL     1       2.889  10.894  18.370  0.00  0.00    +0.000 HD
ATOM     24  H   UNL     1       1.661  10.953  17.193  0.00  0.00    +0.000 HD
ENDBRANCH  19  22
ENDBRANCH  18  19
ENDBRANCH  17  18
ENDBRANCH   6  17
TORSDOF 5
ENDMDL
MODEL 5
REMARK VINA RESULT:      -6.6      0.852      1.012
REMARK  Name = 
REMARK  8 active torsions:
REMARK  status: ('A' for Active; 'I' for Inactive)
REMARK    1  A    between atoms: C_1  and  C_2
REMARK    2  A    between atoms: C_2  and  C_3
REMARK    3  A    between atoms: C_8  and  C_9
REMARK    4  A    between atoms: C_9  and  O_10
REMARK    5  A    between atoms: O_10  and  S_11
REMARK    6  A    between atoms: S_11  and  N_12
REMARK    7  A    between atoms: C_16  and  C_17
REMARK    8  A    between atoms: C_16  and  C_18
REMARK                            x       y       z     vdW  Elec       q    Type
REMARK                         _______ _______ _______ _____ _____    ______ ____
ROOT
ATOM      1  C   UNL     1       6.606   5.737  18.365  0.00  0.00    +0.000 C 
ATOM      2  O   UNL     1       6.521   4.441  17.757  0.00  0.00    +0.000 OA
ATOM      3  C   UNL     1       5.282   3.886  18.206  0.00  0.00    +0.000 C 
ATOM      4  C   UNL     1       4.117   4.229  17.262  0.00  0.00    +0.000 C 
ATOM      5  O   UNL     1       3.252   5.298  17.678  0.00  0.00    +0.000 OA
ATOM      6  C   UNL     1       2.788   5.305  19.042  0.00  0.00    +0.000 C 
ATOM      7  O   UNL     1       1.475   4.740  19.170  0.00  0.00    +0.000 OA
ATOM      8  C   UNL     1       1.656   3.368  19.511  0.00  0.00    +0.000 C 
ATOM      9  C   UNL     1       1.178   2.539  18.321  0.00  0.00    +0.000 C 
ATOM     10  C   UNL     1       0.781   3.022  20.718  0.00  0.00    +0.000 C 
ATOM     11  O   UNL     1       3.045   3.129  19.819  0.00  0.00    +0.000 OA
ATOM     12  C   UNL     1       3.630   4.449  19.972  0.00  0.00    +0.000 C 
ATOM     13  C   UNL     1       5.095   4.503  19.561  0.00  0.00    +0.000 C 
ATOM     14  O   UNL     1       5.589   5.849  19.375  0.00  0.00    +0.000 OA
ENDROOT
BRANCH   1  16
ATOM     15  C   UNL     1       7.457   7.946  17.333  0.00  0.00    +0.000 C 
ATOM     16  C   UNL     1       6.506   6.769  17.236  0.00  0.00    +0.000 C 
ENDBRANCH   1  16
BRANCH   6  17
ATOM     17  C   UNL     1       2.709   6.765  19.531  0.00  0.00    +0.000 C 
BRANCH  17  18
ATOM     18  O   UNL     1       1.845   6.856  20.663  0.00  0.00    +0.000 OA
BRANCH  18  19
ATOM     19  S   UNL     1       1.111   8.276  20.904  0.00  0.00    +0.000 S 
ATOM     20  O   UNL     1       1.412   9.142  19.789  0.00  0.00    +0.000 OA
ATOM     21  O   UNL     1      -0.231   8.014  21.369  0.00  0.00    +0.000 OA
BRANCH  19  22
ATOM     22  N   UNL     1       1.976   8.882  22.212  0.00  0.00    +0.000 NA
ATOM     23  H   UNL     1       1.891   8.242  22.999  0.00  0.00    +0.000 HD
ATOM     24  H   UNL     1       1.675   9.826  22.415  0.00  0.00    +0.000 HD
ENDBRANCH  19  22
ENDBRANCH  18  19
ENDBRANCH  17  18
ENDBRANCH   6  17
TORSDOF 5
ENDMDL
MODEL 6
REMARK VINA RESULT:      -6.6      1.862      4.718
REMARK  Name = 
REMARK  8 active torsions:
REMARK  status: ('A' for Active; 'I' for Inactive)
REMARK    1  A    between atoms: C_1  and  C_2
REMARK    2  A    between atoms: C_2  and  C_3
REMARK    3  A    between atoms: C_8  and  C_9
REMARK    4  A    between atoms: C_9  and  O_10
REMARK    5  A    between atoms: O_10  and  S_11
REMARK    6  A    between atoms: S_11  and  N_12
REMARK    7  A    between atoms: C_16  and  C_17
REMARK    8  A    between atoms: C_16  and  C_18
REMARK                            x       y       z     vdW  Elec       q    Type
REMARK                         _______ _______ _______ _____ _____    ______ ____
ROOT
ATOM      1  C   UNL     1       1.298   2.814  19.432  0.00  0.00    +0.000 C 
ATOM      2  O   UNL     1       2.538   2.094  19.405  0.00  0.00    +0.000 OA
ATOM      3  C   UNL     1       3.431   2.892  18.624  0.00  0.00    +0.000 C 
ATOM      4  C   UNL     1       4.216   3.895  19.486  0.00  0.00    +0.000 C 
ATOM      5  O   UNL     1       3.743   5.252  19.480  0.00  0.00    +0.000 OA
ATOM      6  C   UNL     1       3.420   5.852  18.210  0.00  0.00    +0.000 C 
ATOM      7  O   UNL     1       4.495   6.657  17.705  0.00  0.00    +0.000 OA
ATOM      8  C   UNL     1       5.246   5.823  16.825  0.00  0.00    +0.000 C 
ATOM      9  C   UNL     1       6.607   5.588  17.477  0.00  0.00    +0.000 C 
ATOM     10  C   UNL     1       5.470   6.551  15.498  0.00  0.00    +0.000 C 
ATOM     11  O   UNL     1       4.528   4.591  16.603  0.00  0.00    +0.000 OA
ATOM     12  C   UNL     1       3.188   4.840  17.103  0.00  0.00    +0.000 C 
ATOM     13  C   UNL     1       2.518   3.590  17.659  0.00  0.00    +0.000 C 
ATOM     14  O   UNL     1       1.351   3.875  18.463  0.00  0.00    +0.000 OA
ENDROOT
BRANCH   1  16
ATOM     15  C   UNL     1       1.834   2.498  21.938  0.00  0.00    +0.000 C 
ATOM     16  C   UNL     1       1.080   3.276  20.878  0.00  0.00    +0.000 C 
ENDBRANCH   1  16
BRANCH   6  17
ATOM     17  C   UNL     1       2.202   6.779  18.396  0.00  0.00    +0.000 C 
BRANCH  17  18
ATOM     18  O   UNL     1       2.357   7.957  17.607  0.00  0.00    +0.000 OA
BRANCH  18  19
ATOM     19  S   UNL     1       1.728   9.321  18.204  0.00  0.00    +0.000 S 
ATOM     20  O   UNL     1       1.452   9.120  19.607  0.00  0.00    +0.000 OA
ATOM     21  O   UNL     1       2.498  10.432  17.696  0.00  0.00    +0.000 OA
BRANCH  19  22
ATOM     22  N   UNL     1       0.234   9.364  17.436  0.00  0.00    +0.000 NA
ATOM     23  H   UNL     1      -0.289   8.521  17.665  0.00  0.00    +0.000 HD
ATOM     24  H   UNL     1       0.362   9.511  16.443  0.00  0.00    +0.000 HD
ENDBRANCH  19  22
ENDBRANCH  18  19
ENDBRANCH  17  18
ENDBRANCH   6  17
TORSDOF 5
ENDMDL
MODEL 7
REMARK VINA RESULT:      -6.5      1.933      4.465
REMARK  Name = 
REMARK  8 active torsions:
REMARK  status: ('A' for Active; 'I' for Inactive)
REMARK    1  A    between atoms: C_1  and  C_2
REMARK    2  A    between atoms: C_2  and  C_3
REMARK    3  A    between atoms: C_8  and  C_9
REMARK    4  A    between atoms: C_9  and  O_10
REMARK    5  A    between atoms: O_10  and  S_11
REMARK    6  A    between atoms: S_11  and  N_12
REMARK    7  A    between atoms: C_16  and  C_17
REMARK    8  A    between atoms: C_16  and  C_18
REMARK                            x       y       z     vdW  Elec       q    Type
REMARK                         _______ _______ _______ _____ _____    ______ ____
ROOT
ATOM      1  C   UNL     1       1.579   2.589  18.334  0.00  0.00    +0.000 C 
ATOM      2  O   UNL     1       2.749   1.759  18.320  0.00  0.00    +0.000 OA
ATOM      3  C   UNL     1       3.842   2.638  18.042  0.00  0.00    +0.000 C 
ATOM      4  C   UNL     1       4.462   3.216  19.325  0.00  0.00    +0.000 C 
ATOM      5  O   UNL     1       4.080   4.557  19.672  0.00  0.00    +0.000 OA
ATOM      6  C   UNL     1       4.094   5.557  18.634  0.00  0.00    +0.000 C 
ATOM      7  O   UNL     1       5.301   6.333  18.649  0.00  0.00    +0.000 OA
ATOM      8  C   UNL     1       6.186   5.723  17.714  0.00  0.00    +0.000 C 
ATOM      9  C   UNL     1       7.344   5.125  18.510  0.00  0.00    +0.000 C 
ATOM     10  C   UNL     1       6.753   6.790  16.774  0.00  0.00    +0.000 C 
ATOM     11  O   UNL     1       5.471   4.723  16.958  0.00  0.00    +0.000 OA
ATOM     12  C   UNL     1       4.068   4.975  17.232  0.00  0.00    +0.000 C 
ATOM     13  C   UNL     1       3.219   3.711  17.198  0.00  0.00    +0.000 C 
ATOM     14  O   UNL     1       1.915   3.881  17.800  0.00  0.00    +0.000 OA
ENDROOT
BRANCH   1  16
ATOM     15  C   UNL     1       0.785   3.976  20.361  0.00  0.00    +0.000 C 
ATOM     16  C   UNL     1       1.058   2.605  19.776  0.00  0.00    +0.000 C 
ENDBRANCH   1  16
BRANCH   6  17
ATOM     17  C   UNL     1       2.920   6.529  18.867  0.00  0.00    +0.000 C 
BRANCH  17  18
ATOM     18  O   UNL     1       3.045   7.662  18.010  0.00  0.00    +0.000 OA
BRANCH  18  19
ATOM     19  S   UNL     1       1.935   8.825  18.176  0.00  0.00    +0.000 S 
ATOM     20  O   UNL     1       2.582  10.104  17.999  0.00  0.00    +0.000 OA
ATOM     21  O   UNL     1       0.752   8.425  17.450  0.00  0.00    +0.000 OA
BRANCH  19  22
ATOM     22  N   UNL     1       1.572   8.709  19.813  0.00  0.00    +0.000 NA
ATOM     23  H   UNL     1       1.741   9.607  20.262  0.00  0.00    +0.000 HD
ATOM     24  H   UNL     1       2.086   7.941  20.225  0.00  0.00    +0.000 HD
ENDBRANCH  19  22
ENDBRANCH  18  19
ENDBRANCH  17  18
ENDBRANCH   6  17
TORSDOF 5
ENDMDL
MODEL 8
REMARK VINA RESULT:      -6.4      2.043      2.417
REMARK  Name = 
REMARK  8 active torsions:
REMARK  status: ('A' for Active; 'I' for Inactive)
REMARK    1  A    between atoms: C_1  and  C_2
REMARK    2  A    between atoms: C_2  and  C_3
REMARK    3  A    between atoms: C_8  and  C_9
REMARK    4  A    between atoms: C_9  and  O_10
REMARK    5  A    between atoms: O_10  and  S_11
REMARK    6  A    between atoms: S_11  and  N_12
REMARK    7  A    between atoms: C_16  and  C_17
REMARK    8  A    between atoms: C_16  and  C_18
REMARK                            x       y       z     vdW  Elec       q    Type
REMARK                         _______ _______ _______ _____ _____    ______ ____
ROOT
ATOM      1  C   UNL     1       7.206   5.952  18.595  0.00  0.00    +0.000 C 
ATOM      2  O   UNL     1       7.219   4.579  18.183  0.00  0.00    +0.000 OA
ATOM      3  C   UNL     1       5.880   4.110  18.364  0.00  0.00    +0.000 C 
ATOM      4  C   UNL     1       5.020   4.313  17.106  0.00  0.00    +0.000 C 
ATOM      5  O   UNL     1       4.129   5.442  17.116  0.00  0.00    +0.000 OA
ATOM      6  C   UNL     1       3.327   5.662  18.292  0.00  0.00    +0.000 C 
ATOM      7  O   UNL     1       2.000   5.135  18.148  0.00  0.00    +0.000 OA
ATOM      8  C   UNL     1       2.018   3.830  18.723  0.00  0.00    +0.000 C 
ATOM      9  C   UNL     1       1.827   2.832  17.584  0.00  0.00    +0.000 C 
ATOM     10  C   UNL     1       0.843   3.682  19.692  0.00  0.00    +0.000 C 
ATOM     11  O   UNL     1       3.266   3.630  19.420  0.00  0.00    +0.000 OA
ATOM     12  C   UNL     1       3.854   4.953  19.527  0.00  0.00    +0.000 C 
ATOM     13  C   UNL     1       5.377   4.931  19.515  0.00  0.00    +0.000 C 
ATOM     14  O   UNL     1       5.967   6.228  19.272  0.00  0.00    +0.000 OA
ENDROOT
BRANCH   1  16
ATOM     15  C   UNL     1       7.870   8.235  17.588  0.00  0.00    +0.000 C 
ATOM     16  C   UNL     1       7.454   6.799  17.341  0.00  0.00    +0.000 C 
ENDBRANCH   1  16
BRANCH   6  17
ATOM     17  C   UNL     1       3.194   7.181  18.523  0.00  0.00    +0.000 C 
BRANCH  17  18
ATOM     18  O   UNL     1       1.923   7.637  18.064  0.00  0.00    +0.000 OA
BRANCH  18  19
ATOM     19  S   UNL     1       1.578   9.197  18.311  0.00  0.00    +0.000 S 
ATOM     20  O   UNL     1       1.282   9.384  19.712  0.00  0.00    +0.000 OA
ATOM     21  O   UNL     1       2.545   9.991  17.590  0.00  0.00    +0.000 OA
BRANCH  19  22
ATOM     22  N   UNL     1       0.113   9.347  17.501  0.00  0.00    +0.000 NA
ATOM     23  H   UNL     1      -0.214   8.425  17.219  0.00  0.00    +0.000 HD
ATOM     24  H   UNL     1       0.210  10.001  16.735  0.00  0.00    +0.000 HD
ENDBRANCH  19  22
ENDBRANCH  18  19
ENDBRANCH  17  18
ENDBRANCH   6  17
TORSDOF 5
ENDMDL
MODEL 9
REMARK VINA RESULT:      -6.4      1.179      4.374
REMARK  Name = 
REMARK  8 active torsions:
REMARK  status: ('A' for Active; 'I' for Inactive)
REMARK    1  A    between atoms: C_1  and  C_2
REMARK    2  A    between atoms: C_2  and  C_3
REMARK    3  A    between atoms: C_8  and  C_9
REMARK    4  A    between atoms: C_9  and  O_10
REMARK    5  A    between atoms: O_10  and  S_11
REMARK    6  A    between atoms: S_11  and  N_12
REMARK    7  A    between atoms: C_16  and  C_17
REMARK    8  A    between atoms: C_16  and  C_18
REMARK                            x       y       z     vdW  Elec       q    Type
REMARK                         _______ _______ _______ _____ _____    ______ ____
ROOT
ATOM      1  C   UNL     1       1.199   2.833  19.382  0.00  0.00    +0.000 C 
ATOM      2  O   UNL     1       2.316   1.934  19.400  0.00  0.00    +0.000 OA
ATOM      3  C   UNL     1       3.361   2.606  18.691  0.00  0.00    +0.000 C 
ATOM      4  C   UNL     1       4.237   3.460  19.622  0.00  0.00    +0.000 C 
ATOM      5  O   UNL     1       3.972   4.873  19.630  0.00  0.00    +0.000 OA
ATOM      6  C   UNL     1       3.816   5.541  18.363  0.00  0.00    +0.000 C 
ATOM      7  O   UNL     1       5.026   6.185  17.939  0.00  0.00    +0.000 OA
ATOM      8  C   UNL     1       5.693   5.266  17.077  0.00  0.00    +0.000 C 
ATOM      9  C   UNL     1       6.964   4.815  17.793  0.00  0.00    +0.000 C 
ATOM     10  C   UNL     1       6.098   5.979  15.785  0.00  0.00    +0.000 C 
ATOM     11  O   UNL     1       4.813   4.161  16.781  0.00  0.00    +0.000 OA
ATOM     12  C   UNL     1       3.499   4.599  17.216  0.00  0.00    +0.000 C 
ATOM     13  C   UNL     1       2.620   3.453  17.699  0.00  0.00    +0.000 C 
ATOM     14  O   UNL     1       1.464   3.894  18.448  0.00  0.00    +0.000 OA
ENDROOT
BRANCH   1  16
ATOM     15  C   UNL     1       1.644   2.457  21.897  0.00  0.00    +0.000 C 
ATOM     16  C   UNL     1       0.969   3.292  20.827  0.00  0.00    +0.000 C 
ENDBRANCH   1  16
BRANCH   6  17
ATOM     17  C   UNL     1       2.741   6.637  18.511  0.00  0.00    +0.000 C 
BRANCH  17  18
ATOM     18  O   UNL     1       2.825   7.234  19.804  0.00  0.00    +0.000 OA
BRANCH  18  19
ATOM     19  S   UNL     1       1.474   7.904  20.384  0.00  0.00    +0.000 S 
ATOM     20  O   UNL     1       1.089   8.988  19.511  0.00  0.00    +0.000 OA
ATOM     21  O   UNL     1       0.578   6.842  20.776  0.00  0.00    +0.000 OA
BRANCH  19  22
ATOM     22  N   UNL     1       2.036   8.621  21.796  0.00  0.00    +0.000 NA
ATOM     23  H   UNL     1       1.458   9.429  22.020  0.00  0.00    +0.000 HD
ATOM     24  H   UNL     1       3.021   8.833  21.705  0.00  0.00    +0.000 HD
ENDBRANCH  19  22
ENDBRANCH  18  19
ENDBRANCH  17  18
ENDBRANCH   6  17
TORSDOF 5
ENDMDL
