MODEL 1
REMARK VINA RESULT:      -7.4      0.000      0.000
REMARK  Name = 
REMARK  8 active torsions:
REMARK  status: ('A' for Active; 'I' for Inactive)
REMARK    1  A    between atoms: C_1  and  C_2
REMARK    2  A    between atoms: C_3  and  C_4
REMARK    3  A    between atoms: C_5  and  C_6
REMARK    4  A    between atoms: C_11  and  C_12
REMARK    5  A    between atoms: C_12  and  O_14
REMARK    6  A    between atoms: C_18  and  C_19
REMARK    7  A    between atoms: C_19  and  C_20
REMARK    8  A    between atoms: C_19  and  O_21
REMARK                            x       y       z     vdW  Elec       q    Type
REMARK                         _______ _______ _______ _____ _____    ______ ____
ROOT
ATOM      1  C   UNL     1       2.529   7.193  17.757  0.00  0.00    +0.000 C 
ATOM      2  C   UNL     1       3.270   6.513  18.906  0.00  0.00    +0.000 C 
ATOM      3  C   UNL     1       2.329   5.975  19.971  0.00  0.00    +0.000 C 
ATOM      4  C   UNL     1       2.237   4.632  19.870  0.00  0.00    +0.000 C 
ATOM      5  N   UNL     1       3.167   4.123  18.984  0.00  0.00    +0.000 N 
ATOM      6  C   UNL     1       2.844   3.606  17.767  0.00  0.00    +0.000 C 
ATOM      7  O   UNL     1       1.992   2.796  17.487  0.00  0.00    +0.000 OA
ATOM      8  C   UNL     1       3.866   4.511  17.048  0.00  0.00    +0.000 C 
ATOM      9  C   UNL     1       3.986   5.236  18.434  0.00  0.00    +0.000 C 
ENDROOT
BRANCH   3  10
ATOM     10  C   UNL     1       1.691   6.844  20.943  0.00  0.00    +0.000 C 
ATOM     11  C   UNL     1       1.623   8.186  20.869  0.00  0.00    +0.000 C 
BRANCH  11  12
ATOM     12  C   UNL     1       1.050   9.066  21.938  0.00  0.00    +0.000 C 
ATOM     13  C   UNL     1      -0.383   8.708  22.303  0.00  0.00    +0.000 C 
ATOM     14  C   UNL     1      -0.884   9.982  22.958  0.00  0.00    +0.000 C 
ATOM     15  C   UNL     1      -0.108  11.094  22.266  0.00  0.00    +0.000 C 
ATOM     16  N   UNL     1       0.910  10.438  21.440  0.00  0.00    +0.000 NA
ATOM     17  H   UNL     1       1.800  10.928  21.514  0.00  0.00    +0.000 HD
ENDBRANCH  11  12
ENDBRANCH   3  10
BRANCH   4  18
ATOM     18  C   UNL     1       1.338   3.720  20.640  0.00  0.00    +0.000 C 
ATOM     19  O   UNL     1       1.574   3.315  21.769  0.00  0.00    +0.000 OA
BRANCH  18  20
ATOM     20  O   UNL     1       0.214   3.360  19.980  0.00  0.00    +0.000 OA
ATOM     21  H   UNL     1      -0.089   2.439  20.145  0.00  0.00    +0.000 HD
ENDBRANCH  18  20
ENDBRANCH   4  18
BRANCH   8  22
ATOM     22  C   UNL     1       5.154   3.838  16.600  0.00  0.00    +0.000 C 
ATOM     23  C   UNL     1       5.535   4.217  15.178  0.00  0.00    +0.000 C 
BRANCH  22  24
ATOM     24  O   UNL     1       6.193   4.229  17.497  0.00  0.00    +0.000 OA
ATOM     25  H   UNL     1       7.051   4.114  17.050  0.00  0.00    +0.000 HD
ENDBRANCH  22  24
ENDBRANCH   8  22
TORSDOF 6
ENDMDL
MODEL 2
REMARK VINA RESULT:      -7.2      4.219      6.326
REMARK  Name = 
REMARK  8 active torsions:
REMARK  status: ('A' for Active; 'I' for Inactive)
REMARK    1  A    between atoms: C_1  and  C_2
REMARK    2  A    between atoms: C_3  and  C_4
REMARK    3  A    between atoms: C_5  and  C_6
REMARK    4  A    between atoms: C_11  and  C_12
REMARK    5  A    between atoms: C_12  and  O_14
REMARK    6  A    between atoms: C_18  and  C_19
REMARK    7  A    between atoms: C_19  and  C_20
REMARK    8  A    between atoms: C_19  and  O_21
REMARK                            x       y       z     vdW  Elec       q    Type
REMARK                         _______ _______ _______ _____ _____    ______ ____
ROOT
ATOM      1  C   UNL     1       4.010   7.506  18.054  0.00  0.00    +0.000 C 
ATOM      2  C   UNL     1       4.808   6.726  17.011  0.00  0.00    +0.000 C 
ATOM      3  C   UNL     1       6.278   6.599  17.375  0.00  0.00    +0.000 C 
ATOM      4  C   UNL     1       6.539   5.347  17.810  0.00  0.00    +0.000 C 
ATOM      5  N   UNL     1       5.465   4.502  17.604  0.00  0.00    +0.000 N 
ATOM      6  C   UNL     1       4.688   4.013  18.608  0.00  0.00    +0.000 C 
ATOM      7  O   UNL     1       5.026   3.488  19.644  0.00  0.00    +0.000 OA
ATOM      8  C   UNL     1       3.394   4.492  17.918  0.00  0.00    +0.000 C 
ATOM      9  C   UNL     1       4.363   5.255  16.948  0.00  0.00    +0.000 C 
ENDROOT
BRANCH   3  10
ATOM     10  C   UNL     1       7.209   7.701  17.212  0.00  0.00    +0.000 C 
ATOM     11  C   UNL     1       7.889   8.304  18.204  0.00  0.00    +0.000 C 
BRANCH  11  12
ATOM     12  C   UNL     1       8.764   9.507  18.022  0.00  0.00    +0.000 C 
ATOM     13  C   UNL     1       9.322  10.044  19.331  0.00  0.00    +0.000 C 
ATOM     14  C   UNL     1       9.698  11.469  18.970  0.00  0.00    +0.000 C 
ATOM     15  C   UNL     1       8.700  11.861  17.889  0.00  0.00    +0.000 C 
ATOM     16  N   UNL     1       7.970  10.640  17.536  0.00  0.00    +0.000 NA
ATOM     17  H   UNL     1       7.851  10.574  16.526  0.00  0.00    +0.000 HD
ENDBRANCH  11  12
ENDBRANCH   3  10
BRANCH   4  18
ATOM     18  C   UNL     1       7.821   4.828  18.375  0.00  0.00    +0.000 C 
ATOM     19  O   UNL     1       8.577   4.072  17.782  0.00  0.00    +0.000 OA
BRANCH  18  20
ATOM     20  O   UNL     1       8.094   5.261  19.627  0.00  0.00    +0.000 OA
ATOM     21  H   UNL     1       9.013   5.094  19.934  0.00  0.00    +0.000 HD
ENDBRANCH  18  20
ENDBRANCH   4  18
BRANCH   8  22
ATOM     22  C   UNL     1       2.568   3.416  17.229  0.00  0.00    +0.000 C 
ATOM     23  C   UNL     1       2.609   2.095  17.978  0.00  0.00    +0.000 C 
BRANCH  22  24
ATOM     24  O   UNL     1       1.221   3.881  17.143  0.00  0.00    +0.000 OA
ATOM     25  H   UNL     1       1.204   4.829  17.367  0.00  0.00    +0.000 HD
ENDBRANCH  22  24
ENDBRANCH   8  22
TORSDOF 6
ENDMDL
MODEL 3
REMARK VINA RESULT:      -7.2      4.078      7.354
REMARK  Name = 
REMARK  8 active torsions:
REMARK  status: ('A' for Active; 'I' for Inactive)
REMARK    1  A    between atoms: C_1  and  C_2
REMARK    2  A    between atoms: C_3  and  C_4
REMARK    3  A    between atoms: C_5  and  C_6
REMARK    4  A    between atoms: C_11  and  C_12
REMARK    5  A    between atoms: C_12  and  O_14
REMARK    6  A    between atoms: C_18  and  C_19
REMARK    7  A    between atoms: C_19  and  C_20
REMARK    8  A    between atoms: C_19  and  O_21
REMARK                            x       y       z     vdW  Elec       q    Type
REMARK                         _______ _______ _______ _____ _____    ______ ____
ROOT
ATOM      1  C   UNL     1       2.100   9.630  18.144  0.00  0.00    +0.000 C 
ATOM      2  C   UNL     1       0.818   9.333  18.921  0.00  0.00    +0.000 C 
ATOM      3  C   UNL     1       1.092   8.782  20.310  0.00  0.00    +0.000 C 
ATOM      4  C   UNL     1       0.864   9.736  21.239  0.00  0.00    +0.000 C 
ATOM      5  N   UNL     1       0.258  10.848  20.686  0.00  0.00    +0.000 N 
ATOM      6  C   UNL     1       0.886  12.044  20.524  0.00  0.00    +0.000 C 
ATOM      7  O   UNL     1       1.538  12.676  21.323  0.00  0.00    +0.000 OA
ATOM      8  C   UNL     1       0.502  12.108  19.031  0.00  0.00    +0.000 C 
ATOM      9  C   UNL     1       0.040  10.622  19.233  0.00  0.00    +0.000 C 
ENDROOT
BRANCH   3  10
ATOM     10  C   UNL     1       1.499   7.405  20.525  0.00  0.00    +0.000 C 
ATOM     11  C   UNL     1       2.282   6.683  19.703  0.00  0.00    +0.000 C 
BRANCH  11  12
ATOM     12  C   UNL     1       2.602   5.231  19.896  0.00  0.00    +0.000 C 
ATOM     13  C   UNL     1       1.636   4.305  19.172  0.00  0.00    +0.000 C 
ATOM     14  C   UNL     1       1.825   2.991  19.907  0.00  0.00    +0.000 C 
ATOM     15  C   UNL     1       2.192   3.402  21.326  0.00  0.00    +0.000 C 
ATOM     16  N   UNL     1       2.402   4.852  21.297  0.00  0.00    +0.000 NA
ATOM     17  H   UNL     1       3.222   5.105  21.847  0.00  0.00    +0.000 HD
ENDBRANCH  11  12
ENDBRANCH   3  10
BRANCH   4  18
ATOM     18  C   UNL     1       1.119   9.656  22.708  0.00  0.00    +0.000 C 
ATOM     19  O   UNL     1       0.255   9.790  23.564  0.00  0.00    +0.000 OA
BRANCH  18  20
ATOM     20  O   UNL     1       2.409   9.422  23.038  0.00  0.00    +0.000 OA
ATOM     21  H   UNL     1       2.540   8.876  23.845  0.00  0.00    +0.000 HD
ENDBRANCH  18  20
ENDBRANCH   4  18
BRANCH   8  22
ATOM     22  C   UNL     1      -0.634  13.055  18.674  0.00  0.00    +0.000 C 
ATOM     23  C   UNL     1      -0.207  14.511  18.734  0.00  0.00    +0.000 C 
BRANCH  22  24
ATOM     24  O   UNL     1      -1.078  12.736  17.355  0.00  0.00    +0.000 OA
ATOM     25  H   UNL     1      -0.485  12.057  16.983  0.00  0.00    +0.000 HD
ENDBRANCH  22  24
ENDBRANCH   8  22
TORSDOF 6
ENDMDL
MODEL 4
REMARK VINA RESULT:      -7.1      2.343      4.162
REMARK  Name = 
REMARK  8 active torsions:
REMARK  status: ('A' for Active; 'I' for Inactive)
REMARK    1  A    between atoms: C_1  and  C_2
REMARK    2  A    between atoms: C_3  and  C_4
REMARK    3  A    between atoms: C_5  and  C_6
REMARK    4  A    between atoms: C_11  and  C_12
REMARK    5  A    between atoms: C_12  and  O_14
REMARK    6  A    between atoms: C_18  and  C_19
REMARK    7  A    between atoms: C_19  and  C_20
REMARK    8  A    between atoms: C_19  and  O_21
REMARK                            x       y       z     vdW  Elec       q    Type
REMARK                         _______ _______ _______ _____ _____    ______ ____
ROOT
ATOM      1  C   UNL     1       2.210   5.816  20.160  0.00  0.00    +0.000 C 
ATOM      2  C   UNL     1       2.072   5.768  18.640  0.00  0.00    +0.000 C 
ATOM      3  C   UNL     1       2.961   6.783  17.940  0.00  0.00    +0.000 C 
ATOM      4  C   UNL     1       4.022   6.161  17.383  0.00  0.00    +0.000 C 
ATOM      5  N   UNL     1       3.888   4.787  17.428  0.00  0.00    +0.000 N 
ATOM      6  C   UNL     1       4.636   3.983  18.231  0.00  0.00    +0.000 C 
ATOM      7  O   UNL     1       5.835   3.967  18.387  0.00  0.00    +0.000 OA
ATOM      8  C   UNL     1       3.380   3.304  18.817  0.00  0.00    +0.000 C 
ATOM      9  C   UNL     1       2.593   4.437  18.071  0.00  0.00    +0.000 C 
ENDROOT
BRANCH   3  10
ATOM     10  C   UNL     1       2.624   8.195  17.891  0.00  0.00    +0.000 C 
ATOM     11  C   UNL     1       1.595   8.777  18.532  0.00  0.00    +0.000 C 
BRANCH  11  12
ATOM     12  C   UNL     1       1.208  10.217  18.381  0.00  0.00    +0.000 C 
ATOM     13  C   UNL     1       1.131  10.957  19.708  0.00  0.00    +0.000 C 
ATOM     14  C   UNL     1       0.260  12.152  19.369  0.00  0.00    +0.000 C 
ATOM     15  C   UNL     1      -0.665  11.646  18.271  0.00  0.00    +0.000 C 
ATOM     16  N   UNL     1      -0.169  10.321  17.890  0.00  0.00    +0.000 NA
ATOM     17  H   UNL     1      -0.187  10.211  16.877  0.00  0.00    +0.000 HD
ENDBRANCH  11  12
ENDBRANCH   3  10
BRANCH   4  18
ATOM     18  C   UNL     1       5.194   6.792  16.705  0.00  0.00    +0.000 C 
ATOM     19  O   UNL     1       5.237   7.058  15.513  0.00  0.00    +0.000 OA
BRANCH  18  20
ATOM     20  O   UNL     1       6.238   7.053  17.525  0.00  0.00    +0.000 OA
ATOM     21  H   UNL     1       6.669   7.925  17.385  0.00  0.00    +0.000 HD
ENDBRANCH  18  20
ENDBRANCH   4  18
BRANCH   8  22
ATOM     22  C   UNL     1       3.073   1.907  18.299  0.00  0.00    +0.000 C 
ATOM     23  C   UNL     1       4.091   0.883  18.770  0.00  0.00    +0.000 C 
BRANCH  22  24
ATOM     24  O   UNL     1       1.772   1.541  18.758  0.00  0.00    +0.000 OA
ATOM     25  H   UNL     1       1.319   2.342  19.080  0.00  0.00    +0.000 HD
ENDBRANCH  22  24
ENDBRANCH   8  22
TORSDOF 6
ENDMDL
MODEL 5
REMARK VINA RESULT:      -7.1      2.408      4.235
REMARK  Name = 
REMARK  8 active torsions:
REMARK  status: ('A' for Active; 'I' for Inactive)
REMARK    1  A    between atoms: C_1  and  C_2
REMARK    2  A    between atoms: C_3  and  C_4
REMARK    3  A    between atoms: C_5  and  C_6
REMARK    4  A    between atoms: C_11  and  C_12
REMARK    5  A    between atoms: C_12  and  O_14
REMARK    6  A    between atoms: C_18  and  C_19
REMARK    7  A    between atoms: C_19  and  C_20
REMARK    8  A    between atoms: C_19  and  O_21
REMARK                            x       y       z     vdW  Elec       q    Type
REMARK                         _______ _______ _______ _____ _____    ______ ____
ROOT
ATOM      1  C   UNL     1       2.148   5.874  20.087  0.00  0.00    +0.000 C 
ATOM      2  C   UNL     1       2.082   5.846  18.561  0.00  0.00    +0.000 C 
ATOM      3  C   UNL     1       3.018   6.857  17.918  0.00  0.00    +0.000 C 
ATOM      4  C   UNL     1       4.095   6.226  17.404  0.00  0.00    +0.000 C 
ATOM      5  N   UNL     1       3.938   4.853  17.424  0.00  0.00    +0.000 N 
ATOM      6  C   UNL     1       4.636   4.028  18.251  0.00  0.00    +0.000 C 
ATOM      7  O   UNL     1       5.826   3.992  18.464  0.00  0.00    +0.000 OA
ATOM      8  C   UNL     1       3.344   3.361  18.768  0.00  0.00    +0.000 C 
ATOM      9  C   UNL     1       2.610   4.515  18.000  0.00  0.00    +0.000 C 
ENDROOT
BRANCH   3  10
ATOM     10  C   UNL     1       2.705   8.274  17.871  0.00  0.00    +0.000 C 
ATOM     11  C   UNL     1       1.679   8.870  18.505  0.00  0.00    +0.000 C 
BRANCH  11  12
ATOM     12  C   UNL     1       1.317  10.317  18.356  0.00  0.00    +0.000 C 
ATOM     13  C   UNL     1       2.496  11.190  17.951  0.00  0.00    +0.000 C 
ATOM     14  C   UNL     1       2.038  12.576  18.366  0.00  0.00    +0.000 C 
ATOM     15  C   UNL     1       1.137  12.332  19.568  0.00  0.00    +0.000 C 
ATOM     16  N   UNL     1       0.948  10.881  19.657  0.00  0.00    +0.000 NA
ATOM     17  H   UNL     1      -0.025  10.660  19.870  0.00  0.00    +0.000 HD
ENDBRANCH  11  12
ENDBRANCH   3  10
BRANCH   4  18
ATOM     18  C   UNL     1       5.308   6.847  16.791  0.00  0.00    +0.000 C 
ATOM     19  O   UNL     1       6.240   7.310  17.431  0.00  0.00    +0.000 OA
BRANCH  18  20
ATOM     20  O   UNL     1       5.301   6.865  15.439  0.00  0.00    +0.000 OA
ATOM     21  H   UNL     1       6.187   6.805  15.017  0.00  0.00    +0.000 HD
ENDBRANCH  18  20
ENDBRANCH   4  18
BRANCH   8  22
ATOM     22  C   UNL     1       3.041   1.976  18.218  0.00  0.00    +0.000 C 
ATOM     23  C   UNL     1       4.038   0.936  18.700  0.00  0.00    +0.000 C 
BRANCH  22  24
ATOM     24  O   UNL     1       1.725   1.612  18.635  0.00  0.00    +0.000 OA
ATOM     25  H   UNL     1       1.083   2.173  18.164  0.00  0.00    +0.000 HD
ENDBRANCH  22  24
ENDBRANCH   8  22
TORSDOF 6
ENDMDL
MODEL 6
REMARK VINA RESULT:      -7.0      1.232      1.367
REMARK  Name = 
REMARK  8 active torsions:
REMARK  status: ('A' for Active; 'I' for Inactive)
REMARK    1  A    between atoms: C_1  and  C_2
REMARK    2  A    between atoms: C_3  and  C_4
REMARK    3  A    between atoms: C_5  and  C_6
REMARK    4  A    between atoms: C_11  and  C_12
REMARK    5  A    between atoms: C_12  and  O_14
REMARK    6  A    between atoms: C_18  and  C_19
REMARK    7  A    between atoms: C_19  and  C_20
REMARK    8  A    between atoms: C_19  and  O_21
REMARK                            x       y       z     vdW  Elec       q    Type
REMARK                         _______ _______ _______ _____ _____    ______ ____
ROOT
ATOM      1  C   UNL     1       2.794   6.873  17.823  0.00  0.00    +0.000 C 
ATOM      2  C   UNL     1       3.304   6.651  19.246  0.00  0.00    +0.000 C 
ATOM      3  C   UNL     1       2.256   6.024  20.150  0.00  0.00    +0.000 C 
ATOM      4  C   UNL     1       2.545   4.721  20.356  0.00  0.00    +0.000 C 
ATOM      5  N   UNL     1       3.796   4.394  19.868  0.00  0.00    +0.000 N 
ATOM      6  C   UNL     1       3.996   3.615  18.771  0.00  0.00    +0.000 C 
ATOM      7  O   UNL     1       3.503   2.544  18.498  0.00  0.00    +0.000 OA
ATOM      8  C   UNL     1       4.920   4.666  18.123  0.00  0.00    +0.000 C 
ATOM      9  C   UNL     1       4.429   5.604  19.281  0.00  0.00    +0.000 C 
ENDROOT
BRANCH   3  10
ATOM     10  C   UNL     1       1.156   6.794  20.702  0.00  0.00    +0.000 C 
ATOM     11  C   UNL     1       1.071   8.136  20.720  0.00  0.00    +0.000 C 
BRANCH  11  12
ATOM     12  C   UNL     1      -0.026   8.907  21.389  0.00  0.00    +0.000 C 
ATOM     13  C   UNL     1      -0.098  10.359  20.938  0.00  0.00    +0.000 C 
ATOM     14  C   UNL     1      -0.869  11.017  22.067  0.00  0.00    +0.000 C 
ATOM     15  C   UNL     1      -0.500  10.205  23.300  0.00  0.00    +0.000 C 
ATOM     16  N   UNL     1       0.253   9.042  22.821  0.00  0.00    +0.000 NA
ATOM     17  H   UNL     1      -0.040   8.200  23.315  0.00  0.00    +0.000 HD
ENDBRANCH  11  12
ENDBRANCH   3  10
BRANCH   4  18
ATOM     18  C   UNL     1       1.720   3.709  21.083  0.00  0.00    +0.000 C 
ATOM     19  O   UNL     1       2.047   3.187  22.139  0.00  0.00    +0.000 OA
BRANCH  18  20
ATOM     20  O   UNL     1       0.555   3.398  20.472  0.00  0.00    +0.000 OA
ATOM     21  H   UNL     1       0.646   3.031  19.564  0.00  0.00    +0.000 HD
ENDBRANCH  18  20
ENDBRANCH   4  18
BRANCH   8  22
ATOM     22  C   UNL     1       6.410   4.367  18.173  0.00  0.00    +0.000 C 
ATOM     23  C   UNL     1       7.091   4.617  16.838  0.00  0.00    +0.000 C 
BRANCH  22  24
ATOM     24  O   UNL     1       6.995   5.198  19.175  0.00  0.00    +0.000 OA
ATOM     25  H   UNL     1       7.765   4.736  19.553  0.00  0.00    +0.000 HD
ENDBRANCH  22  24
ENDBRANCH   8  22
TORSDOF 6
ENDMDL
MODEL 7
REMARK VINA RESULT:      -6.8      2.462      7.414
REMARK  Name = 
REMARK  8 active torsions:
REMARK  status: ('A' for Active; 'I' for Inactive)
REMARK    1  A    between atoms: C_1  and  C_2
REMARK    2  A    between atoms: C_3  and  C_4
REMARK    3  A    between atoms: C_5  and  C_6
REMARK    4  A    between atoms: C_11  and  C_12
REMARK    5  A    between atoms: C_12  and  O_14
REMARK    6  A    between atoms: C_18  and  C_19
REMARK    7  A    between atoms: C_19  and  C_20
REMARK    8  A    between atoms: C_19  and  O_21
REMARK                            x       y       z     vdW  Elec       q    Type
REMARK                         _______ _______ _______ _____ _____    ______ ____
ROOT
ATOM      1  C   UNL     1       5.301   6.764  18.120  0.00  0.00    +0.000 C 
ATOM      2  C   UNL     1       4.058   6.317  17.353  0.00  0.00    +0.000 C 
ATOM      3  C   UNL     1       3.997   4.809  17.169  0.00  0.00    +0.000 C 
ATOM      4  C   UNL     1       3.082   4.279  18.010  0.00  0.00    +0.000 C 
ATOM      5  N   UNL     1       2.333   5.260  18.631  0.00  0.00    +0.000 N 
ATOM      6  C   UNL     1       2.442   5.568  19.952  0.00  0.00    +0.000 C 
ATOM      7  O   UNL     1       2.442   4.828  20.908  0.00  0.00    +0.000 OA
ATOM      8  C   UNL     1       2.643   7.067  19.644  0.00  0.00    +0.000 C 
ATOM      9  C   UNL     1       2.775   6.597  18.153  0.00  0.00    +0.000 C 
ENDROOT
BRANCH   3  10
ATOM     10  C   UNL     1       4.810   4.121  16.183  0.00  0.00    +0.000 C 
ATOM     11  C   UNL     1       5.469   4.705  15.167  0.00  0.00    +0.000 C 
BRANCH  11  12
ATOM     12  C   UNL     1       6.217   3.961  14.102  0.00  0.00    +0.000 C 
ATOM     13  C   UNL     1       7.144   4.852  13.289  0.00  0.00    +0.000 C 
ATOM     14  C   UNL     1       7.356   4.039  12.024  0.00  0.00    +0.000 C 
ATOM     15  C   UNL     1       6.061   3.256  11.857  0.00  0.00    +0.000 C 
ATOM     16  N   UNL     1       5.285   3.470  13.082  0.00  0.00    +0.000 NA
ATOM     17  H   UNL     1       4.858   2.598  13.391  0.00  0.00    +0.000 HD
ENDBRANCH  11  12
ENDBRANCH   3  10
BRANCH   4  18
ATOM     18  C   UNL     1       2.787   2.833  18.239  0.00  0.00    +0.000 C 
ATOM     19  O   UNL     1       2.056   2.159  17.527  0.00  0.00    +0.000 OA
BRANCH  18  20
ATOM     20  O   UNL     1       3.398   2.305  19.324  0.00  0.00    +0.000 OA
ATOM     21  H   UNL     1       3.420   2.889  20.114  0.00  0.00    +0.000 HD
ENDBRANCH  18  20
ENDBRANCH   4  18
BRANCH   8  22
ATOM     22  C   UNL     1       1.443   7.966  19.894  0.00  0.00    +0.000 C 
ATOM     23  C   UNL     1       1.331   8.382  21.351  0.00  0.00    +0.000 C 
BRANCH  22  24
ATOM     24  O   UNL     1       1.579   9.125  19.071  0.00  0.00    +0.000 OA
ATOM     25  H   UNL     1       2.528   9.299  18.933  0.00  0.00    +0.000 HD
ENDBRANCH  22  24
ENDBRANCH   8  22
TORSDOF 6
ENDMDL
MODEL 8
REMARK VINA RESULT:      -6.7      2.875      4.125
REMARK  Name = 
REMARK  8 active torsions:
REMARK  status: ('A' for Active; 'I' for Inactive)
REMARK    1  A    between atoms: C_1  and  C_2
REMARK    2  A    between atoms: C_3  and  C_4
REMARK    3  A    between atoms: C_5  and  C_6
REMARK    4  A    between atoms: C_11  and  C_12
REMARK    5  A    between atoms: C_12  and  O_14
REMARK    6  A    between atoms: C_18  and  C_19
REMARK    7  A    between atoms: C_19  and  C_20
REMARK    8  A    between atoms: C_19  and  O_21
REMARK                            x       y       z     vdW  Elec       q    Type
REMARK                         _______ _______ _______ _____ _____    ______ ____
ROOT
ATOM      1  C   UNL     1       2.257   6.137  20.380  0.00  0.00    +0.000 C 
ATOM      2  C   UNL     1       2.229   5.769  18.897  0.00  0.00    +0.000 C 
ATOM      3  C   UNL     1       3.015   6.745  18.038  0.00  0.00    +0.000 C 
ATOM      4  C   UNL     1       4.186   6.189  17.661  0.00  0.00    +0.000 C 
ATOM      5  N   UNL     1       4.238   4.846  17.982  0.00  0.00    +0.000 N 
ATOM      6  C   UNL     1       5.033   4.335  18.961  0.00  0.00    +0.000 C 
ATOM      7  O   UNL     1       6.210   4.527  19.162  0.00  0.00    +0.000 OA
ATOM      8  C   UNL     1       3.846   3.608  19.626  0.00  0.00    +0.000 C 
ATOM      9  C   UNL     1       2.963   4.444  18.634  0.00  0.00    +0.000 C 
ENDROOT
BRANCH   3  10
ATOM     10  C   UNL     1       2.493   8.054  17.688  0.00  0.00    +0.000 C 
ATOM     11  C   UNL     1       1.804   8.867  18.508  0.00  0.00    +0.000 C 
BRANCH  11  12
ATOM     12  C   UNL     1       1.187  10.168  18.089  0.00  0.00    +0.000 C 
ATOM     13  C   UNL     1       1.326  11.260  19.139  0.00  0.00    +0.000 C 
ATOM     14  C   UNL     1       0.234  12.238  18.745  0.00  0.00    +0.000 C 
ATOM     15  C   UNL     1      -0.844  11.366  18.117  0.00  0.00    +0.000 C 
ATOM     16  N   UNL     1      -0.268  10.025  17.983  0.00  0.00    +0.000 NA
ATOM     17  H   UNL     1      -0.513   9.619  17.081  0.00  0.00    +0.000 HD
ENDBRANCH  11  12
ENDBRANCH   3  10
BRANCH   4  18
ATOM     18  C   UNL     1       5.304   6.838  16.913  0.00  0.00    +0.000 C 
ATOM     19  O   UNL     1       6.267   7.373  17.445  0.00  0.00    +0.000 OA
BRANCH  18  20
ATOM     20  O   UNL     1       5.172   6.797  15.568  0.00  0.00    +0.000 OA
ATOM     21  H   UNL     1       5.248   5.901  15.170  0.00  0.00    +0.000 HD
ENDBRANCH  18  20
ENDBRANCH   4  18
BRANCH   8  22
ATOM     22  C   UNL     1       3.767   2.107  19.395  0.00  0.00    +0.000 C 
ATOM     23  C   UNL     1       3.424   1.766  17.955  0.00  0.00    +0.000 C 
BRANCH  22  24
ATOM     24  O   UNL     1       5.032   1.541  19.736  0.00  0.00    +0.000 OA
ATOM     25  H   UNL     1       5.268   1.827  20.638  0.00  0.00    +0.000 HD
ENDBRANCH  22  24
ENDBRANCH   8  22
TORSDOF 6
ENDMDL
MODEL 9
REMARK VINA RESULT:      -6.6      4.039      7.611
REMARK  Name = 
REMARK  8 active torsions:
REMARK  status: ('A' for Active; 'I' for Inactive)
REMARK    1  A    between atoms: C_1  and  C_2
REMARK    2  A    between atoms: C_3  and  C_4
REMARK    3  A    between atoms: C_5  and  C_6
REMARK    4  A    between atoms: C_11  and  C_12
REMARK    5  A    between atoms: C_12  and  O_14
REMARK    6  A    between atoms: C_18  and  C_19
REMARK    7  A    between atoms: C_19  and  C_20
REMARK    8  A    between atoms: C_19  and  O_21
REMARK                            x       y       z     vdW  Elec       q    Type
REMARK                         _______ _______ _______ _____ _____    ______ ____
ROOT
ATOM      1  C   UNL     1       2.554  10.314  17.858  0.00  0.00    +0.000 C 
ATOM      2  C   UNL     1       1.237   9.702  18.333  0.00  0.00    +0.000 C 
ATOM      3  C   UNL     1       1.401   8.873  19.597  0.00  0.00    +0.000 C 
ATOM      4  C   UNL     1       0.914   9.551  20.659  0.00  0.00    +0.000 C 
ATOM      5  N   UNL     1       0.233  10.688  20.268  0.00  0.00    +0.000 N 
ATOM      6  C   UNL     1       0.696  11.951  20.472  0.00  0.00    +0.000 C 
ATOM      7  O   UNL     1       1.137  12.445  21.484  0.00  0.00    +0.000 OA
ATOM      8  C   UNL     1       0.509  12.321  18.986  0.00  0.00    +0.000 C 
ATOM      9  C   UNL     1       0.245  10.787  18.785  0.00  0.00    +0.000 C 
ENDROOT
BRANCH   3  10
ATOM     10  C   UNL     1       1.972   7.539  19.573  0.00  0.00    +0.000 C 
ATOM     11  C   UNL     1       2.298   6.847  18.466  0.00  0.00    +0.000 C 
BRANCH  11  12
ATOM     12  C   UNL     1       2.789   5.430  18.466  0.00  0.00    +0.000 C 
ATOM     13  C   UNL     1       3.997   5.216  17.566  0.00  0.00    +0.000 C 
ATOM     14  C   UNL     1       3.970   3.718  17.329  0.00  0.00    +0.000 C 
ATOM     15  C   UNL     1       2.494   3.352  17.393  0.00  0.00    +0.000 C 
ATOM     16  N   UNL     1       1.788   4.550  17.856  0.00  0.00    +0.000 NA
ATOM     17  H   UNL     1       1.077   4.303  18.542  0.00  0.00    +0.000 HD
ENDBRANCH  11  12
ENDBRANCH   3  10
BRANCH   4  18
ATOM     18  C   UNL     1       0.980   9.156  22.098  0.00  0.00    +0.000 C 
ATOM     19  O   UNL     1       0.015   8.794  22.756  0.00  0.00    +0.000 OA
BRANCH  18  20
ATOM     20  O   UNL     1       2.216   9.234  22.641  0.00  0.00    +0.000 OA
ATOM     21  H   UNL     1       2.868   8.590  22.284  0.00  0.00    +0.000 HD
ENDBRANCH  18  20
ENDBRANCH   4  18
BRANCH   8  22
ATOM     22  C   UNL     1      -0.695  13.192  18.662  0.00  0.00    +0.000 C 
ATOM     23  C   UNL     1      -0.384  14.673  18.796  0.00  0.00    +0.000 C 
BRANCH  22  24
ATOM     24  O   UNL     1      -1.101  12.904  17.324  0.00  0.00    +0.000 OA
ATOM     25  H   UNL     1      -1.295  11.951  17.255  0.00  0.00    +0.000 HD
ENDBRANCH  22  24
ENDBRANCH   8  22
TORSDOF 6
ENDMDL
