MODEL 1
REMARK VINA RESULT:      -9.0      0.000      0.000
REMARK  Name = 
REMARK  9 active torsions:
REMARK  status: ('A' for Active; 'I' for Inactive)
REMARK    1  A    between atoms: C_1  and  O_2
REMARK    2  A    between atoms: O_2  and  C_3
REMARK    3  A    between atoms: C_5  and  C_6
REMARK    4  A    between atoms: C_12  and  C_13
REMARK    5  A    between atoms: N_15  and  C_16
REMARK    6  A    between atoms: C_26  and  O_27
REMARK    7  A    between atoms: O_27  and  C_28
REMARK    8  A    between atoms: C_29  and  O_30
REMARK    9  A    between atoms: O_30  and  C_31
REMARK                            x       y       z     vdW  Elec       q    Type
REMARK                         _______ _______ _______ _____ _____    ______ ____
ROOT
ATOM      1  C   UNL     1       3.944   3.698  17.692  0.00  0.00    +0.000 A 
ATOM      2  C   UNL     1       3.652   2.382  17.677  0.00  0.00    +0.000 A 
ATOM      3  C   UNL     1       2.726   1.870  18.711  0.00  0.00    +0.000 A 
ATOM      4  N   UNL     1       2.127   2.564  19.636  0.00  0.00    +0.000 NA
ATOM      5  C   UNL     1       2.356   3.918  19.581  0.00  0.00    +0.000 A 
ATOM      6  C   UNL     1       1.811   4.935  20.344  0.00  0.00    +0.000 A 
ATOM      7  C   UNL     1       2.236   6.116  19.735  0.00  0.00    +0.000 A 
ATOM      8  N   UNL     1       3.166   5.874  18.778  0.00  0.00    +0.000 NA
ATOM      9  N   UNL     1       3.222   4.517  18.633  0.00  0.00    +0.000 N 
ENDROOT
BRANCH   7  10
ATOM     10  C   UNL     1       1.827   7.515  20.051  0.00  0.00    +0.000 A 
ATOM     11  C   UNL     1       1.568   7.840  21.375  0.00  0.00    +0.000 A 
ATOM     12  N   UNL     1       0.740   8.915  21.313  0.00  0.00    +0.000 N 
ATOM     13  C   UNL     1      -0.635   8.869  21.768  0.00  0.00    +0.000 C 
ATOM     14  C   UNL     1       1.142   9.688  20.268  0.00  0.00    +0.000 A 
ATOM     15  C   UNL     1       0.989  11.073  20.066  0.00  0.00    +0.000 A 
ATOM     16  C   UNL     1       1.359  11.600  18.837  0.00  0.00    +0.000 A 
ATOM     17  C   UNL     1       1.783  10.740  17.824  0.00  0.00    +0.000 A 
ATOM     18  C   UNL     1       1.925   9.339  18.043  0.00  0.00    +0.000 A 
ATOM     19  C   UNL     1       1.692   8.781  19.330  0.00  0.00    +0.000 A 
ENDBRANCH   7  10
BRANCH   1  22
ATOM     20  C   UNL     1       6.188   3.995  14.545  0.00  0.00    +0.000 A 
ATOM     21  C   UNL     1       5.205   3.519  15.473  0.00  0.00    +0.000 A 
ATOM     22  C   UNL     1       4.991   4.147  16.692  0.00  0.00    +0.000 A 
ATOM     23  C   UNL     1       5.851   5.236  16.981  0.00  0.00    +0.000 A 
ATOM     24  C   UNL     1       6.892   5.669  16.114  0.00  0.00    +0.000 A 
ATOM     25  C   UNL     1       7.073   5.036  14.877  0.00  0.00    +0.000 A 
BRANCH  20  27
ATOM     26  C   UNL     1       5.164   3.459  12.493  0.00  0.00    +0.000 C 
ATOM     27  O   UNL     1       6.319   3.370  13.330  0.00  0.00    +0.000 OA
ENDBRANCH  20  27
BRANCH  24  28
ATOM     28  O   UNL     1       7.614   6.701  16.663  0.00  0.00    +0.000 OA
ATOM     29  C   UNL     1       7.701   6.828  18.084  0.00  0.00    +0.000 C 
ENDBRANCH  24  28
BRANCH  25  30
ATOM     30  O   UNL     1       8.123   5.488  14.126  0.00  0.00    +0.000 OA
ATOM     31  C   UNL     1       8.023   5.725  12.735  0.00  0.00    +0.000 C 
ENDBRANCH  25  30
ENDBRANCH   1  22
TORSDOF 5
ENDMDL
MODEL 2
REMARK VINA RESULT:      -8.7      0.933      1.861
REMARK  Name = 
REMARK  9 active torsions:
REMARK  status: ('A' for Active; 'I' for Inactive)
REMARK    1  A    between atoms: C_1  and  O_2
REMARK    2  A    between atoms: O_2  and  C_3
REMARK    3  A    between atoms: C_5  and  C_6
REMARK    4  A    between atoms: C_12  and  C_13
REMARK    5  A    between atoms: N_15  and  C_16
REMARK    6  A    between atoms: C_26  and  O_27
REMARK    7  A    between atoms: O_27  and  C_28
REMARK    8  A    between atoms: C_29  and  O_30
REMARK    9  A    between atoms: O_30  and  C_31
REMARK                            x       y       z     vdW  Elec       q    Type
REMARK                         _______ _______ _______ _____ _____    ______ ____
ROOT
ATOM      1  C   UNL     1       4.175   4.062  18.012  0.00  0.00    +0.000 A 
ATOM      2  C   UNL     1       4.049   2.747  18.276  0.00  0.00    +0.000 A 
ATOM      3  C   UNL     1       3.190   2.352  19.414  0.00  0.00    +0.000 A 
ATOM      4  N   UNL     1       2.507   3.145  20.188  0.00  0.00    +0.000 NA
ATOM      5  C   UNL     1       2.567   4.475  19.850  0.00  0.00    +0.000 A 
ATOM      6  C   UNL     1       1.898   5.555  20.399  0.00  0.00    +0.000 A 
ATOM      7  C   UNL     1       2.176   6.627  19.549  0.00  0.00    +0.000 A 
ATOM      8  N   UNL     1       3.131   6.305  18.642  0.00  0.00    +0.000 NA
ATOM      9  N   UNL     1       3.355   4.965  18.779  0.00  0.00    +0.000 N 
ENDROOT
BRANCH   7  10
ATOM     10  C   UNL     1       1.597   8.000  19.579  0.00  0.00    +0.000 A 
ATOM     11  C   UNL     1       1.365   8.643  18.371  0.00  0.00    +0.000 A 
ATOM     12  N   UNL     1       1.374   9.966  18.674  0.00  0.00    +0.000 N 
ATOM     13  C   UNL     1       2.389  10.874  18.179  0.00  0.00    +0.000 C 
ATOM     14  C   UNL     1       0.783  10.117  19.891  0.00  0.00    +0.000 A 
ATOM     15  C   UNL     1       0.106  11.228  20.428  0.00  0.00    +0.000 A 
ATOM     16  C   UNL     1      -0.277  11.181  21.760  0.00  0.00    +0.000 A 
ATOM     17  C   UNL     1       0.093  10.084  22.538  0.00  0.00    +0.000 A 
ATOM     18  C   UNL     1       0.785   8.970  21.981  0.00  0.00    +0.000 A 
ATOM     19  C   UNL     1       1.070   8.920  20.589  0.00  0.00    +0.000 A 
ENDBRANCH   7  10
BRANCH   1  22
ATOM     20  C   UNL     1       6.243   4.064  14.733  0.00  0.00    +0.000 A 
ATOM     21  C   UNL     1       5.317   3.675  15.755  0.00  0.00    +0.000 A 
ATOM     22  C   UNL     1       5.162   4.418  16.917  0.00  0.00    +0.000 A 
ATOM     23  C   UNL     1       6.024   5.535  17.051  0.00  0.00    +0.000 A 
ATOM     24  C   UNL     1       7.013   5.887  16.091  0.00  0.00    +0.000 A 
ATOM     25  C   UNL     1       7.134   5.137  14.913  0.00  0.00    +0.000 A 
BRANCH  20  27
ATOM     26  C   UNL     1       5.205   3.497  12.696  0.00  0.00    +0.000 C 
ATOM     27  O   UNL     1       6.316   3.324  13.579  0.00  0.00    +0.000 OA
ENDBRANCH  20  27
BRANCH  24  28
ATOM     28  O   UNL     1       7.752   6.972  16.497  0.00  0.00    +0.000 OA
ATOM     29  C   UNL     1       7.703   7.392  17.862  0.00  0.00    +0.000 C 
ENDBRANCH  24  28
BRANCH  25  30
ATOM     30  O   UNL     1       8.136   5.520  14.066  0.00  0.00    +0.000 OA
ATOM     31  C   UNL     1       7.951   5.647  12.669  0.00  0.00    +0.000 C 
ENDBRANCH  25  30
ENDBRANCH   1  22
TORSDOF 5
ENDMDL
MODEL 3
REMARK VINA RESULT:      -8.5      0.273      2.350
REMARK  Name = 
REMARK  9 active torsions:
REMARK  status: ('A' for Active; 'I' for Inactive)
REMARK    1  A    between atoms: C_1  and  O_2
REMARK    2  A    between atoms: O_2  and  C_3
REMARK    3  A    between atoms: C_5  and  C_6
REMARK    4  A    between atoms: C_12  and  C_13
REMARK    5  A    between atoms: N_15  and  C_16
REMARK    6  A    between atoms: C_26  and  O_27
REMARK    7  A    between atoms: O_27  and  C_28
REMARK    8  A    between atoms: C_29  and  O_30
REMARK    9  A    between atoms: O_30  and  C_31
REMARK                            x       y       z     vdW  Elec       q    Type
REMARK                         _______ _______ _______ _____ _____    ______ ____
ROOT
ATOM      1  C   UNL     1       3.864   3.883  17.751  0.00  0.00    +0.000 A 
ATOM      2  C   UNL     1       3.512   2.588  17.622  0.00  0.00    +0.000 A 
ATOM      3  C   UNL     1       2.473   2.063  18.536  0.00  0.00    +0.000 A 
ATOM      4  N   UNL     1       1.829   2.728  19.451  0.00  0.00    +0.000 NA
ATOM      5  C   UNL     1       2.128   4.069  19.508  0.00  0.00    +0.000 A 
ATOM      6  C   UNL     1       1.567   5.063  20.289  0.00  0.00    +0.000 A 
ATOM      7  C   UNL     1       2.102   6.256  19.800  0.00  0.00    +0.000 A 
ATOM      8  N   UNL     1       3.100   6.025  18.912  0.00  0.00    +0.000 NA
ATOM      9  N   UNL     1       3.103   4.679  18.681  0.00  0.00    +0.000 N 
ENDROOT
BRANCH   7  10
ATOM     10  C   UNL     1       1.735   7.651  20.175  0.00  0.00    +0.000 A 
ATOM     11  C   UNL     1       1.600   7.957  21.523  0.00  0.00    +0.000 A 
ATOM     12  N   UNL     1       0.778   9.037  21.554  0.00  0.00    +0.000 N 
ATOM     13  C   UNL     1      -0.549   8.994  22.132  0.00  0.00    +0.000 C 
ATOM     14  C   UNL     1       1.090   9.826  20.489  0.00  0.00    +0.000 A 
ATOM     15  C   UNL     1       0.930  11.214  20.323  0.00  0.00    +0.000 A 
ATOM     16  C   UNL     1       1.190  11.759  19.075  0.00  0.00    +0.000 A 
ATOM     17  C   UNL     1       1.513  10.913  18.014  0.00  0.00    +0.000 A 
ATOM     18  C   UNL     1       1.664   9.509  18.196  0.00  0.00    +0.000 A 
ATOM     19  C   UNL     1       1.544   8.931  19.490  0.00  0.00    +0.000 A 
ENDBRANCH   7  10
BRANCH   1  22
ATOM     20  C   UNL     1       6.934   5.789  16.347  0.00  0.00    +0.000 A 
ATOM     21  C   UNL     1       5.838   5.412  17.190  0.00  0.00    +0.000 A 
ATOM     22  C   UNL     1       5.017   4.338  16.877  0.00  0.00    +0.000 A 
ATOM     23  C   UNL     1       5.291   3.694  15.645  0.00  0.00    +0.000 A 
ATOM     24  C   UNL     1       6.317   4.108  14.750  0.00  0.00    +0.000 A 
ATOM     25  C   UNL     1       7.150   5.179  15.099  0.00  0.00    +0.000 A 
BRANCH  20  27
ATOM     26  C   UNL     1       7.843   7.005  18.149  0.00  0.00    +0.000 C 
ATOM     27  O   UNL     1       7.749   6.825  16.734  0.00  0.00    +0.000 OA
ENDBRANCH  20  27
BRANCH  24  28
ATOM     28  O   UNL     1       6.325   3.353  13.602  0.00  0.00    +0.000 OA
ATOM     29  C   UNL     1       5.221   3.424  12.698  0.00  0.00    +0.000 C 
ENDBRANCH  24  28
BRANCH  25  30
ATOM     30  O   UNL     1       8.081   5.537  14.164  0.00  0.00    +0.000 OA
ATOM     31  C   UNL     1       7.801   5.566  12.777  0.00  0.00    +0.000 C 
ENDBRANCH  25  30
ENDBRANCH   1  22
TORSDOF 5
ENDMDL
MODEL 4
REMARK VINA RESULT:      -8.1      1.014      2.998
REMARK  Name = 
REMARK  9 active torsions:
REMARK  status: ('A' for Active; 'I' for Inactive)
REMARK    1  A    between atoms: C_1  and  O_2
REMARK    2  A    between atoms: O_2  and  C_3
REMARK    3  A    between atoms: C_5  and  C_6
REMARK    4  A    between atoms: C_12  and  C_13
REMARK    5  A    between atoms: N_15  and  C_16
REMARK    6  A    between atoms: C_26  and  O_27
REMARK    7  A    between atoms: O_27  and  C_28
REMARK    8  A    between atoms: C_29  and  O_30
REMARK    9  A    between atoms: O_30  and  C_31
REMARK                            x       y       z     vdW  Elec       q    Type
REMARK                         _______ _______ _______ _____ _____    ______ ____
ROOT
ATOM      1  C   UNL     1       4.194   4.226  18.158  0.00  0.00    +0.000 A 
ATOM      2  C   UNL     1       4.029   2.906  18.375  0.00  0.00    +0.000 A 
ATOM      3  C   UNL     1       3.074   2.495  19.427  0.00  0.00    +0.000 A 
ATOM      4  N   UNL     1       2.340   3.278  20.164  0.00  0.00    +0.000 NA
ATOM      5  C   UNL     1       2.445   4.616  19.868  0.00  0.00    +0.000 A 
ATOM      6  C   UNL     1       1.746   5.691  20.389  0.00  0.00    +0.000 A 
ATOM      7  C   UNL     1       2.108   6.780  19.594  0.00  0.00    +0.000 A 
ATOM      8  N   UNL     1       3.130   6.467  18.760  0.00  0.00    +0.000 NA
ATOM      9  N   UNL     1       3.325   5.121  18.879  0.00  0.00    +0.000 N 
ENDROOT
BRANCH   7  10
ATOM     10  C   UNL     1       1.545   8.160  19.613  0.00  0.00    +0.000 A 
ATOM     11  C   UNL     1       1.356   8.810  18.401  0.00  0.00    +0.000 A 
ATOM     12  N   UNL     1       1.374  10.132  18.709  0.00  0.00    +0.000 N 
ATOM     13  C   UNL     1       2.414  11.029  18.247  0.00  0.00    +0.000 C 
ATOM     14  C   UNL     1       0.751  10.286  19.910  0.00  0.00    +0.000 A 
ATOM     15  C   UNL     1       0.073  11.405  20.431  0.00  0.00    +0.000 A 
ATOM     16  C   UNL     1      -0.348  11.357  21.752  0.00  0.00    +0.000 A 
ATOM     17  C   UNL     1      -0.015  10.253  22.536  0.00  0.00    +0.000 A 
ATOM     18  C   UNL     1       0.678   9.132  21.995  0.00  0.00    +0.000 A 
ATOM     19  C   UNL     1       1.003   9.083  20.611  0.00  0.00    +0.000 A 
ENDBRANCH   7  10
BRANCH   1  22
ATOM     20  C   UNL     1       7.113   6.004  16.330  0.00  0.00    +0.000 A 
ATOM     21  C   UNL     1       6.088   5.710  17.287  0.00  0.00    +0.000 A 
ATOM     22  C   UNL     1       5.272   4.594  17.157  0.00  0.00    +0.000 A 
ATOM     23  C   UNL     1       5.473   3.818  15.988  0.00  0.00    +0.000 A 
ATOM     24  C   UNL     1       6.424   4.143  14.982  0.00  0.00    +0.000 A 
ATOM     25  C   UNL     1       7.256   5.259  15.146  0.00  0.00    +0.000 A 
BRANCH  20  27
ATOM     26  C   UNL     1       7.723   7.752  17.787  0.00  0.00    +0.000 C 
ATOM     27  O   UNL     1       7.929   7.089  16.537  0.00  0.00    +0.000 OA
ENDBRANCH  20  27
BRANCH  24  28
ATOM     28  O   UNL     1       6.370   3.262  13.929  0.00  0.00    +0.000 OA
ATOM     29  C   UNL     1       5.335   3.386  12.952  0.00  0.00    +0.000 C 
ENDBRANCH  24  28
BRANCH  25  30
ATOM     30  O   UNL     1       8.110   5.521  14.112  0.00  0.00    +0.000 OA
ATOM     31  C   UNL     1       7.668   5.698  12.780  0.00  0.00    +0.000 C 
ENDBRANCH  25  30
ENDBRANCH   1  22
TORSDOF 5
ENDMDL
MODEL 5
REMARK VINA RESULT:      -7.7      1.712      2.451
REMARK  Name = 
REMARK  9 active torsions:
REMARK  status: ('A' for Active; 'I' for Inactive)
REMARK    1  A    between atoms: C_1  and  O_2
REMARK    2  A    between atoms: O_2  and  C_3
REMARK    3  A    between atoms: C_5  and  C_6
REMARK    4  A    between atoms: C_12  and  C_13
REMARK    5  A    between atoms: N_15  and  C_16
REMARK    6  A    between atoms: C_26  and  O_27
REMARK    7  A    between atoms: O_27  and  C_28
REMARK    8  A    between atoms: C_29  and  O_30
REMARK    9  A    between atoms: O_30  and  C_31
REMARK                            x       y       z     vdW  Elec       q    Type
REMARK                         _______ _______ _______ _____ _____    ______ ____
ROOT
ATOM      1  C   UNL     1       3.822   5.249  18.563  0.00  0.00    +0.000 A 
ATOM      2  C   UNL     1       3.648   4.073  19.199  0.00  0.00    +0.000 A 
ATOM      3  C   UNL     1       2.743   4.050  20.369  0.00  0.00    +0.000 A 
ATOM      4  N   UNL     1       2.061   5.050  20.848  0.00  0.00    +0.000 NA
ATOM      5  C   UNL     1       2.171   6.219  20.135  0.00  0.00    +0.000 A 
ATOM      6  C   UNL     1       1.518   7.426  20.315  0.00  0.00    +0.000 A 
ATOM      7  C   UNL     1       1.854   8.192  19.197  0.00  0.00    +0.000 A 
ATOM      8  N   UNL     1       2.826   7.598  18.462  0.00  0.00    +0.000 NA
ATOM      9  N   UNL     1       3.006   6.354  18.998  0.00  0.00    +0.000 N 
ENDROOT
BRANCH   7  10
ATOM     10  C   UNL     1       1.315   9.524  18.799  0.00  0.00    +0.000 A 
ATOM     11  C   UNL     1       2.208  10.486  18.347  0.00  0.00    +0.000 A 
ATOM     12  N   UNL     1       1.586  11.672  18.577  0.00  0.00    +0.000 N 
ATOM     13  C   UNL     1       2.083  12.642  19.532  0.00  0.00    +0.000 C 
ATOM     14  C   UNL     1       0.260  11.500  18.327  0.00  0.00    +0.000 A 
ATOM     15  C   UNL     1      -0.708  12.442  17.931  0.00  0.00    +0.000 A 
ATOM     16  C   UNL     1      -2.034  12.040  17.886  0.00  0.00    +0.000 A 
ATOM     17  C   UNL     1      -2.374  10.756  18.314  0.00  0.00    +0.000 A 
ATOM     18  C   UNL     1      -1.383   9.816  18.719  0.00  0.00    +0.000 A 
ATOM     19  C   UNL     1      -0.001  10.145  18.643  0.00  0.00    +0.000 A 
ENDBRANCH   7  10
BRANCH   1  22
ATOM     20  C   UNL     1       5.874   4.329  15.406  0.00  0.00    +0.000 A 
ATOM     21  C   UNL     1       4.900   4.278  16.455  0.00  0.00    +0.000 A 
ATOM     22  C   UNL     1       4.851   5.245  17.450  0.00  0.00    +0.000 A 
ATOM     23  C   UNL     1       5.865   6.234  17.396  0.00  0.00    +0.000 A 
ATOM     24  C   UNL     1       6.896   6.252  16.415  0.00  0.00    +0.000 A 
ATOM     25  C   UNL     1       6.910   5.281  15.405  0.00  0.00    +0.000 A 
BRANCH  20  27
ATOM     26  C   UNL     1       5.077   3.750  13.266  0.00  0.00    +0.000 C 
ATOM     27  O   UNL     1       5.842   3.378  14.416  0.00  0.00    +0.000 OA
ENDBRANCH  20  27
BRANCH  24  28
ATOM     28  O   UNL     1       7.783   7.279  16.630  0.00  0.00    +0.000 OA
ATOM     29  C   UNL     1       7.884   7.870  17.927  0.00  0.00    +0.000 C 
ENDBRANCH  24  28
BRANCH  25  30
ATOM     30  O   UNL     1       7.959   5.348  14.530  0.00  0.00    +0.000 OA
ATOM     31  C   UNL     1       7.786   5.563  13.143  0.00  0.00    +0.000 C 
ENDBRANCH  25  30
ENDBRANCH   1  22
TORSDOF 5
ENDMDL
MODEL 6
REMARK VINA RESULT:      -7.5      3.832      6.495
REMARK  Name = 
REMARK  9 active torsions:
REMARK  status: ('A' for Active; 'I' for Inactive)
REMARK    1  A    between atoms: C_1  and  O_2
REMARK    2  A    between atoms: O_2  and  C_3
REMARK    3  A    between atoms: C_5  and  C_6
REMARK    4  A    between atoms: C_12  and  C_13
REMARK    5  A    between atoms: N_15  and  C_16
REMARK    6  A    between atoms: C_26  and  O_27
REMARK    7  A    between atoms: O_27  and  C_28
REMARK    8  A    between atoms: C_29  and  O_30
REMARK    9  A    between atoms: O_30  and  C_31
REMARK                            x       y       z     vdW  Elec       q    Type
REMARK                         _______ _______ _______ _____ _____    ______ ____
ROOT
ATOM      1  C   UNL     1       1.183   8.421  21.010  0.00  0.00    +0.000 A 
ATOM      2  C   UNL     1       1.589   8.477  22.294  0.00  0.00    +0.000 A 
ATOM      3  C   UNL     1       1.154   9.636  23.105  0.00  0.00    +0.000 A 
ATOM      4  N   UNL     1       0.385  10.614  22.719  0.00  0.00    +0.000 NA
ATOM      5  C   UNL     1      -0.100  10.496  21.439  0.00  0.00    +0.000 A 
ATOM      6  C   UNL     1      -1.000  11.300  20.761  0.00  0.00    +0.000 A 
ATOM      7  C   UNL     1      -1.287  10.611  19.581  0.00  0.00    +0.000 A 
ATOM      8  N   UNL     1      -0.464   9.546  19.416  0.00  0.00    +0.000 NA
ATOM      9  N   UNL     1       0.248   9.428  20.575  0.00  0.00    +0.000 N 
ENDROOT
BRANCH   7  10
ATOM     10  C   UNL     1      -2.306  10.944  18.545  0.00  0.00    +0.000 A 
ATOM     11  C   UNL     1      -3.190  11.982  18.803  0.00  0.00    +0.000 A 
ATOM     12  N   UNL     1      -4.271  11.720  18.023  0.00  0.00    +0.000 N 
ATOM     13  C   UNL     1      -5.570  11.388  18.572  0.00  0.00    +0.000 C 
ATOM     14  C   UNL     1      -3.817  11.207  16.846  0.00  0.00    +0.000 A 
ATOM     15  C   UNL     1      -4.408  11.235  15.569  0.00  0.00    +0.000 A 
ATOM     16  C   UNL     1      -3.810  10.503  14.554  0.00  0.00    +0.000 A 
ATOM     17  C   UNL     1      -2.706   9.703  14.849  0.00  0.00    +0.000 A 
ATOM     18  C   UNL     1      -2.125   9.680  16.150  0.00  0.00    +0.000 A 
ATOM     19  C   UNL     1      -2.623  10.525  17.179  0.00  0.00    +0.000 A 
ENDBRANCH   7  10
BRANCH   1  22
ATOM     20  C   UNL     1       3.036   6.360  18.300  0.00  0.00    +0.000 A 
ATOM     21  C   UNL     1       2.489   7.467  19.027  0.00  0.00    +0.000 A 
ATOM     22  C   UNL     1       1.757   7.281  20.191  0.00  0.00    +0.000 A 
ATOM     23  C   UNL     1       1.529   5.933  20.566  0.00  0.00    +0.000 A 
ATOM     24  C   UNL     1       1.987   4.818  19.810  0.00  0.00    +0.000 A 
ATOM     25  C   UNL     1       2.747   5.030  18.652  0.00  0.00    +0.000 A 
BRANCH  20  27
ATOM     26  C   UNL     1       5.204   6.703  17.443  0.00  0.00    +0.000 C 
ATOM     27  O   UNL     1       3.801   6.605  17.186  0.00  0.00    +0.000 OA
ENDBRANCH  20  27
BRANCH  24  28
ATOM     28  O   UNL     1       1.577   3.628  20.361  0.00  0.00    +0.000 OA
ATOM     29  C   UNL     1       2.335   3.037  21.418  0.00  0.00    +0.000 C 
ENDBRANCH  24  28
BRANCH  25  30
ATOM     30  O   UNL     1       3.109   3.905  17.964  0.00  0.00    +0.000 OA
ATOM     31  C   UNL     1       4.318   3.213  18.211  0.00  0.00    +0.000 C 
ENDBRANCH  25  30
ENDBRANCH   1  22
TORSDOF 5
ENDMDL
MODEL 7
REMARK VINA RESULT:      -7.3      2.957      7.941
REMARK  Name = 
REMARK  9 active torsions:
REMARK  status: ('A' for Active; 'I' for Inactive)
REMARK    1  A    between atoms: C_1  and  O_2
REMARK    2  A    between atoms: O_2  and  C_3
REMARK    3  A    between atoms: C_5  and  C_6
REMARK    4  A    between atoms: C_12  and  C_13
REMARK    5  A    between atoms: N_15  and  C_16
REMARK    6  A    between atoms: C_26  and  O_27
REMARK    7  A    between atoms: O_27  and  C_28
REMARK    8  A    between atoms: C_29  and  O_30
REMARK    9  A    between atoms: O_30  and  C_31
REMARK                            x       y       z     vdW  Elec       q    Type
REMARK                         _______ _______ _______ _____ _____    ______ ____
ROOT
ATOM      1  C   UNL     1       1.818   5.457  19.991  0.00  0.00    +0.000 A 
ATOM      2  C   UNL     1       1.139   4.650  20.831  0.00  0.00    +0.000 A 
ATOM      3  C   UNL     1       1.207   3.192  20.590  0.00  0.00    +0.000 A 
ATOM      4  N   UNL     1       1.883   2.585  19.657  0.00  0.00    +0.000 NA
ATOM      5  C   UNL     1       2.648   3.411  18.868  0.00  0.00    +0.000 A 
ATOM      6  C   UNL     1       3.541   3.088  17.862  0.00  0.00    +0.000 A 
ATOM      7  C   UNL     1       4.179   4.288  17.542  0.00  0.00    +0.000 A 
ATOM      8  N   UNL     1       3.582   5.344  18.149  0.00  0.00    +0.000 NA
ATOM      9  N   UNL     1       2.661   4.820  19.011  0.00  0.00    +0.000 N 
ENDROOT
BRANCH   7  10
ATOM     10  C   UNL     1       5.336   4.500  16.627  0.00  0.00    +0.000 A 
ATOM     11  C   UNL     1       6.566   4.819  17.184  0.00  0.00    +0.000 A 
ATOM     12  N   UNL     1       7.240   5.461  16.196  0.00  0.00    +0.000 N 
ATOM     13  C   UNL     1       7.608   6.860  16.281  0.00  0.00    +0.000 C 
ATOM     14  C   UNL     1       6.926   4.854  15.018  0.00  0.00    +0.000 A 
ATOM     15  C   UNL     1       7.669   4.772  13.826  0.00  0.00    +0.000 A 
ATOM     16  C   UNL     1       7.058   4.220  12.710  0.00  0.00    +0.000 A 
ATOM     17  C   UNL     1       5.715   3.850  12.780  0.00  0.00    +0.000 A 
ATOM     18  C   UNL     1       4.974   3.947  13.993  0.00  0.00    +0.000 A 
ATOM     19  C   UNL     1       5.606   4.375  15.193  0.00  0.00    +0.000 A 
ENDBRANCH   7  10
BRANCH   1  22
ATOM     20  C   UNL     1       1.198   8.925  21.609  0.00  0.00    +0.000 A 
ATOM     21  C   UNL     1       1.355   7.510  21.448  0.00  0.00    +0.000 A 
ATOM     22  C   UNL     1       1.616   6.944  20.207  0.00  0.00    +0.000 A 
ATOM     23  C   UNL     1       1.643   7.846  19.114  0.00  0.00    +0.000 A 
ATOM     24  C   UNL     1       1.401   9.242  19.239  0.00  0.00    +0.000 A 
ATOM     25  C   UNL     1       1.166   9.795  20.505  0.00  0.00    +0.000 A 
BRANCH  20  27
ATOM     26  C   UNL     1      -0.374   9.503  23.266  0.00  0.00    +0.000 C 
ATOM     27  O   UNL     1       0.998   9.436  22.867  0.00  0.00    +0.000 OA
ENDBRANCH  20  27
BRANCH  24  28
ATOM     28  O   UNL     1       1.425   9.873  18.018  0.00  0.00    +0.000 OA
ATOM     29  C   UNL     1       2.333  10.953  17.795  0.00  0.00    +0.000 C 
ENDBRANCH  24  28
BRANCH  25  30
ATOM     30  O   UNL     1       0.901  11.136  20.528  0.00  0.00    +0.000 OA
ATOM     31  C   UNL     1      -0.392  11.665  20.304  0.00  0.00    +0.000 C 
ENDBRANCH  25  30
ENDBRANCH   1  22
TORSDOF 5
ENDMDL
MODEL 8
REMARK VINA RESULT:      -7.3      3.763      6.301
REMARK  Name = 
REMARK  9 active torsions:
REMARK  status: ('A' for Active; 'I' for Inactive)
REMARK    1  A    between atoms: C_1  and  O_2
REMARK    2  A    between atoms: O_2  and  C_3
REMARK    3  A    between atoms: C_5  and  C_6
REMARK    4  A    between atoms: C_12  and  C_13
REMARK    5  A    between atoms: N_15  and  C_16
REMARK    6  A    between atoms: C_26  and  O_27
REMARK    7  A    between atoms: O_27  and  C_28
REMARK    8  A    between atoms: C_29  and  O_30
REMARK    9  A    between atoms: O_30  and  C_31
REMARK                            x       y       z     vdW  Elec       q    Type
REMARK                         _______ _______ _______ _____ _____    ______ ____
ROOT
ATOM      1  C   UNL     1       1.248   8.368  20.941  0.00  0.00    +0.000 A 
ATOM      2  C   UNL     1       1.662   8.408  22.223  0.00  0.00    +0.000 A 
ATOM      3  C   UNL     1       1.232   9.556  23.051  0.00  0.00    +0.000 A 
ATOM      4  N   UNL     1       0.461  10.539  22.682  0.00  0.00    +0.000 NA
ATOM      5  C   UNL     1      -0.032  10.438  21.404  0.00  0.00    +0.000 A 
ATOM      6  C   UNL     1      -0.936  11.250  20.742  0.00  0.00    +0.000 A 
ATOM      7  C   UNL     1      -1.230  10.576  19.555  0.00  0.00    +0.000 A 
ATOM      8  N   UNL     1      -0.408   9.514  19.372  0.00  0.00    +0.000 NA
ATOM      9  N   UNL     1       0.311   9.381  20.525  0.00  0.00    +0.000 N 
ENDROOT
BRANCH   7  10
ATOM     10  C   UNL     1      -2.255  10.923  18.530  0.00  0.00    +0.000 A 
ATOM     11  C   UNL     1      -3.117  11.978  18.792  0.00  0.00    +0.000 A 
ATOM     12  N   UNL     1      -4.212  11.732  18.027  0.00  0.00    +0.000 N 
ATOM     13  C   UNL     1      -5.510  11.427  18.594  0.00  0.00    +0.000 C 
ATOM     14  C   UNL     1      -3.783  11.205  16.848  0.00  0.00    +0.000 A 
ATOM     15  C   UNL     1      -4.388  11.237  15.578  0.00  0.00    +0.000 A 
ATOM     16  C   UNL     1      -3.816  10.488  14.560  0.00  0.00    +0.000 A 
ATOM     17  C   UNL     1      -2.724   9.668  14.846  0.00  0.00    +0.000 A 
ATOM     18  C   UNL     1      -2.127   9.642  16.140  0.00  0.00    +0.000 A 
ATOM     19  C   UNL     1      -2.597  10.501  17.170  0.00  0.00    +0.000 A 
ENDBRANCH   7  10
BRANCH   1  22
ATOM     20  C   UNL     1       2.233   4.862  19.613  0.00  0.00    +0.000 A 
ATOM     21  C   UNL     1       1.704   5.899  20.449  0.00  0.00    +0.000 A 
ATOM     22  C   UNL     1       1.816   7.239  20.104  0.00  0.00    +0.000 A 
ATOM     23  C   UNL     1       2.546   7.509  18.919  0.00  0.00    +0.000 A 
ATOM     24  C   UNL     1       3.156   6.501  18.123  0.00  0.00    +0.000 A 
ATOM     25  C   UNL     1       3.007   5.153  18.476  0.00  0.00    +0.000 A 
BRANCH  20  27
ATOM     26  C   UNL     1       0.869   2.951  19.422  0.00  0.00    +0.000 C 
ATOM     27  O   UNL     1       2.044   3.551  19.973  0.00  0.00    +0.000 OA
ENDBRANCH  20  27
BRANCH  24  28
ATOM     28  O   UNL     1       3.853   7.040  17.068  0.00  0.00    +0.000 OA
ATOM     29  C   UNL     1       5.280   7.082  17.109  0.00  0.00    +0.000 C 
ENDBRANCH  24  28
BRANCH  25  30
ATOM     30  O   UNL     1       3.662   4.255  17.680  0.00  0.00    +0.000 OA
ATOM     31  C   UNL     1       4.873   3.633  18.062  0.00  0.00    +0.000 C 
ENDBRANCH  25  30
ENDBRANCH   1  22
TORSDOF 5
ENDMDL
MODEL 9
REMARK VINA RESULT:      -7.2      1.768      3.372
REMARK  Name = 
REMARK  9 active torsions:
REMARK  status: ('A' for Active; 'I' for Inactive)
REMARK    1  A    between atoms: C_1  and  O_2
REMARK    2  A    between atoms: O_2  and  C_3
REMARK    3  A    between atoms: C_5  and  C_6
REMARK    4  A    between atoms: C_12  and  C_13
REMARK    5  A    between atoms: N_15  and  C_16
REMARK    6  A    between atoms: C_26  and  O_27
REMARK    7  A    between atoms: O_27  and  C_28
REMARK    8  A    between atoms: C_29  and  O_30
REMARK    9  A    between atoms: O_30  and  C_31
REMARK                            x       y       z     vdW  Elec       q    Type
REMARK                         _______ _______ _______ _____ _____    ______ ____
ROOT
ATOM      1  C   UNL     1       3.877   5.320  18.729  0.00  0.00    +0.000 A 
ATOM      2  C   UNL     1       3.676   4.127  19.323  0.00  0.00    +0.000 A 
ATOM      3  C   UNL     1       2.682   4.062  20.417  0.00  0.00    +0.000 A 
ATOM      4  N   UNL     1       1.946   5.040  20.862  0.00  0.00    +0.000 NA
ATOM      5  C   UNL     1       2.090   6.226  20.185  0.00  0.00    +0.000 A 
ATOM      6  C   UNL     1       1.403   7.417  20.339  0.00  0.00    +0.000 A 
ATOM      7  C   UNL     1       1.812   8.215  19.269  0.00  0.00    +0.000 A 
ATOM      8  N   UNL     1       2.850   7.654  18.601  0.00  0.00    +0.000 NA
ATOM      9  N   UNL     1       3.010   6.401  19.122  0.00  0.00    +0.000 N 
ENDROOT
BRANCH   7  10
ATOM     10  C   UNL     1       1.282   9.546  18.857  0.00  0.00    +0.000 A 
ATOM     11  C   UNL     1       2.184  10.508  18.424  0.00  0.00    +0.000 A 
ATOM     12  N   UNL     1       1.558  11.694  18.640  0.00  0.00    +0.000 N 
ATOM     13  C   UNL     1       2.033  12.665  19.605  0.00  0.00    +0.000 C 
ATOM     14  C   UNL     1       0.237  11.521  18.361  0.00  0.00    +0.000 A 
ATOM     15  C   UNL     1      -0.722  12.464  17.943  0.00  0.00    +0.000 A 
ATOM     16  C   UNL     1      -2.047  12.061  17.870  0.00  0.00    +0.000 A 
ATOM     17  C   UNL     1      -2.396  10.778  18.291  0.00  0.00    +0.000 A 
ATOM     18  C   UNL     1      -1.414   9.838  18.718  0.00  0.00    +0.000 A 
ATOM     19  C   UNL     1      -0.031  10.167  18.673  0.00  0.00    +0.000 A 
ENDBRANCH   7  10
BRANCH   1  22
ATOM     20  C   UNL     1       6.989   6.355  16.662  0.00  0.00    +0.000 A 
ATOM     21  C   UNL     1       5.936   6.374  17.633  0.00  0.00    +0.000 A 
ATOM     22  C   UNL     1       4.992   5.359  17.701  0.00  0.00    +0.000 A 
ATOM     23  C   UNL     1       5.099   4.353  16.709  0.00  0.00    +0.000 A 
ATOM     24  C   UNL     1       6.082   4.362  15.680  0.00  0.00    +0.000 A 
ATOM     25  C   UNL     1       7.041   5.384  15.647  0.00  0.00    +0.000 A 
BRANCH  20  27
ATOM     26  C   UNL     1       7.820   8.253  17.784  0.00  0.00    +0.000 C 
ATOM     27  O   UNL     1       7.929   7.356  16.675  0.00  0.00    +0.000 OA
ENDBRANCH  20  27
BRANCH  24  28
ATOM     28  O   UNL     1       5.922   3.307  14.815  0.00  0.00    +0.000 OA
ATOM     29  C   UNL     1       5.265   3.509  13.563  0.00  0.00    +0.000 C 
ENDBRANCH  24  28
BRANCH  25  30
ATOM     30  O   UNL     1       7.920   5.338  14.601  0.00  0.00    +0.000 OA
ATOM     31  C   UNL     1       7.566   5.721  13.286  0.00  0.00    +0.000 C 
ENDBRANCH  25  30
ENDBRANCH   1  22
TORSDOF 5
ENDMDL
