MODEL 1
REMARK VINA RESULT:      -7.4      0.000      0.000
REMARK  Name = 
REMARK  8 active torsions:
REMARK  status: ('A' for Active; 'I' for Inactive)
REMARK    1  A    between atoms: C_2  and  C_3
REMARK    2  A    between atoms: C_3  and  O_4
REMARK    3  A    between atoms: O_4  and  C_5
REMARK    4  A    between atoms: C_8  and  C_9
REMARK    5  A    between atoms: C_10  and  C_11
REMARK    6  A    between atoms: C_10  and  C_13
REMARK    7  A    between atoms: C_23  and  O_24
REMARK    8  A    between atoms: O_24  and  C_25
REMARK                            x       y       z     vdW  Elec       q    Type
REMARK                         _______ _______ _______ _____ _____    ______ ____
ROOT
ATOM      1  C   UNL     1       3.077   6.173  19.120  0.00  0.00    +0.000 C 
ATOM      2  C   UNL     1       2.479   7.382  19.054  0.00  0.00    +0.000 C 
ENDROOT
BRANCH   2   3
ATOM      3  C   UNL     1       1.625   7.797  20.230  0.00  0.00    +0.000 C 
ATOM      4  O   UNL     1       1.456   6.994  21.148  0.00  0.00    +0.000 OA
ATOM      5  N   UNL     1       1.052   9.058  20.153  0.00  0.00    +0.000 N 
ATOM      6  C   UNL     1       0.312   9.656  21.199  0.00  0.00    +0.000 A 
ATOM      7  C   UNL     1      -0.396  10.820  20.924  0.00  0.00    +0.000 A 
ATOM      8  C   UNL     1      -1.137  11.427  21.946  0.00  0.00    +0.000 A 
ATOM      9  C   UNL     1      -1.140  10.862  23.214  0.00  0.00    +0.000 A 
ATOM     10  C   UNL     1      -0.402   9.711  23.405  0.00  0.00    +0.000 A 
ATOM     11  N   UNL     1       0.310   9.106  22.427  0.00  0.00    +0.000 NA
ATOM     12  H   UNL     1       1.118   9.600  19.303  0.00  0.00    +0.000 HD
ENDBRANCH   2   3
BRANCH   1  16
ATOM     13  C   UNL     1       5.661   4.455  16.113  0.00  0.00    +0.000 A 
ATOM     14  C   UNL     1       4.437   3.844  16.487  0.00  0.00    +0.000 A 
ATOM     15  C   UNL     1       3.594   4.378  17.471  0.00  0.00    +0.000 A 
ATOM     16  C   UNL     1       3.940   5.566  18.098  0.00  0.00    +0.000 A 
ATOM     17  C   UNL     1       5.126   6.192  17.711  0.00  0.00    +0.000 A 
ATOM     18  C   UNL     1       6.013   5.659  16.737  0.00  0.00    +0.000 A 
BRANCH  18  19
ATOM     19  O   UNL     1       7.069   6.513  16.651  0.00  0.00    +0.000 OA
ATOM     20  C   UNL     1       7.391   7.551  17.541  0.00  0.00    +0.000 C 
ENDBRANCH  18  19
BRANCH  13  21
ATOM     21  O   UNL     1       6.270   3.721  15.125  0.00  0.00    +0.000 OA
BRANCH  21  22
ATOM     22  C   UNL     1       6.644   4.382  13.931  0.00  0.00    +0.000 C 
BRANCH  22  24
ATOM     23  C   UNL     1       5.068   3.394  12.252  0.00  0.00    +0.000 C 
ATOM     24  C   UNL     1       6.314   3.561  12.719  0.00  0.00    +0.000 C 
ENDBRANCH  22  24
ENDBRANCH  21  22
ENDBRANCH  13  21
ENDBRANCH   1  16
BRANCH   2  25
ATOM     25  C   UNL     1       2.635   8.249  17.940  0.00  0.00    +0.000 C 
ATOM     26  N   UNL     1       2.680   8.981  17.042  0.00  0.00    +0.000 NA
ENDBRANCH   2  25
TORSDOF 7
ENDMDL
MODEL 2
REMARK VINA RESULT:      -7.3      4.113      7.340
REMARK  Name = 
REMARK  8 active torsions:
REMARK  status: ('A' for Active; 'I' for Inactive)
REMARK    1  A    between atoms: C_2  and  C_3
REMARK    2  A    between atoms: C_3  and  O_4
REMARK    3  A    between atoms: O_4  and  C_5
REMARK    4  A    between atoms: C_8  and  C_9
REMARK    5  A    between atoms: C_10  and  C_11
REMARK    6  A    between atoms: C_10  and  C_13
REMARK    7  A    between atoms: C_23  and  O_24
REMARK    8  A    between atoms: O_24  and  C_25
REMARK                            x       y       z     vdW  Elec       q    Type
REMARK                         _______ _______ _______ _____ _____    ______ ____
ROOT
ATOM      1  C   UNL     1       6.199   7.155  17.303  0.00  0.00    +0.000 C 
ATOM      2  C   UNL     1       7.328   7.184  18.043  0.00  0.00    +0.000 C 
ENDROOT
BRANCH   2   3
ATOM      3  C   UNL     1       8.222   8.394  17.894  0.00  0.00    +0.000 C 
ATOM      4  O   UNL     1       8.600   8.712  16.766  0.00  0.00    +0.000 OA
ATOM      5  N   UNL     1       8.587   9.030  19.072  0.00  0.00    +0.000 N 
ATOM      6  C   UNL     1       9.328  10.234  19.123  0.00  0.00    +0.000 A 
ATOM      7  C   UNL     1       9.822  10.651  20.353  0.00  0.00    +0.000 A 
ATOM      8  C   UNL     1      10.560  11.840  20.426  0.00  0.00    +0.000 A 
ATOM      9  C   UNL     1      10.774  12.581  19.272  0.00  0.00    +0.000 A 
ATOM     10  C   UNL     1      10.240  12.101  18.093  0.00  0.00    +0.000 A 
ATOM     11  N   UNL     1       9.535  10.950  18.003  0.00  0.00    +0.000 NA
ATOM     12  H   UNL     1       8.357   8.624  19.967  0.00  0.00    +0.000 HD
ENDBRANCH   2   3
BRANCH   1  16
ATOM     13  C   UNL     1       3.202   4.042  17.297  0.00  0.00    +0.000 A 
ATOM     14  C   UNL     1       4.410   3.920  16.564  0.00  0.00    +0.000 A 
ATOM     15  C   UNL     1       5.386   4.925  16.541  0.00  0.00    +0.000 A 
ATOM     16  C   UNL     1       5.194   6.083  17.281  0.00  0.00    +0.000 A 
ATOM     17  C   UNL     1       4.023   6.196  18.033  0.00  0.00    +0.000 A 
ATOM     18  C   UNL     1       3.005   5.206  18.053  0.00  0.00    +0.000 A 
BRANCH  18  19
ATOM     19  O   UNL     1       2.011   5.673  18.855  0.00  0.00    +0.000 OA
ATOM     20  C   UNL     1       2.159   6.386  20.056  0.00  0.00    +0.000 C 
ENDBRANCH  18  19
BRANCH  13  21
ATOM     21  O   UNL     1       2.443   2.908  17.144  0.00  0.00    +0.000 OA
BRANCH  21  22
ATOM     22  C   UNL     1       2.435   1.958  18.193  0.00  0.00    +0.000 C 
BRANCH  22  24
ATOM     23  C   UNL     1       1.426   2.658  20.377  0.00  0.00    +0.000 C 
ATOM     24  C   UNL     1       1.286   2.181  19.132  0.00  0.00    +0.000 C 
ENDBRANCH  22  24
ENDBRANCH  21  22
ENDBRANCH  13  21
ENDBRANCH   1  16
BRANCH   2  25
ATOM     25  C   UNL     1       7.681   6.137  18.935  0.00  0.00    +0.000 C 
ATOM     26  N   UNL     1       8.000   5.239  19.596  0.00  0.00    +0.000 NA
ENDBRANCH   2  25
TORSDOF 7
ENDMDL
MODEL 3
REMARK VINA RESULT:      -7.2      1.663      2.731
REMARK  Name = 
REMARK  8 active torsions:
REMARK  status: ('A' for Active; 'I' for Inactive)
REMARK    1  A    between atoms: C_2  and  C_3
REMARK    2  A    between atoms: C_3  and  O_4
REMARK    3  A    between atoms: O_4  and  C_5
REMARK    4  A    between atoms: C_8  and  C_9
REMARK    5  A    between atoms: C_10  and  C_11
REMARK    6  A    between atoms: C_10  and  C_13
REMARK    7  A    between atoms: C_23  and  O_24
REMARK    8  A    between atoms: O_24  and  C_25
REMARK                            x       y       z     vdW  Elec       q    Type
REMARK                         _______ _______ _______ _____ _____    ______ ____
ROOT
ATOM      1  C   UNL     1       2.781   7.644  18.111  0.00  0.00    +0.000 C 
ATOM      2  C   UNL     1       2.135   7.626  19.297  0.00  0.00    +0.000 C 
ENDROOT
BRANCH   2   3
ATOM      3  C   UNL     1       1.388   8.877  19.697  0.00  0.00    +0.000 C 
ATOM      4  O   UNL     1       1.413   9.847  18.938  0.00  0.00    +0.000 OA
ATOM      5  N   UNL     1       0.762   8.844  20.935  0.00  0.00    +0.000 N 
ATOM      6  C   UNL     1      -0.068   9.877  21.429  0.00  0.00    +0.000 A 
ATOM      7  C   UNL     1      -0.453   9.830  22.764  0.00  0.00    +0.000 A 
ATOM      8  C   UNL     1      -1.274  10.845  23.274  0.00  0.00    +0.000 A 
ATOM      9  C   UNL     1      -1.693  11.868  22.436  0.00  0.00    +0.000 A 
ATOM     10  C   UNL     1      -1.273  11.834  21.122  0.00  0.00    +0.000 A 
ATOM     11  N   UNL     1      -0.472  10.869  20.616  0.00  0.00    +0.000 NA
ATOM     12  H   UNL     1       0.909   8.067  21.564  0.00  0.00    +0.000 HD
ENDBRANCH   2   3
BRANCH   1  16
ATOM     13  C   UNL     1       5.054   4.376  16.428  0.00  0.00    +0.000 A 
ATOM     14  C   UNL     1       5.528   5.712  16.400  0.00  0.00    +0.000 A 
ATOM     15  C   UNL     1       4.799   6.787  16.926  0.00  0.00    +0.000 A 
ATOM     16  C   UNL     1       3.572   6.552  17.528  0.00  0.00    +0.000 A 
ATOM     17  C   UNL     1       3.112   5.234  17.591  0.00  0.00    +0.000 A 
ATOM     18  C   UNL     1       3.818   4.131  17.041  0.00  0.00    +0.000 A 
BRANCH  18  19
ATOM     19  O   UNL     1       3.055   3.025  17.256  0.00  0.00    +0.000 OA
ATOM     20  C   UNL     1       3.419   1.872  17.971  0.00  0.00    +0.000 C 
ENDBRANCH  18  19
BRANCH  13  21
ATOM     21  O   UNL     1       5.975   3.537  15.852  0.00  0.00    +0.000 OA
BRANCH  21  22
ATOM     22  C   UNL     1       6.659   3.984  14.696  0.00  0.00    +0.000 C 
BRANCH  22  24
ATOM     23  C   UNL     1       6.291   3.369  12.295  0.00  0.00    +0.000 C 
ATOM     24  C   UNL     1       5.819   3.829  13.462  0.00  0.00    +0.000 C 
ENDBRANCH  22  24
ENDBRANCH  21  22
ENDBRANCH  13  21
ENDBRANCH   1  16
BRANCH   2  25
ATOM     25  C   UNL     1       2.138   6.489  20.149  0.00  0.00    +0.000 C 
ATOM     26  N   UNL     1       2.115   5.515  20.777  0.00  0.00    +0.000 NA
ENDBRANCH   2  25
TORSDOF 7
ENDMDL
MODEL 4
REMARK VINA RESULT:      -7.1      1.256      1.377
REMARK  Name = 
REMARK  8 active torsions:
REMARK  status: ('A' for Active; 'I' for Inactive)
REMARK    1  A    between atoms: C_2  and  C_3
REMARK    2  A    between atoms: C_3  and  O_4
REMARK    3  A    between atoms: O_4  and  C_5
REMARK    4  A    between atoms: C_8  and  C_9
REMARK    5  A    between atoms: C_10  and  C_11
REMARK    6  A    between atoms: C_10  and  C_13
REMARK    7  A    between atoms: C_23  and  O_24
REMARK    8  A    between atoms: O_24  and  C_25
REMARK                            x       y       z     vdW  Elec       q    Type
REMARK                         _______ _______ _______ _____ _____    ______ ____
ROOT
ATOM      1  C   UNL     1       2.524   6.491  19.771  0.00  0.00    +0.000 C 
ATOM      2  C   UNL     1       2.062   7.729  19.492  0.00  0.00    +0.000 C 
ENDROOT
BRANCH   2   3
ATOM      3  C   UNL     1       1.219   8.407  20.548  0.00  0.00    +0.000 C 
ATOM      4  O   UNL     1       1.172   7.909  21.674  0.00  0.00    +0.000 OA
ATOM      5  N   UNL     1       0.515   9.530  20.138  0.00  0.00    +0.000 N 
ATOM      6  C   UNL     1      -0.238  10.351  21.008  0.00  0.00    +0.000 A 
ATOM      7  C   UNL     1      -1.075  11.310  20.448  0.00  0.00    +0.000 A 
ATOM      8  C   UNL     1      -1.832  12.133  21.292  0.00  0.00    +0.000 A 
ATOM      9  C   UNL     1      -1.723  11.983  22.668  0.00  0.00    +0.000 A 
ATOM     10  C   UNL     1      -0.862  11.014  23.141  0.00  0.00    +0.000 A 
ATOM     11  N   UNL     1      -0.133  10.204  22.341  0.00  0.00    +0.000 NA
ATOM     12  H   UNL     1       0.489   9.791  19.163  0.00  0.00    +0.000 HD
ENDBRANCH   2   3
BRANCH   1  16
ATOM     13  C   UNL     1       5.019   4.034  17.238  0.00  0.00    +0.000 A 
ATOM     14  C   UNL     1       3.644   4.242  16.961  0.00  0.00    +0.000 A 
ATOM     15  C   UNL     1       2.816   5.022  17.779  0.00  0.00    +0.000 A 
ATOM     16  C   UNL     1       3.350   5.648  18.896  0.00  0.00    +0.000 A 
ATOM     17  C   UNL     1       4.710   5.476  19.158  0.00  0.00    +0.000 A 
ATOM     18  C   UNL     1       5.567   4.669  18.361  0.00  0.00    +0.000 A 
BRANCH  18  19
ATOM     19  O   UNL     1       6.799   4.709  18.937  0.00  0.00    +0.000 OA
ATOM     20  C   UNL     1       7.438   5.832  19.487  0.00  0.00    +0.000 C 
ENDBRANCH  18  19
BRANCH  13  21
ATOM     21  O   UNL     1       5.580   3.240  16.269  0.00  0.00    +0.000 OA
BRANCH  21  22
ATOM     22  C   UNL     1       6.434   3.845  15.316  0.00  0.00    +0.000 C 
BRANCH  22  24
ATOM     23  C   UNL     1       6.070   3.638  12.846  0.00  0.00    +0.000 C 
ATOM     24  C   UNL     1       5.710   4.141  14.035  0.00  0.00    +0.000 C 
ENDBRANCH  22  24
ENDBRANCH  21  22
ENDBRANCH  13  21
ENDBRANCH   1  16
BRANCH   2  25
ATOM     25  C   UNL     1       2.346   8.391  18.268  0.00  0.00    +0.000 C 
ATOM     26  N   UNL     1       2.541   9.000  17.301  0.00  0.00    +0.000 NA
ENDBRANCH   2  25
TORSDOF 7
ENDMDL
MODEL 5
REMARK VINA RESULT:      -7.1      1.398      1.889
REMARK  Name = 
REMARK  8 active torsions:
REMARK  status: ('A' for Active; 'I' for Inactive)
REMARK    1  A    between atoms: C_2  and  C_3
REMARK    2  A    between atoms: C_3  and  O_4
REMARK    3  A    between atoms: O_4  and  C_5
REMARK    4  A    between atoms: C_8  and  C_9
REMARK    5  A    between atoms: C_10  and  C_11
REMARK    6  A    between atoms: C_10  and  C_13
REMARK    7  A    between atoms: C_23  and  O_24
REMARK    8  A    between atoms: O_24  and  C_25
REMARK                            x       y       z     vdW  Elec       q    Type
REMARK                         _______ _______ _______ _____ _____    ______ ____
ROOT
ATOM      1  C   UNL     1       2.875   7.332  18.664  0.00  0.00    +0.000 C 
ATOM      2  C   UNL     1       2.238   7.056  19.823  0.00  0.00    +0.000 C 
ENDROOT
BRANCH   2   3
ATOM      3  C   UNL     1       1.410   8.161  20.437  0.00  0.00    +0.000 C 
ATOM      4  O   UNL     1       1.229   8.155  21.656  0.00  0.00    +0.000 OA
ATOM      5  N   UNL     1       0.872   9.084  19.552  0.00  0.00    +0.000 N 
ATOM      6  C   UNL     1       0.161  10.240  19.950  0.00  0.00    +0.000 A 
ATOM      7  C   UNL     1      -0.518  10.963  18.976  0.00  0.00    +0.000 A 
ATOM      8  C   UNL     1      -1.229  12.111  19.349  0.00  0.00    +0.000 A 
ATOM      9  C   UNL     1      -1.233  12.508  20.679  0.00  0.00    +0.000 A 
ATOM     10  C   UNL     1      -0.526  11.739  21.581  0.00  0.00    +0.000 A 
ATOM     11  N   UNL     1       0.157  10.623  21.240  0.00  0.00    +0.000 NA
ATOM     12  H   UNL     1       0.942   8.940  18.555  0.00  0.00    +0.000 HD
ENDBRANCH   2   3
BRANCH   1  16
ATOM     13  C   UNL     1       5.457   4.704  16.405  0.00  0.00    +0.000 A 
ATOM     14  C   UNL     1       4.141   4.326  16.774  0.00  0.00    +0.000 A 
ATOM     15  C   UNL     1       3.295   5.158  17.520  0.00  0.00    +0.000 A 
ATOM     16  C   UNL     1       3.734   6.418  17.899  0.00  0.00    +0.000 A 
ATOM     17  C   UNL     1       5.016   6.812  17.511  0.00  0.00    +0.000 A 
ATOM     18  C   UNL     1       5.904   5.979  16.779  0.00  0.00    +0.000 A 
BRANCH  18  19
ATOM     19  O   UNL     1       7.061   6.676  16.618  0.00  0.00    +0.000 OA
ATOM     20  C   UNL     1       7.612   7.616  17.505  0.00  0.00    +0.000 C 
ENDBRANCH  18  19
BRANCH  13  21
ATOM     21  O   UNL     1       6.047   3.702  15.676  0.00  0.00    +0.000 OA
BRANCH  21  22
ATOM     22  C   UNL     1       6.574   4.021  14.401  0.00  0.00    +0.000 C 
BRANCH  22  24
ATOM     23  C   UNL     1       5.965   3.229  12.103  0.00  0.00    +0.000 C 
ATOM     24  C   UNL     1       5.601   3.700  13.305  0.00  0.00    +0.000 C 
ENDBRANCH  22  24
ENDBRANCH  21  22
ENDBRANCH  13  21
ENDBRANCH   1  16
BRANCH   2  25
ATOM     25  C   UNL     1       2.324   5.788  20.457  0.00  0.00    +0.000 C 
ATOM     26  N   UNL     1       2.322   4.772  21.015  0.00  0.00    +0.000 NA
ENDBRANCH   2  25
TORSDOF 7
ENDMDL
MODEL 6
REMARK VINA RESULT:      -7.0      1.412      1.746
REMARK  Name = 
REMARK  8 active torsions:
REMARK  status: ('A' for Active; 'I' for Inactive)
REMARK    1  A    between atoms: C_2  and  C_3
REMARK    2  A    between atoms: C_3  and  O_4
REMARK    3  A    between atoms: O_4  and  C_5
REMARK    4  A    between atoms: C_8  and  C_9
REMARK    5  A    between atoms: C_10  and  C_11
REMARK    6  A    between atoms: C_10  and  C_13
REMARK    7  A    between atoms: C_23  and  O_24
REMARK    8  A    between atoms: O_24  and  C_25
REMARK                            x       y       z     vdW  Elec       q    Type
REMARK                         _______ _______ _______ _____ _____    ______ ____
ROOT
ATOM      1  C   UNL     1       3.265   6.625  18.570  0.00  0.00    +0.000 C 
ATOM      2  C   UNL     1       2.692   6.064  19.657  0.00  0.00    +0.000 C 
ENDROOT
BRANCH   2   3
ATOM      3  C   UNL     1       1.723   6.915  20.445  0.00  0.00    +0.000 C 
ATOM      4  O   UNL     1       1.004   6.367  21.282  0.00  0.00    +0.000 OA
ATOM      5  N   UNL     1       1.690   8.263  20.119  0.00  0.00    +0.000 N 
ATOM      6  C   UNL     1       0.927   9.227  20.818  0.00  0.00    +0.000 A 
ATOM      7  C   UNL     1       0.801  10.495  20.263  0.00  0.00    +0.000 A 
ATOM      8  C   UNL     1       0.048  11.465  20.938  0.00  0.00    +0.000 A 
ATOM      9  C   UNL     1      -0.547  11.143  22.151  0.00  0.00    +0.000 A 
ATOM     10  C   UNL     1      -0.365   9.864  22.636  0.00  0.00    +0.000 A 
ATOM     11  N   UNL     1       0.350   8.913  21.992  0.00  0.00    +0.000 NA
ATOM     12  H   UNL     1       2.203   8.611  19.322  0.00  0.00    +0.000 HD
ENDBRANCH   2   3
BRANCH   1  16
ATOM     13  C   UNL     1       6.166   4.828  15.919  0.00  0.00    +0.000 A 
ATOM     14  C   UNL     1       4.893   4.245  16.142  0.00  0.00    +0.000 A 
ATOM     15  C   UNL     1       3.945   4.804  17.010  0.00  0.00    +0.000 A 
ATOM     16  C   UNL     1       4.235   5.992  17.667  0.00  0.00    +0.000 A 
ATOM     17  C   UNL     1       5.473   6.590  17.426  0.00  0.00    +0.000 A 
ATOM     18  C   UNL     1       6.462   6.031  16.573  0.00  0.00    +0.000 A 
BRANCH  18  19
ATOM     19  O   UNL     1       7.538   6.862  16.614  0.00  0.00    +0.000 OA
ATOM     20  C   UNL     1       7.808   7.849  17.577  0.00  0.00    +0.000 C 
ENDBRANCH  18  19
BRANCH  13  21
ATOM     21  O   UNL     1       6.877   4.072  15.020  0.00  0.00    +0.000 OA
BRANCH  21  22
ATOM     22  C   UNL     1       6.897   4.483  13.665  0.00  0.00    +0.000 C 
BRANCH  22  24
ATOM     23  C   UNL     1       6.423   2.803  11.868  0.00  0.00    +0.000 C 
ATOM     24  C   UNL     1       5.987   3.641  12.819  0.00  0.00    +0.000 C 
ENDBRANCH  22  24
ENDBRANCH  21  22
ENDBRANCH  13  21
ENDBRANCH   1  16
BRANCH   2  25
ATOM     25  C   UNL     1       2.968   4.731  20.061  0.00  0.00    +0.000 C 
ATOM     26  N   UNL     1       3.128   3.648  20.444  0.00  0.00    +0.000 NA
ENDBRANCH   2  25
TORSDOF 7
ENDMDL
MODEL 7
REMARK VINA RESULT:      -7.0      1.732      2.816
REMARK  Name = 
REMARK  8 active torsions:
REMARK  status: ('A' for Active; 'I' for Inactive)
REMARK    1  A    between atoms: C_2  and  C_3
REMARK    2  A    between atoms: C_3  and  O_4
REMARK    3  A    between atoms: O_4  and  C_5
REMARK    4  A    between atoms: C_8  and  C_9
REMARK    5  A    between atoms: C_10  and  C_11
REMARK    6  A    between atoms: C_10  and  C_13
REMARK    7  A    between atoms: C_23  and  O_24
REMARK    8  A    between atoms: O_24  and  C_25
REMARK                            x       y       z     vdW  Elec       q    Type
REMARK                         _______ _______ _______ _____ _____    ______ ____
ROOT
ATOM      1  C   UNL     1       2.728   7.237  18.580  0.00  0.00    +0.000 C 
ATOM      2  C   UNL     1       2.144   7.039  19.782  0.00  0.00    +0.000 C 
ENDROOT
BRANCH   2   3
ATOM      3  C   UNL     1       1.399   8.205  20.390  0.00  0.00    +0.000 C 
ATOM      4  O   UNL     1       1.085   8.147  21.579  0.00  0.00    +0.000 OA
ATOM      5  N   UNL     1       1.084   9.244  19.527  0.00  0.00    +0.000 N 
ATOM      6  C   UNL     1       0.485  10.458  19.937  0.00  0.00    +0.000 A 
ATOM      7  C   UNL     1       0.015  11.324  18.957  0.00  0.00    +0.000 A 
ATOM      8  C   UNL     1      -0.582  12.532  19.341  0.00  0.00    +0.000 A 
ATOM      9  C   UNL     1      -0.683  12.843  20.691  0.00  0.00    +0.000 A 
ATOM     10  C   UNL     1      -0.183  11.932  21.598  0.00  0.00    +0.000 A 
ATOM     11  N   UNL     1       0.387  10.757  21.245  0.00  0.00    +0.000 NA
ATOM     12  H   UNL     1       1.245   9.154  18.534  0.00  0.00    +0.000 HD
ENDBRANCH   2   3
BRANCH   1  16
ATOM     13  C   UNL     1       4.964   4.288  16.349  0.00  0.00    +0.000 A 
ATOM     14  C   UNL     1       5.370   5.645  16.414  0.00  0.00    +0.000 A 
ATOM     15  C   UNL     1       4.650   6.619  17.119  0.00  0.00    +0.000 A 
ATOM     16  C   UNL     1       3.504   6.255  17.811  0.00  0.00    +0.000 A 
ATOM     17  C   UNL     1       3.115   4.914  17.781  0.00  0.00    +0.000 A 
ATOM     18  C   UNL     1       3.811   3.912  17.052  0.00  0.00    +0.000 A 
BRANCH  18  19
ATOM     19  O   UNL     1       3.127   2.749  17.224  0.00  0.00    +0.000 OA
ATOM     20  C   UNL     1       3.339   1.784  18.222  0.00  0.00    +0.000 C 
ENDBRANCH  18  19
BRANCH  13  21
ATOM     21  O   UNL     1       5.859   3.564  15.601  0.00  0.00    +0.000 OA
BRANCH  21  22
ATOM     22  C   UNL     1       6.466   4.193  14.487  0.00  0.00    +0.000 C 
BRANCH  22  24
ATOM     23  C   UNL     1       6.693   3.569  12.071  0.00  0.00    +0.000 C 
ATOM     24  C   UNL     1       5.959   3.631  13.191  0.00  0.00    +0.000 C 
ENDBRANCH  22  24
ENDBRANCH  21  22
ENDBRANCH  13  21
ENDBRANCH   1  16
BRANCH   2  25
ATOM     25  C   UNL     1       2.209   5.794  20.464  0.00  0.00    +0.000 C 
ATOM     26  N   UNL     1       2.202   4.809  21.074  0.00  0.00    +0.000 NA
ENDBRANCH   2  25
TORSDOF 7
ENDMDL
MODEL 8
REMARK VINA RESULT:      -6.9      4.752      7.209
REMARK  Name = 
REMARK  8 active torsions:
REMARK  status: ('A' for Active; 'I' for Inactive)
REMARK    1  A    between atoms: C_2  and  C_3
REMARK    2  A    between atoms: C_3  and  O_4
REMARK    3  A    between atoms: O_4  and  C_5
REMARK    4  A    between atoms: C_8  and  C_9
REMARK    5  A    between atoms: C_10  and  C_11
REMARK    6  A    between atoms: C_10  and  C_13
REMARK    7  A    between atoms: C_23  and  O_24
REMARK    8  A    between atoms: O_24  and  C_25
REMARK                            x       y       z     vdW  Elec       q    Type
REMARK                         _______ _______ _______ _____ _____    ______ ____
ROOT
ATOM      1  C   UNL     1       6.394   7.437  17.268  0.00  0.00    +0.000 C 
ATOM      2  C   UNL     1       7.504   7.480  18.035  0.00  0.00    +0.000 C 
ENDROOT
BRANCH   2   3
ATOM      3  C   UNL     1       8.323   8.750  17.998  0.00  0.00    +0.000 C 
ATOM      4  O   UNL     1       8.667   9.197  16.903  0.00  0.00    +0.000 OA
ATOM      5  N   UNL     1       8.666   9.290  19.228  0.00  0.00    +0.000 N 
ATOM      6  C   UNL     1       9.336  10.525  19.391  0.00  0.00    +0.000 A 
ATOM      7  C   UNL     1       9.822  10.850  20.652  0.00  0.00    +0.000 A 
ATOM      8  C   UNL     1      10.489  12.068  20.834  0.00  0.00    +0.000 A 
ATOM      9  C   UNL     1      10.643  12.929  19.756  0.00  0.00    +0.000 A 
ATOM     10  C   UNL     1      10.122  12.534  18.540  0.00  0.00    +0.000 A 
ATOM     11  N   UNL     1       9.485  11.358  18.344  0.00  0.00    +0.000 NA
ATOM     12  H   UNL     1       8.473   8.786  20.082  0.00  0.00    +0.000 HD
ENDBRANCH   2   3
BRANCH   1  16
ATOM     13  C   UNL     1       3.686   4.097  16.835  0.00  0.00    +0.000 A 
ATOM     14  C   UNL     1       3.428   5.158  17.740  0.00  0.00    +0.000 A 
ATOM     15  C   UNL     1       4.302   6.242  17.906  0.00  0.00    +0.000 A 
ATOM     16  C   UNL     1       5.459   6.311  17.143  0.00  0.00    +0.000 A 
ATOM     17  C   UNL     1       5.703   5.288  16.224  0.00  0.00    +0.000 A 
ATOM     18  C   UNL     1       4.848   4.165  16.056  0.00  0.00    +0.000 A 
BRANCH  18  19
ATOM     19  O   UNL     1       5.421   3.368  15.113  0.00  0.00    +0.000 OA
ATOM     20  C   UNL     1       6.182   3.781  14.007  0.00  0.00    +0.000 C 
ENDBRANCH  18  19
BRANCH  13  21
ATOM     21  O   UNL     1       2.661   3.185  16.877  0.00  0.00    +0.000 OA
BRANCH  21  22
ATOM     22  C   UNL     1       2.491   2.419  18.056  0.00  0.00    +0.000 C 
BRANCH  22  24
ATOM     23  C   UNL     1       0.964   3.000  19.955  0.00  0.00    +0.000 C 
ATOM     24  C   UNL     1       1.143   2.647  18.674  0.00  0.00    +0.000 C 
ENDBRANCH  22  24
ENDBRANCH  21  22
ENDBRANCH  13  21
ENDBRANCH   1  16
BRANCH   2  25
ATOM     25  C   UNL     1       7.905   6.392  18.855  0.00  0.00    +0.000 C 
ATOM     26  N   UNL     1       8.227   5.454  19.455  0.00  0.00    +0.000 NA
ENDBRANCH   2  25
TORSDOF 7
ENDMDL
MODEL 9
REMARK VINA RESULT:      -6.9      1.781      2.944
REMARK  Name = 
REMARK  8 active torsions:
REMARK  status: ('A' for Active; 'I' for Inactive)
REMARK    1  A    between atoms: C_2  and  C_3
REMARK    2  A    between atoms: C_3  and  O_4
REMARK    3  A    between atoms: O_4  and  C_5
REMARK    4  A    between atoms: C_8  and  C_9
REMARK    5  A    between atoms: C_10  and  C_11
REMARK    6  A    between atoms: C_10  and  C_13
REMARK    7  A    between atoms: C_23  and  O_24
REMARK    8  A    between atoms: O_24  and  C_25
REMARK                            x       y       z     vdW  Elec       q    Type
REMARK                         _______ _______ _______ _____ _____    ______ ____
ROOT
ATOM      1  C   UNL     1       1.978   7.097  20.026  0.00  0.00    +0.000 C 
ATOM      2  C   UNL     1       1.575   8.335  19.668  0.00  0.00    +0.000 C 
ENDROOT
BRANCH   2   3
ATOM      3  C   UNL     1       0.840   9.151  20.707  0.00  0.00    +0.000 C 
ATOM      4  O   UNL     1       0.993   8.867  21.895  0.00  0.00    +0.000 OA
ATOM      5  N   UNL     1       0.000  10.142  20.221  0.00  0.00    +0.000 N 
ATOM      6  C   UNL     1      -0.684  11.070  21.040  0.00  0.00    +0.000 A 
ATOM      7  C   UNL     1      -1.665  11.865  20.458  0.00  0.00    +0.000 A 
ATOM      8  C   UNL     1      -2.356  12.789  21.252  0.00  0.00    +0.000 A 
ATOM      9  C   UNL     1      -2.041  12.900  22.599  0.00  0.00    +0.000 A 
ATOM     10  C   UNL     1      -1.048  12.080  23.096  0.00  0.00    +0.000 A 
ATOM     11  N   UNL     1      -0.379  11.175  22.346  0.00  0.00    +0.000 NA
ATOM     12  H   UNL     1      -0.186  10.218  19.231  0.00  0.00    +0.000 HD
ENDBRANCH   2   3
BRANCH   1  16
ATOM     13  C   UNL     1       4.028   4.208  17.550  0.00  0.00    +0.000 A 
ATOM     14  C   UNL     1       4.677   5.371  18.040  0.00  0.00    +0.000 A 
ATOM     15  C   UNL     1       4.025   6.326  18.830  0.00  0.00    +0.000 A 
ATOM     16  C   UNL     1       2.697   6.132  19.183  0.00  0.00    +0.000 A 
ATOM     17  C   UNL     1       2.060   4.974  18.733  0.00  0.00    +0.000 A 
ATOM     18  C   UNL     1       2.689   4.003  17.908  0.00  0.00    +0.000 A 
BRANCH  18  19
ATOM     19  O   UNL     1       1.760   3.045  17.643  0.00  0.00    +0.000 OA
ATOM     20  C   UNL     1       1.009   2.314  18.579  0.00  0.00    +0.000 C 
ENDBRANCH  18  19
BRANCH  13  21
ATOM     21  O   UNL     1       4.908   3.453  16.815  0.00  0.00    +0.000 OA
BRANCH  21  22
ATOM     22  C   UNL     1       5.943   4.119  16.116  0.00  0.00    +0.000 C 
BRANCH  22  24
ATOM     23  C   UNL     1       6.159   3.844  13.635  0.00  0.00    +0.000 C 
ATOM     24  C   UNL     1       5.556   4.402  14.694  0.00  0.00    +0.000 C 
ENDBRANCH  22  24
ENDBRANCH  21  22
ENDBRANCH  13  21
ENDBRANCH   1  16
BRANCH   2  25
ATOM     25  C   UNL     1       1.823   8.873  18.377  0.00  0.00    +0.000 C 
ATOM     26  N   UNL     1       2.043   9.387  17.361  0.00  0.00    +0.000 NA
ENDBRANCH   2  25
TORSDOF 7
ENDMDL
