MODEL 1
REMARK VINA RESULT:      -7.1      0.000      0.000
REMARK  Name = 
REMARK  9 active torsions:
REMARK  status: ('A' for Active; 'I' for Inactive)
REMARK    1  A    between atoms: C_1  and  O_2
REMARK    2  A    between atoms: O_2  and  C_3
REMARK    3  A    between atoms: C_3  and  C_5
REMARK    4  A    between atoms: C_5  and  C_15
REMARK    5  A    between atoms: C_6  and  C_7
REMARK    6  A    between atoms: C_10  and  O_11
REMARK    7  A    between atoms: O_11  and  C_12
REMARK    8  A    between atoms: C_18  and  O_19
REMARK    9  A    between atoms: O_19  and  C_20
REMARK                            x       y       z     vdW  Elec       q    Type
REMARK                         _______ _______ _______ _____ _____    ______ ____
ROOT
ATOM      1  C   UNL     1       3.151   6.057  18.288  0.00  0.00    +0.000 C 
ATOM      2  C   UNL     1       2.816   7.362  18.232  0.00  0.00    +0.000 C 
ENDROOT
BRANCH   2   3
ATOM      3  C   UNL     1       1.926   8.113  19.124  0.00  0.00    +0.000 A 
ATOM      4  C   UNL     1       1.825   7.763  20.473  0.00  0.00    +0.000 A 
ATOM      5  C   UNL     1       1.073   8.550  21.350  0.00  0.00    +0.000 A 
ATOM      6  C   UNL     1       0.432   9.702  20.894  0.00  0.00    +0.000 A 
ATOM      7  C   UNL     1       0.488  10.027  19.538  0.00  0.00    +0.000 A 
ATOM      8  C   UNL     1       1.233   9.234  18.656  0.00  0.00    +0.000 A 
BRANCH   6   9
ATOM      9  O   UNL     1      -0.246  10.419  21.843  0.00  0.00    +0.000 OA
ATOM     10  C   UNL     1      -0.369   9.776  23.109  0.00  0.00    +0.000 C 
ENDBRANCH   6   9
ENDBRANCH   2   3
BRANCH   1  11
ATOM     11  C   UNL     1       4.096   5.565  17.261  0.00  0.00    +0.000 A 
ATOM     12  C   UNL     1       4.356   4.194  17.149  0.00  0.00    +0.000 A 
ATOM     13  C   UNL     1       5.245   3.724  16.177  0.00  0.00    +0.000 A 
ATOM     14  C   UNL     1       5.870   4.610  15.298  0.00  0.00    +0.000 A 
ATOM     15  C   UNL     1       5.627   5.978  15.417  0.00  0.00    +0.000 A 
ATOM     16  C   UNL     1       4.746   6.454  16.397  0.00  0.00    +0.000 A 
BRANCH  14  17
ATOM     17  O   UNL     1       6.726   4.032  14.403  0.00  0.00    +0.000 OA
ATOM     18  C   UNL     1       6.166   3.701  13.135  0.00  0.00    +0.000 C 
ENDBRANCH  14  17
ENDBRANCH   1  11
BRANCH   1  19
ATOM     19  C   UNL     1       2.634   5.132  19.343  0.00  0.00    +0.000 C 
ATOM     20  O   UNL     1       3.188   4.875  20.398  0.00  0.00    +0.000 OA
BRANCH  19  22
ATOM     21  C   UNL     1       0.964   3.502  19.703  0.00  0.00    +0.000 C 
ATOM     22  O   UNL     1       1.444   4.607  18.935  0.00  0.00    +0.000 OA
ENDBRANCH  19  22
ENDBRANCH   1  19
TORSDOF 6
ENDMDL
MODEL 2
REMARK VINA RESULT:      -7.0      0.267      1.478
REMARK  Name = 
REMARK  9 active torsions:
REMARK  status: ('A' for Active; 'I' for Inactive)
REMARK    1  A    between atoms: C_1  and  O_2
REMARK    2  A    between atoms: O_2  and  C_3
REMARK    3  A    between atoms: C_3  and  C_5
REMARK    4  A    between atoms: C_5  and  C_15
REMARK    5  A    between atoms: C_6  and  C_7
REMARK    6  A    between atoms: C_10  and  O_11
REMARK    7  A    between atoms: O_11  and  C_12
REMARK    8  A    between atoms: C_18  and  O_19
REMARK    9  A    between atoms: O_19  and  C_20
REMARK                            x       y       z     vdW  Elec       q    Type
REMARK                         _______ _______ _______ _____ _____    ______ ____
ROOT
ATOM      1  C   UNL     1       3.207   6.105  18.184  0.00  0.00    +0.000 C 
ATOM      2  C   UNL     1       2.897   7.415  18.113  0.00  0.00    +0.000 C 
ENDROOT
BRANCH   2   3
ATOM      3  C   UNL     1       2.031   8.196  19.004  0.00  0.00    +0.000 A 
ATOM      4  C   UNL     1       1.289   9.267  18.501  0.00  0.00    +0.000 A 
ATOM      5  C   UNL     1       0.374   9.936  19.319  0.00  0.00    +0.000 A 
ATOM      6  C   UNL     1       0.177   9.529  20.640  0.00  0.00    +0.000 A 
ATOM      7  C   UNL     1       0.954   8.494  21.161  0.00  0.00    +0.000 A 
ATOM      8  C   UNL     1       1.878   7.829  20.345  0.00  0.00    +0.000 A 
BRANCH   6   9
ATOM      9  O   UNL     1      -0.769  10.228  21.341  0.00  0.00    +0.000 OA
ATOM     10  C   UNL     1      -0.624  10.184  22.757  0.00  0.00    +0.000 C 
ENDBRANCH   6   9
ENDBRANCH   2   3
BRANCH   1  11
ATOM     11  C   UNL     1       4.131   5.580  17.154  0.00  0.00    +0.000 A 
ATOM     12  C   UNL     1       4.794   6.464  16.294  0.00  0.00    +0.000 A 
ATOM     13  C   UNL     1       5.670   5.973  15.321  0.00  0.00    +0.000 A 
ATOM     14  C   UNL     1       5.908   4.603  15.206  0.00  0.00    +0.000 A 
ATOM     15  C   UNL     1       5.237   3.718  16.049  0.00  0.00    +0.000 A 
ATOM     16  C   UNL     1       4.349   4.204  17.017  0.00  0.00    +0.000 A 
BRANCH  14  17
ATOM     17  O   UNL     1       6.774   4.246  14.210  0.00  0.00    +0.000 OA
ATOM     18  C   UNL     1       6.183   3.643  13.062  0.00  0.00    +0.000 C 
ENDBRANCH  14  17
ENDBRANCH   1  11
BRANCH   1  19
ATOM     19  C   UNL     1       2.685   5.205  19.259  0.00  0.00    +0.000 C 
ATOM     20  O   UNL     1       3.243   4.958  20.314  0.00  0.00    +0.000 OA
BRANCH  19  22
ATOM     21  C   UNL     1       0.960   3.655  19.701  0.00  0.00    +0.000 C 
ATOM     22  O   UNL     1       1.485   4.691  18.869  0.00  0.00    +0.000 OA
ENDBRANCH  19  22
ENDBRANCH   1  19
TORSDOF 6
ENDMDL
MODEL 3
REMARK VINA RESULT:      -6.9      2.136      4.108
REMARK  Name = 
REMARK  9 active torsions:
REMARK  status: ('A' for Active; 'I' for Inactive)
REMARK    1  A    between atoms: C_1  and  O_2
REMARK    2  A    between atoms: O_2  and  C_3
REMARK    3  A    between atoms: C_3  and  C_5
REMARK    4  A    between atoms: C_5  and  C_15
REMARK    5  A    between atoms: C_6  and  C_7
REMARK    6  A    between atoms: C_10  and  O_11
REMARK    7  A    between atoms: O_11  and  C_12
REMARK    8  A    between atoms: C_18  and  O_19
REMARK    9  A    between atoms: O_19  and  C_20
REMARK                            x       y       z     vdW  Elec       q    Type
REMARK                         _______ _______ _______ _____ _____    ______ ____
ROOT
ATOM      1  C   UNL     1       5.819   5.570  16.153  0.00  0.00    +0.000 C 
ATOM      2  C   UNL     1       4.522   5.416  16.489  0.00  0.00    +0.000 C 
ENDROOT
BRANCH   2   3
ATOM      3  C   UNL     1       3.831   5.888  17.694  0.00  0.00    +0.000 A 
ATOM      4  C   UNL     1       3.187   7.128  17.695  0.00  0.00    +0.000 A 
ATOM      5  C   UNL     1       2.428   7.527  18.799  0.00  0.00    +0.000 A 
ATOM      6  C   UNL     1       2.287   6.684  19.902  0.00  0.00    +0.000 A 
ATOM      7  C   UNL     1       2.970   5.468  19.927  0.00  0.00    +0.000 A 
ATOM      8  C   UNL     1       3.740   5.071  18.826  0.00  0.00    +0.000 A 
BRANCH   6   9
ATOM      9  O   UNL     1       1.492   7.157  20.911  0.00  0.00    +0.000 OA
ATOM     10  C   UNL     1       1.457   8.575  21.037  0.00  0.00    +0.000 C 
ENDBRANCH   6   9
ENDBRANCH   2   3
BRANCH   1  11
ATOM     11  C   UNL     1       6.244   5.004  14.854  0.00  0.00    +0.000 A 
ATOM     12  C   UNL     1       5.473   4.011  14.238  0.00  0.00    +0.000 A 
ATOM     13  C   UNL     1       5.869   3.476  13.008  0.00  0.00    +0.000 A 
ATOM     14  C   UNL     1       7.023   3.934  12.372  0.00  0.00    +0.000 A 
ATOM     15  C   UNL     1       7.803   4.912  12.990  0.00  0.00    +0.000 A 
ATOM     16  C   UNL     1       7.417   5.441  14.228  0.00  0.00    +0.000 A 
BRANCH  14  17
ATOM     17  O   UNL     1       7.312   3.325  11.183  0.00  0.00    +0.000 OA
ATOM     18  C   UNL     1       7.187   1.906  11.166  0.00  0.00    +0.000 C 
ENDBRANCH  14  17
ENDBRANCH   1  11
BRANCH   1  19
ATOM     19  C   UNL     1       6.799   6.300  17.016  0.00  0.00    +0.000 C 
ATOM     20  O   UNL     1       7.009   7.500  16.996  0.00  0.00    +0.000 OA
BRANCH  19  22
ATOM     21  C   UNL     1       7.716   5.867  19.148  0.00  0.00    +0.000 C 
ATOM     22  O   UNL     1       7.435   5.407  17.826  0.00  0.00    +0.000 OA
ENDBRANCH  19  22
ENDBRANCH   1  19
TORSDOF 6
ENDMDL
MODEL 4
REMARK VINA RESULT:      -6.9      0.624      1.233
REMARK  Name = 
REMARK  9 active torsions:
REMARK  status: ('A' for Active; 'I' for Inactive)
REMARK    1  A    between atoms: C_1  and  O_2
REMARK    2  A    between atoms: O_2  and  C_3
REMARK    3  A    between atoms: C_3  and  C_5
REMARK    4  A    between atoms: C_5  and  C_15
REMARK    5  A    between atoms: C_6  and  C_7
REMARK    6  A    between atoms: C_10  and  O_11
REMARK    7  A    between atoms: O_11  and  C_12
REMARK    8  A    between atoms: C_18  and  O_19
REMARK    9  A    between atoms: O_19  and  C_20
REMARK                            x       y       z     vdW  Elec       q    Type
REMARK                         _______ _______ _______ _____ _____    ______ ____
ROOT
ATOM      1  C   UNL     1       3.170   6.073  18.143  0.00  0.00    +0.000 C 
ATOM      2  C   UNL     1       2.860   7.383  18.054  0.00  0.00    +0.000 C 
ENDROOT
BRANCH   2   3
ATOM      3  C   UNL     1       1.950   8.163  18.901  0.00  0.00    +0.000 A 
ATOM      4  C   UNL     1       1.862   7.895  20.270  0.00  0.00    +0.000 A 
ATOM      5  C   UNL     1       1.089   8.713  21.099  0.00  0.00    +0.000 A 
ATOM      6  C   UNL     1       0.414   9.816  20.574  0.00  0.00    +0.000 A 
ATOM      7  C   UNL     1       0.459  10.057  19.200  0.00  0.00    +0.000 A 
ATOM      8  C   UNL     1       1.225   9.232  18.366  0.00  0.00    +0.000 A 
BRANCH   6   9
ATOM      9  O   UNL     1      -0.282  10.571  21.479  0.00  0.00    +0.000 OA
ATOM     10  C   UNL     1      -1.050  11.630  20.917  0.00  0.00    +0.000 C 
ENDBRANCH   6   9
ENDBRANCH   2   3
BRANCH   1  11
ATOM     11  C   UNL     1       4.144   5.550  17.159  0.00  0.00    +0.000 A 
ATOM     12  C   UNL     1       4.839   6.433  16.325  0.00  0.00    +0.000 A 
ATOM     13  C   UNL     1       5.763   5.943  15.397  0.00  0.00    +0.000 A 
ATOM     14  C   UNL     1       6.015   4.574  15.301  0.00  0.00    +0.000 A 
ATOM     15  C   UNL     1       5.313   3.689  16.118  0.00  0.00    +0.000 A 
ATOM     16  C   UNL     1       4.378   4.174  17.041  0.00  0.00    +0.000 A 
BRANCH  14  17
ATOM     17  O   UNL     1       6.929   4.217  14.348  0.00  0.00    +0.000 OA
ATOM     18  C   UNL     1       6.388   3.788  13.101  0.00  0.00    +0.000 C 
ENDBRANCH  14  17
ENDBRANCH   1  11
BRANCH   1  19
ATOM     19  C   UNL     1       2.599   5.174  19.193  0.00  0.00    +0.000 C 
ATOM     20  O   UNL     1       3.093   4.951  20.284  0.00  0.00    +0.000 OA
BRANCH  19  22
ATOM     21  C   UNL     1       1.206   3.270  19.108  0.00  0.00    +0.000 C 
ATOM     22  O   UNL     1       1.438   4.629  18.732  0.00  0.00    +0.000 OA
ENDBRANCH  19  22
ENDBRANCH   1  19
TORSDOF 6
ENDMDL
MODEL 5
REMARK VINA RESULT:      -6.9      1.138      7.553
REMARK  Name = 
REMARK  9 active torsions:
REMARK  status: ('A' for Active; 'I' for Inactive)
REMARK    1  A    between atoms: C_1  and  O_2
REMARK    2  A    between atoms: O_2  and  C_3
REMARK    3  A    between atoms: C_3  and  C_5
REMARK    4  A    between atoms: C_5  and  C_15
REMARK    5  A    between atoms: C_6  and  C_7
REMARK    6  A    between atoms: C_10  and  O_11
REMARK    7  A    between atoms: O_11  and  C_12
REMARK    8  A    between atoms: C_18  and  O_19
REMARK    9  A    between atoms: O_19  and  C_20
REMARK                            x       y       z     vdW  Elec       q    Type
REMARK                         _______ _______ _______ _____ _____    ______ ____
ROOT
ATOM      1  C   UNL     1       2.858   6.731  18.760  0.00  0.00    +0.000 C 
ATOM      2  C   UNL     1       3.921   7.220  18.089  0.00  0.00    +0.000 C 
ENDROOT
BRANCH   2   3
ATOM      3  C   UNL     1       4.916   6.487  17.299  0.00  0.00    +0.000 A 
ATOM      4  C   UNL     1       4.651   6.155  15.968  0.00  0.00    +0.000 A 
ATOM      5  C   UNL     1       5.641   5.564  15.179  0.00  0.00    +0.000 A 
ATOM      6  C   UNL     1       6.911   5.318  15.704  0.00  0.00    +0.000 A 
ATOM      7  C   UNL     1       7.164   5.600  17.047  0.00  0.00    +0.000 A 
ATOM      8  C   UNL     1       6.168   6.183  17.842  0.00  0.00    +0.000 A 
BRANCH   6   9
ATOM      9  O   UNL     1       7.816   4.771  14.834  0.00  0.00    +0.000 OA
ATOM     10  C   UNL     1       7.436   4.816  13.462  0.00  0.00    +0.000 C 
ENDBRANCH   6   9
ENDBRANCH   2   3
BRANCH   1  11
ATOM     11  C   UNL     1       2.001   7.712  19.461  0.00  0.00    +0.000 A 
ATOM     12  C   UNL     1       1.614   7.482  20.786  0.00  0.00    +0.000 A 
ATOM     13  C   UNL     1       0.807   8.408  21.454  0.00  0.00    +0.000 A 
ATOM     14  C   UNL     1       0.392   9.578  20.817  0.00  0.00    +0.000 A 
ATOM     15  C   UNL     1       0.761   9.804  19.491  0.00  0.00    +0.000 A 
ATOM     16  C   UNL     1       1.559   8.873  18.814  0.00  0.00    +0.000 A 
BRANCH  14  17
ATOM     17  O   UNL     1      -0.403  10.398  21.568  0.00  0.00    +0.000 OA
ATOM     18  C   UNL     1      -0.531  10.048  22.943  0.00  0.00    +0.000 C 
ENDBRANCH  14  17
ENDBRANCH   1  11
BRANCH   1  19
ATOM     19  C   UNL     1       2.518   5.274  18.789  0.00  0.00    +0.000 C 
ATOM     20  O   UNL     1       1.702   4.720  18.074  0.00  0.00    +0.000 OA
BRANCH  19  22
ATOM     21  C   UNL     1       3.950   3.481  19.340  0.00  0.00    +0.000 C 
ATOM     22  O   UNL     1       3.259   4.660  19.754  0.00  0.00    +0.000 OA
ENDBRANCH  19  22
ENDBRANCH   1  19
TORSDOF 6
ENDMDL
MODEL 6
REMARK VINA RESULT:      -6.8      1.178      7.577
REMARK  Name = 
REMARK  9 active torsions:
REMARK  status: ('A' for Active; 'I' for Inactive)
REMARK    1  A    between atoms: C_1  and  O_2
REMARK    2  A    between atoms: O_2  and  C_3
REMARK    3  A    between atoms: C_3  and  C_5
REMARK    4  A    between atoms: C_5  and  C_15
REMARK    5  A    between atoms: C_6  and  C_7
REMARK    6  A    between atoms: C_10  and  O_11
REMARK    7  A    between atoms: O_11  and  C_12
REMARK    8  A    between atoms: C_18  and  O_19
REMARK    9  A    between atoms: O_19  and  C_20
REMARK                            x       y       z     vdW  Elec       q    Type
REMARK                         _______ _______ _______ _____ _____    ______ ____
ROOT
ATOM      1  C   UNL     1       2.755   6.866  18.969  0.00  0.00    +0.000 C 
ATOM      2  C   UNL     1       3.742   7.337  18.180  0.00  0.00    +0.000 C 
ENDROOT
BRANCH   2   3
ATOM      3  C   UNL     1       4.738   6.578  17.415  0.00  0.00    +0.000 A 
ATOM      4  C   UNL     1       4.590   6.414  16.036  0.00  0.00    +0.000 A 
ATOM      5  C   UNL     1       5.596   5.797  15.288  0.00  0.00    +0.000 A 
ATOM      6  C   UNL     1       6.767   5.355  15.906  0.00  0.00    +0.000 A 
ATOM      7  C   UNL     1       6.896   5.470  17.290  0.00  0.00    +0.000 A 
ATOM      8  C   UNL     1       5.884   6.079  18.043  0.00  0.00    +0.000 A 
BRANCH   6   9
ATOM      9  O   UNL     1       7.702   4.799  15.075  0.00  0.00    +0.000 OA
ATOM     10  C   UNL     1       7.345   4.775  13.696  0.00  0.00    +0.000 C 
ENDBRANCH   6   9
ENDBRANCH   2   3
BRANCH   1  11
ATOM     11  C   UNL     1       1.874   7.869  19.608  0.00  0.00    +0.000 A 
ATOM     12  C   UNL     1       1.488   9.012  18.899  0.00  0.00    +0.000 A 
ATOM     13  C   UNL     1       0.652   9.961  19.497  0.00  0.00    +0.000 A 
ATOM     14  C   UNL     1       0.181   9.773  20.797  0.00  0.00    +0.000 A 
ATOM     15  C   UNL     1       0.578   8.644  21.513  0.00  0.00    +0.000 A 
ATOM     16  C   UNL     1       1.424   7.697  20.922  0.00  0.00    +0.000 A 
BRANCH  14  17
ATOM     17  O   UNL     1      -0.616  10.775  21.276  0.00  0.00    +0.000 OA
ATOM     18  C   UNL     1      -0.777  10.816  22.691  0.00  0.00    +0.000 C 
ENDBRANCH  14  17
ENDBRANCH   1  11
BRANCH   1  19
ATOM     19  C   UNL     1       2.517   5.405  19.185  0.00  0.00    +0.000 C 
ATOM     20  O   UNL     1       2.935   4.747  20.122  0.00  0.00    +0.000 OA
BRANCH  19  22
ATOM     21  C   UNL     1       2.227   3.691  17.587  0.00  0.00    +0.000 C 
ATOM     22  O   UNL     1       1.766   4.917  18.158  0.00  0.00    +0.000 OA
ENDBRANCH  19  22
ENDBRANCH   1  19
TORSDOF 6
ENDMDL
MODEL 7
REMARK VINA RESULT:      -6.8      0.731      1.006
REMARK  Name = 
REMARK  9 active torsions:
REMARK  status: ('A' for Active; 'I' for Inactive)
REMARK    1  A    between atoms: C_1  and  O_2
REMARK    2  A    between atoms: O_2  and  C_3
REMARK    3  A    between atoms: C_3  and  C_5
REMARK    4  A    between atoms: C_5  and  C_15
REMARK    5  A    between atoms: C_6  and  C_7
REMARK    6  A    between atoms: C_10  and  O_11
REMARK    7  A    between atoms: O_11  and  C_12
REMARK    8  A    between atoms: C_18  and  O_19
REMARK    9  A    between atoms: O_19  and  C_20
REMARK                            x       y       z     vdW  Elec       q    Type
REMARK                         _______ _______ _______ _____ _____    ______ ____
ROOT
ATOM      1  C   UNL     1       2.981   6.116  18.273  0.00  0.00    +0.000 C 
ATOM      2  C   UNL     1       2.767   7.445  18.355  0.00  0.00    +0.000 C 
ENDROOT
BRANCH   2   3
ATOM      3  C   UNL     1       1.841   8.166  19.235  0.00  0.00    +0.000 A 
ATOM      4  C   UNL     1       1.746   7.824  20.587  0.00  0.00    +0.000 A 
ATOM      5  C   UNL     1       0.956   8.586  21.452  0.00  0.00    +0.000 A 
ATOM      6  C   UNL     1       0.271   9.707  20.983  0.00  0.00    +0.000 A 
ATOM      7  C   UNL     1       0.322  10.022  19.624  0.00  0.00    +0.000 A 
ATOM      8  C   UNL     1       1.105   9.253  18.753  0.00  0.00    +0.000 A 
BRANCH   6   9
ATOM      9  O   UNL     1      -0.442  10.402  21.922  0.00  0.00    +0.000 OA
ATOM     10  C   UNL     1      -0.395  11.819  21.786  0.00  0.00    +0.000 C 
ENDBRANCH   6   9
ENDBRANCH   2   3
BRANCH   1  11
ATOM     11  C   UNL     1       4.000   5.662  17.300  0.00  0.00    +0.000 A 
ATOM     12  C   UNL     1       4.183   4.294  17.067  0.00  0.00    +0.000 A 
ATOM     13  C   UNL     1       5.142   3.861  16.146  0.00  0.00    +0.000 A 
ATOM     14  C   UNL     1       5.914   4.782  15.438  0.00  0.00    +0.000 A 
ATOM     15  C   UNL     1       5.746   6.145  15.679  0.00  0.00    +0.000 A 
ATOM     16  C   UNL     1       4.796   6.584  16.610  0.00  0.00    +0.000 A 
BRANCH  14  17
ATOM     17  O   UNL     1       6.825   4.236  14.577  0.00  0.00    +0.000 OA
ATOM     18  C   UNL     1       6.301   3.763  13.339  0.00  0.00    +0.000 C 
ENDBRANCH  14  17
ENDBRANCH   1  11
BRANCH   1  19
ATOM     19  C   UNL     1       2.262   5.125  19.132  0.00  0.00    +0.000 C 
ATOM     20  O   UNL     1       1.209   4.576  18.856  0.00  0.00    +0.000 OA
BRANCH  19  22
ATOM     21  C   UNL     1       2.295   4.186  21.298  0.00  0.00    +0.000 C 
ATOM     22  O   UNL     1       2.965   4.938  20.285  0.00  0.00    +0.000 OA
ENDBRANCH  19  22
ENDBRANCH   1  19
TORSDOF 6
ENDMDL
MODEL 8
REMARK VINA RESULT:      -6.8      0.562      1.171
REMARK  Name = 
REMARK  9 active torsions:
REMARK  status: ('A' for Active; 'I' for Inactive)
REMARK    1  A    between atoms: C_1  and  O_2
REMARK    2  A    between atoms: O_2  and  C_3
REMARK    3  A    between atoms: C_3  and  C_5
REMARK    4  A    between atoms: C_5  and  C_15
REMARK    5  A    between atoms: C_6  and  C_7
REMARK    6  A    between atoms: C_10  and  O_11
REMARK    7  A    between atoms: O_11  and  C_12
REMARK    8  A    between atoms: C_18  and  O_19
REMARK    9  A    between atoms: O_19  and  C_20
REMARK                            x       y       z     vdW  Elec       q    Type
REMARK                         _______ _______ _______ _____ _____    ______ ____
ROOT
ATOM      1  C   UNL     1       3.221   6.068  18.173  0.00  0.00    +0.000 C 
ATOM      2  C   UNL     1       2.938   7.386  18.145  0.00  0.00    +0.000 C 
ENDROOT
BRANCH   2   3
ATOM      3  C   UNL     1       2.074   8.152  19.050  0.00  0.00    +0.000 A 
ATOM      4  C   UNL     1       1.351   9.248  18.573  0.00  0.00    +0.000 A 
ATOM      5  C   UNL     1       0.437   9.904  19.402  0.00  0.00    +0.000 A 
ATOM      6  C   UNL     1       0.221   9.461  20.707  0.00  0.00    +0.000 A 
ATOM      7  C   UNL     1       0.978   8.399  21.204  0.00  0.00    +0.000 A 
ATOM      8  C   UNL     1       1.902   7.747  20.378  0.00  0.00    +0.000 A 
BRANCH   6   9
ATOM      9  O   UNL     1      -0.722  10.152  21.419  0.00  0.00    +0.000 OA
ATOM     10  C   UNL     1      -0.441  11.535  21.608  0.00  0.00    +0.000 C 
ENDBRANCH   6   9
ENDBRANCH   2   3
BRANCH   1  11
ATOM     11  C   UNL     1       4.150   5.562  17.138  0.00  0.00    +0.000 A 
ATOM     12  C   UNL     1       4.361   4.186  17.001  0.00  0.00    +0.000 A 
ATOM     13  C   UNL     1       5.236   3.703  16.023  0.00  0.00    +0.000 A 
ATOM     14  C   UNL     1       5.894   4.582  15.162  0.00  0.00    +0.000 A 
ATOM     15  C   UNL     1       5.700   5.956  15.307  0.00  0.00    +0.000 A 
ATOM     16  C   UNL     1       4.835   6.444  16.293  0.00  0.00    +0.000 A 
BRANCH  14  17
ATOM     17  O   UNL     1       6.732   3.991  14.257  0.00  0.00    +0.000 OA
ATOM     18  C   UNL     1       6.140   3.617  13.017  0.00  0.00    +0.000 C 
ENDBRANCH  14  17
ENDBRANCH   1  11
BRANCH   1  19
ATOM     19  C   UNL     1       2.663   5.141  19.206  0.00  0.00    +0.000 C 
ATOM     20  O   UNL     1       3.197   4.848  20.261  0.00  0.00    +0.000 OA
BRANCH  19  22
ATOM     21  C   UNL     1       1.220   3.280  19.045  0.00  0.00    +0.000 C 
ATOM     22  O   UNL     1       1.462   4.661  18.775  0.00  0.00    +0.000 OA
ENDBRANCH  19  22
ENDBRANCH   1  19
TORSDOF 6
ENDMDL
MODEL 9
REMARK VINA RESULT:      -6.7      1.285      1.983
REMARK  Name = 
REMARK  9 active torsions:
REMARK  status: ('A' for Active; 'I' for Inactive)
REMARK    1  A    between atoms: C_1  and  O_2
REMARK    2  A    between atoms: O_2  and  C_3
REMARK    3  A    between atoms: C_3  and  C_5
REMARK    4  A    between atoms: C_5  and  C_15
REMARK    5  A    between atoms: C_6  and  C_7
REMARK    6  A    between atoms: C_10  and  O_11
REMARK    7  A    between atoms: O_11  and  C_12
REMARK    8  A    between atoms: C_18  and  O_19
REMARK    9  A    between atoms: O_19  and  C_20
REMARK                            x       y       z     vdW  Elec       q    Type
REMARK                         _______ _______ _______ _____ _____    ______ ____
ROOT
ATOM      1  C   UNL     1       2.364   6.109  19.392  0.00  0.00    +0.000 C 
ATOM      2  C   UNL     1       2.286   7.456  19.392  0.00  0.00    +0.000 C 
ENDROOT
BRANCH   2   3
ATOM      3  C   UNL     1       1.508   8.323  20.285  0.00  0.00    +0.000 A 
ATOM      4  C   UNL     1       1.649   8.212  21.670  0.00  0.00    +0.000 A 
ATOM      5  C   UNL     1       1.003   9.116  22.518  0.00  0.00    +0.000 A 
ATOM      6  C   UNL     1       0.226  10.148  21.992  0.00  0.00    +0.000 A 
ATOM      7  C   UNL     1       0.041  10.231  20.611  0.00  0.00    +0.000 A 
ATOM      8  C   UNL     1       0.681   9.320  19.760  0.00  0.00    +0.000 A 
BRANCH   6   9
ATOM      9  O   UNL     1      -0.331  10.998  22.909  0.00  0.00    +0.000 OA
ATOM     10  C   UNL     1      -0.749  12.256  22.389  0.00  0.00    +0.000 C 
ENDBRANCH   6   9
ENDBRANCH   2   3
BRANCH   1  11
ATOM     11  C   UNL     1       3.252   5.492  18.382  0.00  0.00    +0.000 A 
ATOM     12  C   UNL     1       4.282   6.243  17.805  0.00  0.00    +0.000 A 
ATOM     13  C   UNL     1       5.126   5.663  16.852  0.00  0.00    +0.000 A 
ATOM     14  C   UNL     1       4.964   4.328  16.478  0.00  0.00    +0.000 A 
ATOM     15  C   UNL     1       3.927   3.581  17.038  0.00  0.00    +0.000 A 
ATOM     16  C   UNL     1       3.072   4.162  17.983  0.00  0.00    +0.000 A 
BRANCH  14  17
ATOM     17  O   UNL     1       5.841   3.880  15.530  0.00  0.00    +0.000 OA
ATOM     18  C   UNL     1       6.957   4.726  15.268  0.00  0.00    +0.000 C 
ENDBRANCH  14  17
ENDBRANCH   1  11
BRANCH   1  19
ATOM     19  C   UNL     1       1.626   5.254  20.372  0.00  0.00    +0.000 C 
ATOM     20  O   UNL     1       0.430   5.019  20.352  0.00  0.00    +0.000 OA
BRANCH  19  22
ATOM     21  C   UNL     1       2.369   3.398  21.628  0.00  0.00    +0.000 C 
ATOM     22  O   UNL     1       2.501   4.783  21.305  0.00  0.00    +0.000 OA
ENDBRANCH  19  22
ENDBRANCH   1  19
TORSDOF 6
ENDMDL
