MODEL 1
REMARK VINA RESULT:     -10.1      0.000      0.000
REMARK  Name = 
REMARK  3 active torsions:
REMARK  status: ('A' for Active; 'I' for Inactive)
REMARK    1  A    between atoms: C_2  and  C_17
REMARK    2  A    between atoms: N_7  and  C_8
REMARK    3  A    between atoms: C_8  and  C_9
REMARK                            x       y       z     vdW  Elec       q    Type
REMARK                         _______ _______ _______ _____ _____    ______ ____
ROOT
ATOM      1  O   UNL     1       7.654   9.642  17.340  0.00  0.00    +0.000 OA
ATOM      2  C   UNL     1       8.472   9.374  18.221  0.00  0.00    +0.000 C 
ATOM      3  N   UNL     1       8.609   8.110  18.766  0.00  0.00    +0.000 N 
ATOM      4  C   UNL     1       7.814   7.012  18.402  0.00  0.00    +0.000 A 
ATOM      5  C   UNL     1       7.986   5.715  18.967  0.00  0.00    +0.000 A 
ATOM      6  C   UNL     1       7.031   4.918  18.352  0.00  0.00    +0.000 A 
ATOM      7  N   UNL     1       6.357   5.728  17.481  0.00  0.00    +0.000 N 
ATOM      8  N   UNL     1       6.827   6.997  17.492  0.00  0.00    +0.000 NA
ATOM      9  H   UNL     1       9.293   7.949  19.486  0.00  0.00    +0.000 HD
ENDROOT
BRANCH   2  10
ATOM     10  C   UNL     1       9.328  10.535  18.748  0.00  0.00    +0.000 A 
ATOM     11  C   UNL     1       9.237  10.654  20.140  0.00  0.00    +0.000 A 
ATOM     12  C   UNL     1      10.164  11.386  20.872  0.00  0.00    +0.000 A 
ATOM     13  C   UNL     1      10.455  12.600  20.240  0.00  0.00    +0.000 A 
ATOM     14  C   UNL     1      10.498  13.917  20.728  0.00  0.00    +0.000 A 
ATOM     15  C   UNL     1      10.752  14.771  19.671  0.00  0.00    +0.000 A 
ATOM     16  N   UNL     1      11.045  13.954  18.589  0.00  0.00    +0.000 N 
ATOM     17  C   UNL     1      10.544  12.652  18.844  0.00  0.00    +0.000 A 
ATOM     18  C   UNL     1      10.134  11.501  18.064  0.00  0.00    +0.000 A 
ATOM     19  C   UNL     1      11.784  14.319  17.399  0.00  0.00    +0.000 C 
ATOM     20  C   UNL     1      12.333  15.724  17.085  0.00  0.00    +0.000 C 
ATOM     21  C   UNL     1      12.160  16.903  18.018  0.00  0.00    +0.000 C 
ATOM     22  N   UNL     1      10.899  16.991  18.692  0.00  0.00    +0.000 N 
ATOM     23  C   UNL     1      10.628  16.205  19.782  0.00  0.00    +0.000 C 
ATOM     24  O   UNL     1      10.226  16.775  20.791  0.00  0.00    +0.000 OA
ATOM     25  H   UNL     1      10.665  17.938  18.969  0.00  0.00    +0.000 HD
ENDBRANCH   2  10
BRANCH   7  26
ATOM     26  C   UNL     1       5.367   5.288  16.494  0.00  0.00    +0.000 C 
BRANCH  26  27
ATOM     27  C   UNL     1       4.102   4.712  17.103  0.00  0.00    +0.000 A 
ATOM     28  C   UNL     1       3.856   3.331  17.041  0.00  0.00    +0.000 A 
ATOM     29  C   UNL     1       2.717   2.777  17.631  0.00  0.00    +0.000 A 
ATOM     30  C   UNL     1       1.822   3.600  18.301  0.00  0.00    +0.000 A 
ATOM     31  F   UNL     1       0.729   3.070  18.869  0.00  0.00    +0.000 F 
ATOM     32  C   UNL     1       2.051   4.969  18.401  0.00  0.00    +0.000 A 
ATOM     33  C   UNL     1       3.192   5.524  17.808  0.00  0.00    +0.000 A 
ENDBRANCH  26  27
ENDBRANCH   7  26
TORSDOF 3
ENDMDL
MODEL 2
REMARK VINA RESULT:      -9.6      7.106      9.501
REMARK  Name = 
REMARK  3 active torsions:
REMARK  status: ('A' for Active; 'I' for Inactive)
REMARK    1  A    between atoms: C_2  and  C_17
REMARK    2  A    between atoms: N_7  and  C_8
REMARK    3  A    between atoms: C_8  and  C_9
REMARK                            x       y       z     vdW  Elec       q    Type
REMARK                         _______ _______ _______ _____ _____    ______ ____
ROOT
ATOM      1  O   UNL     1       2.140   8.164  19.407  0.00  0.00    +0.000 OA
ATOM      2  C   UNL     1       1.551   7.967  20.470  0.00  0.00    +0.000 C 
ATOM      3  N   UNL     1       1.439   6.718  21.052  0.00  0.00    +0.000 N 
ATOM      4  C   UNL     1       1.952   5.542  20.483  0.00  0.00    +0.000 A 
ATOM      5  C   UNL     1       1.839   4.268  21.111  0.00  0.00    +0.000 A 
ATOM      6  C   UNL     1       2.467   3.378  20.252  0.00  0.00    +0.000 A 
ATOM      7  N   UNL     1       2.915   4.118  19.194  0.00  0.00    +0.000 N 
ATOM      8  N   UNL     1       2.621   5.432  19.324  0.00  0.00    +0.000 NA
ATOM      9  H   UNL     1       0.943   6.615  21.922  0.00  0.00    +0.000 HD
ENDROOT
BRANCH   2  10
ATOM     10  C   UNL     1       0.878   9.183  21.124  0.00  0.00    +0.000 A 
ATOM     11  C   UNL     1       0.164   8.823  22.274  0.00  0.00    +0.000 A 
ATOM     12  C   UNL     1      -0.232   9.767  23.212  0.00  0.00    +0.000 A 
ATOM     13  C   UNL     1      -0.746  10.908  22.588  0.00  0.00    +0.000 A 
ATOM     14  C   UNL     1      -1.928  11.637  22.806  0.00  0.00    +0.000 A 
ATOM     15  C   UNL     1      -2.011  12.639  21.857  0.00  0.00    +0.000 A 
ATOM     16  N   UNL     1      -0.794  12.627  21.191  0.00  0.00    +0.000 N 
ATOM     17  C   UNL     1      -0.161  11.377  21.405  0.00  0.00    +0.000 A 
ATOM     18  C   UNL     1       0.832  10.560  20.736  0.00  0.00    +0.000 A 
ATOM     19  C   UNL     1      -0.208  13.712  20.434  0.00  0.00    +0.000 C 
ATOM     20  C   UNL     1      -0.870  15.079  20.174  0.00  0.00    +0.000 C 
ATOM     21  C   UNL     1      -2.240  15.444  20.703  0.00  0.00    +0.000 C 
ATOM     22  N   UNL     1      -3.218  14.398  20.692  0.00  0.00    +0.000 N 
ATOM     23  C   UNL     1      -3.209  13.418  21.650  0.00  0.00    +0.000 C 
ATOM     24  O   UNL     1      -4.262  13.214  22.245  0.00  0.00    +0.000 OA
ATOM     25  H   UNL     1      -4.169  14.747  20.662  0.00  0.00    +0.000 HD
ENDBRANCH   2  10
BRANCH   7  26
ATOM     26  C   UNL     1       3.781   3.632  18.115  0.00  0.00    +0.000 C 
BRANCH  26  27
ATOM     27  C   UNL     1       4.929   4.565  17.777  0.00  0.00    +0.000 A 
ATOM     28  C   UNL     1       4.914   5.296  16.578  0.00  0.00    +0.000 A 
ATOM     29  C   UNL     1       5.943   6.190  16.269  0.00  0.00    +0.000 A 
ATOM     30  C   UNL     1       6.988   6.369  17.165  0.00  0.00    +0.000 A 
ATOM     31  F   UNL     1       7.975   7.227  16.870  0.00  0.00    +0.000 F 
ATOM     32  C   UNL     1       7.019   5.677  18.372  0.00  0.00    +0.000 A 
ATOM     33  C   UNL     1       5.988   4.781  18.681  0.00  0.00    +0.000 A 
ENDBRANCH  26  27
ENDBRANCH   7  26
TORSDOF 3
ENDMDL
MODEL 3
REMARK VINA RESULT:      -9.3      7.598     10.615
REMARK  Name = 
REMARK  3 active torsions:
REMARK  status: ('A' for Active; 'I' for Inactive)
REMARK    1  A    between atoms: C_2  and  C_17
REMARK    2  A    between atoms: N_7  and  C_8
REMARK    3  A    between atoms: C_8  and  C_9
REMARK                            x       y       z     vdW  Elec       q    Type
REMARK                         _______ _______ _______ _____ _____    ______ ____
ROOT
ATOM      1  O   UNL     1       1.039   9.526  18.980  0.00  0.00    +0.000 OA
ATOM      2  C   UNL     1       1.250   8.637  19.805  0.00  0.00    +0.000 C 
ATOM      3  N   UNL     1       0.781   8.684  21.105  0.00  0.00    +0.000 N 
ATOM      4  C   UNL     1       0.048   9.758  21.633  0.00  0.00    +0.000 A 
ATOM      5  C   UNL     1      -0.439   9.776  22.972  0.00  0.00    +0.000 A 
ATOM      6  C   UNL     1      -1.108  10.984  23.103  0.00  0.00    +0.000 A 
ATOM      7  N   UNL     1      -1.006  11.612  21.893  0.00  0.00    +0.000 N 
ATOM      8  N   UNL     1      -0.318  10.878  20.989  0.00  0.00    +0.000 NA
ATOM      9  H   UNL     1       0.987   7.929  21.738  0.00  0.00    +0.000 HD
ENDROOT
BRANCH   2  10
ATOM     10  C   UNL     1       2.122   7.458  19.345  0.00  0.00    +0.000 A 
ATOM     11  C   UNL     1       2.404   6.581  20.399  0.00  0.00    +0.000 A 
ATOM     12  C   UNL     1       2.870   5.293  20.171  0.00  0.00    +0.000 A 
ATOM     13  C   UNL     1       3.855   5.285  19.177  0.00  0.00    +0.000 A 
ATOM     14  C   UNL     1       5.130   4.697  19.136  0.00  0.00    +0.000 A 
ATOM     15  C   UNL     1       5.745   5.060  17.951  0.00  0.00    +0.000 A 
ATOM     16  N   UNL     1       4.772   5.708  17.205  0.00  0.00    +0.000 N 
ATOM     17  C   UNL     1       3.733   6.134  18.071  0.00  0.00    +0.000 A 
ATOM     18  C   UNL     1       2.702   7.153  18.072  0.00  0.00    +0.000 A 
ATOM     19  C   UNL     1       4.757   5.893  15.771  0.00  0.00    +0.000 C 
ATOM     20  C   UNL     1       5.871   5.452  14.802  0.00  0.00    +0.000 C 
ATOM     21  C   UNL     1       7.132   4.752  15.261  0.00  0.00    +0.000 C 
ATOM     22  N   UNL     1       7.689   5.208  16.499  0.00  0.00    +0.000 N 
ATOM     23  C   UNL     1       7.147   4.823  17.698  0.00  0.00    +0.000 C 
ATOM     24  O   UNL     1       7.915   4.346  18.527  0.00  0.00    +0.000 OA
ATOM     25  H   UNL     1       8.684   5.027  16.575  0.00  0.00    +0.000 HD
ENDBRANCH   2  10
BRANCH   7  26
ATOM     26  C   UNL     1      -1.699  12.846  21.508  0.00  0.00    +0.000 C 
BRANCH  26  27
ATOM     27  C   UNL     1      -3.099  12.623  20.966  0.00  0.00    +0.000 A 
ATOM     28  C   UNL     1      -4.217  12.859  21.783  0.00  0.00    +0.000 A 
ATOM     29  C   UNL     1      -5.514  12.699  21.289  0.00  0.00    +0.000 A 
ATOM     30  C   UNL     1      -5.703  12.315  19.969  0.00  0.00    +0.000 A 
ATOM     31  F   UNL     1      -6.947  12.162  19.494  0.00  0.00    +0.000 F 
ATOM     32  C   UNL     1      -4.616  12.098  19.128  0.00  0.00    +0.000 A 
ATOM     33  C   UNL     1      -3.316  12.258  19.623  0.00  0.00    +0.000 A 
ENDBRANCH  26  27
ENDBRANCH   7  26
TORSDOF 3
ENDMDL
MODEL 4
REMARK VINA RESULT:      -9.3      2.310      3.051
REMARK  Name = 
REMARK  3 active torsions:
REMARK  status: ('A' for Active; 'I' for Inactive)
REMARK    1  A    between atoms: C_2  and  C_17
REMARK    2  A    between atoms: N_7  and  C_8
REMARK    3  A    between atoms: C_8  and  C_9
REMARK                            x       y       z     vdW  Elec       q    Type
REMARK                         _______ _______ _______ _____ _____    ______ ____
ROOT
ATOM      1  O   UNL     1       7.556   9.592  17.262  0.00  0.00    +0.000 OA
ATOM      2  C   UNL     1       8.395   9.356  18.131  0.00  0.00    +0.000 C 
ATOM      3  N   UNL     1       8.570   8.106  18.695  0.00  0.00    +0.000 N 
ATOM      4  C   UNL     1       7.792   6.985  18.365  0.00  0.00    +0.000 A 
ATOM      5  C   UNL     1       8.002   5.702  18.948  0.00  0.00    +0.000 A 
ATOM      6  C   UNL     1       7.052   4.874  18.365  0.00  0.00    +0.000 A 
ATOM      7  N   UNL     1       6.346   5.655  17.493  0.00  0.00    +0.000 N 
ATOM      8  N   UNL     1       6.788   6.933  17.473  0.00  0.00    +0.000 NA
ATOM      9  H   UNL     1       9.270   7.971  19.404  0.00  0.00    +0.000 HD
ENDROOT
BRANCH   2  10
ATOM     10  C   UNL     1       9.236  10.544  18.622  0.00  0.00    +0.000 A 
ATOM     11  C   UNL     1       9.315  10.579  20.020  0.00  0.00    +0.000 A 
ATOM     12  C   UNL     1      10.279  11.333  20.677  0.00  0.00    +0.000 A 
ATOM     13  C   UNL     1      10.410  12.597  20.093  0.00  0.00    +0.000 A 
ATOM     14  C   UNL     1      10.431  13.885  20.655  0.00  0.00    +0.000 A 
ATOM     15  C   UNL     1      10.496  14.813  19.631  0.00  0.00    +0.000 A 
ATOM     16  N   UNL     1      10.700  14.079  18.472  0.00  0.00    +0.000 N 
ATOM     17  C   UNL     1      10.319  12.733  18.703  0.00  0.00    +0.000 A 
ATOM     18  C   UNL     1       9.887  11.601  17.908  0.00  0.00    +0.000 A 
ATOM     19  C   UNL     1      11.258  14.561  17.227  0.00  0.00    +0.000 C 
ATOM     20  C   UNL     1      11.673  16.016  16.938  0.00  0.00    +0.000 C 
ATOM     21  C   UNL     1      11.545  17.127  17.958  0.00  0.00    +0.000 C 
ATOM     22  N   UNL     1      10.376  17.088  18.786  0.00  0.00    +0.000 N 
ATOM     23  C   UNL     1      10.296  16.226  19.848  0.00  0.00    +0.000 C 
ATOM     24  O   UNL     1       9.990  16.709  20.933  0.00  0.00    +0.000 OA
ATOM     25  H   UNL     1      10.120  18.000  19.149  0.00  0.00    +0.000 HD
ENDBRANCH   2  10
BRANCH   7  26
ATOM     26  C   UNL     1       5.347   5.177  16.532  0.00  0.00    +0.000 C 
BRANCH  26  27
ATOM     27  C   UNL     1       5.925   4.780  15.187  0.00  0.00    +0.000 A 
ATOM     28  C   UNL     1       5.194   3.948  14.323  0.00  0.00    +0.000 A 
ATOM     29  C   UNL     1       5.693   3.605  13.064  0.00  0.00    +0.000 A 
ATOM     30  C   UNL     1       6.922   4.104  12.653  0.00  0.00    +0.000 A 
ATOM     31  F   UNL     1       7.401   3.775  11.444  0.00  0.00    +0.000 F 
ATOM     32  C   UNL     1       7.658   4.950  13.476  0.00  0.00    +0.000 A 
ATOM     33  C   UNL     1       7.159   5.293  14.738  0.00  0.00    +0.000 A 
ENDBRANCH  26  27
ENDBRANCH   7  26
TORSDOF 3
ENDMDL
MODEL 5
REMARK VINA RESULT:      -9.1      7.513     10.432
REMARK  Name = 
REMARK  3 active torsions:
REMARK  status: ('A' for Active; 'I' for Inactive)
REMARK    1  A    between atoms: C_2  and  C_17
REMARK    2  A    between atoms: N_7  and  C_8
REMARK    3  A    between atoms: C_8  and  C_9
REMARK                            x       y       z     vdW  Elec       q    Type
REMARK                         _______ _______ _______ _____ _____    ______ ____
ROOT
ATOM      1  O   UNL     1       0.940   9.530  18.891  0.00  0.00    +0.000 OA
ATOM      2  C   UNL     1       1.201   8.693  19.755  0.00  0.00    +0.000 C 
ATOM      3  N   UNL     1       0.774   8.800  21.066  0.00  0.00    +0.000 N 
ATOM      4  C   UNL     1       0.029   9.883  21.559  0.00  0.00    +0.000 A 
ATOM      5  C   UNL     1      -0.414   9.964  22.910  0.00  0.00    +0.000 A 
ATOM      6  C   UNL     1      -1.111  11.160  22.997  0.00  0.00    +0.000 A 
ATOM      7  N   UNL     1      -1.065  11.723  21.753  0.00  0.00    +0.000 N 
ATOM      8  N   UNL     1      -0.387  10.957  20.867  0.00  0.00    +0.000 NA
ATOM      9  H   UNL     1       1.020   8.087  21.732  0.00  0.00    +0.000 HD
ENDROOT
BRANCH   2  10
ATOM     10  C   UNL     1       2.089   7.513  19.331  0.00  0.00    +0.000 A 
ATOM     11  C   UNL     1       2.376   6.668  20.410  0.00  0.00    +0.000 A 
ATOM     12  C   UNL     1       2.857   5.379  20.219  0.00  0.00    +0.000 A 
ATOM     13  C   UNL     1       3.847   5.356  19.231  0.00  0.00    +0.000 A 
ATOM     14  C   UNL     1       5.130   4.782  19.212  0.00  0.00    +0.000 A 
ATOM     15  C   UNL     1       5.747   5.121  18.021  0.00  0.00    +0.000 A 
ATOM     16  N   UNL     1       4.771   5.737  17.253  0.00  0.00    +0.000 N 
ATOM     17  C   UNL     1       3.723   6.174  18.102  0.00  0.00    +0.000 A 
ATOM     18  C   UNL     1       2.680   7.181  18.070  0.00  0.00    +0.000 A 
ATOM     19  C   UNL     1       4.762   5.884  15.814  0.00  0.00    +0.000 C 
ATOM     20  C   UNL     1       5.886   5.430  14.863  0.00  0.00    +0.000 C 
ATOM     21  C   UNL     1       7.152   4.757  15.347  0.00  0.00    +0.000 C 
ATOM     22  N   UNL     1       7.697   5.253  16.576  0.00  0.00    +0.000 N 
ATOM     23  C   UNL     1       7.153   4.893  17.781  0.00  0.00    +0.000 C 
ATOM     24  O   UNL     1       7.922   4.448  18.627  0.00  0.00    +0.000 OA
ATOM     25  H   UNL     1       8.694   5.085  16.661  0.00  0.00    +0.000 HD
ENDBRANCH   2  10
BRANCH   7  26
ATOM     26  C   UNL     1      -1.803  12.915  21.324  0.00  0.00    +0.000 C 
BRANCH  26  27
ATOM     27  C   UNL     1      -2.949  12.623  20.374  0.00  0.00    +0.000 A 
ATOM     28  C   UNL     1      -2.709  11.950  19.165  0.00  0.00    +0.000 A 
ATOM     29  C   UNL     1      -3.758  11.637  18.296  0.00  0.00    +0.000 A 
ATOM     30  C   UNL     1      -5.058  11.982  18.638  0.00  0.00    +0.000 A 
ATOM     31  F   UNL     1      -6.065  11.681  17.806  0.00  0.00    +0.000 F 
ATOM     32  C   UNL     1      -5.331  12.628  19.840  0.00  0.00    +0.000 A 
ATOM     33  C   UNL     1      -4.280  12.942  20.709  0.00  0.00    +0.000 A 
ENDBRANCH  26  27
ENDBRANCH   7  26
TORSDOF 3
ENDMDL
MODEL 6
REMARK VINA RESULT:      -9.1      7.683     11.014
REMARK  Name = 
REMARK  3 active torsions:
REMARK  status: ('A' for Active; 'I' for Inactive)
REMARK    1  A    between atoms: C_2  and  C_17
REMARK    2  A    between atoms: N_7  and  C_8
REMARK    3  A    between atoms: C_8  and  C_9
REMARK                            x       y       z     vdW  Elec       q    Type
REMARK                         _______ _______ _______ _____ _____    ______ ____
ROOT
ATOM      1  O   UNL     1       1.048   9.653  18.948  0.00  0.00    +0.000 OA
ATOM      2  C   UNL     1       1.224   8.760  19.776  0.00  0.00    +0.000 C 
ATOM      3  N   UNL     1       0.716   8.809  21.061  0.00  0.00    +0.000 N 
ATOM      4  C   UNL     1      -0.021   9.889  21.569  0.00  0.00    +0.000 A 
ATOM      5  C   UNL     1      -0.548   9.910  22.893  0.00  0.00    +0.000 A 
ATOM      6  C   UNL     1      -1.208  11.125  23.007  0.00  0.00    +0.000 A 
ATOM      7  N   UNL     1      -1.062  11.755  21.803  0.00  0.00    +0.000 N 
ATOM      8  N   UNL     1      -0.354  11.016  20.918  0.00  0.00    +0.000 NA
ATOM      9  H   UNL     1       0.894   8.050  21.698  0.00  0.00    +0.000 HD
ENDROOT
BRANCH   2  10
ATOM     10  C   UNL     1       2.096   7.573  19.339  0.00  0.00    +0.000 A 
ATOM     11  C   UNL     1       2.374   6.714  20.409  0.00  0.00    +0.000 A 
ATOM     12  C   UNL     1       2.840   5.421  20.206  0.00  0.00    +0.000 A 
ATOM     13  C   UNL     1       3.827   5.395  19.215  0.00  0.00    +0.000 A 
ATOM     14  C   UNL     1       5.103   4.805  19.188  0.00  0.00    +0.000 A 
ATOM     15  C   UNL     1       5.722   5.147  18.000  0.00  0.00    +0.000 A 
ATOM     16  N   UNL     1       4.751   5.783  17.239  0.00  0.00    +0.000 N 
ATOM     17  C   UNL     1       3.710   6.225  18.094  0.00  0.00    +0.000 A 
ATOM     18  C   UNL     1       2.680   7.245  18.074  0.00  0.00    +0.000 A 
ATOM     19  C   UNL     1       4.741   5.943  15.802  0.00  0.00    +0.000 C 
ATOM     20  C   UNL     1       5.858   5.484  14.844  0.00  0.00    +0.000 C 
ATOM     21  C   UNL     1       7.117   4.791  15.319  0.00  0.00    +0.000 C 
ATOM     22  N   UNL     1       7.670   5.268  16.551  0.00  0.00    +0.000 N 
ATOM     23  C   UNL     1       7.124   4.905  17.754  0.00  0.00    +0.000 C 
ATOM     24  O   UNL     1       7.889   4.442  18.594  0.00  0.00    +0.000 OA
ATOM     25  H   UNL     1       8.665   5.088  16.633  0.00  0.00    +0.000 HD
ENDBRANCH   2  10
BRANCH   7  26
ATOM     26  C   UNL     1      -1.728  12.997  21.400  0.00  0.00    +0.000 C 
BRANCH  26  27
ATOM     27  C   UNL     1      -3.018  13.277  22.150  0.00  0.00    +0.000 A 
ATOM     28  C   UNL     1      -3.017  14.146  23.253  0.00  0.00    +0.000 A 
ATOM     29  C   UNL     1      -4.202  14.446  23.931  0.00  0.00    +0.000 A 
ATOM     30  C   UNL     1      -5.399  13.891  23.500  0.00  0.00    +0.000 A 
ATOM     31  F   UNL     1      -6.536  14.179  24.149  0.00  0.00    +0.000 F 
ATOM     32  C   UNL     1      -5.435  13.045  22.396  0.00  0.00    +0.000 A 
ATOM     33  C   UNL     1      -4.248  12.743  21.717  0.00  0.00    +0.000 A 
ENDBRANCH  26  27
ENDBRANCH   7  26
TORSDOF 3
ENDMDL
MODEL 7
REMARK VINA RESULT:      -9.1      7.841     11.108
REMARK  Name = 
REMARK  3 active torsions:
REMARK  status: ('A' for Active; 'I' for Inactive)
REMARK    1  A    between atoms: C_2  and  C_17
REMARK    2  A    between atoms: N_7  and  C_8
REMARK    3  A    between atoms: C_8  and  C_9
REMARK                            x       y       z     vdW  Elec       q    Type
REMARK                         _______ _______ _______ _____ _____    ______ ____
ROOT
ATOM      1  O   UNL     1       1.169   9.421  19.029  0.00  0.00    +0.000 OA
ATOM      2  C   UNL     1       1.335   8.497  19.826  0.00  0.00    +0.000 C 
ATOM      3  N   UNL     1       0.819   8.503  21.108  0.00  0.00    +0.000 N 
ATOM      4  C   UNL     1       0.083   9.569  21.650  0.00  0.00    +0.000 A 
ATOM      5  C   UNL     1      -0.454   9.544  22.969  0.00  0.00    +0.000 A 
ATOM      6  C   UNL     1      -1.109  10.758  23.122  0.00  0.00    +0.000 A 
ATOM      7  N   UNL     1      -0.951  11.430  21.942  0.00  0.00    +0.000 N 
ATOM      8  N   UNL     1      -0.240  10.719  21.036  0.00  0.00    +0.000 NA
ATOM      9  H   UNL     1       0.988   7.721  21.719  0.00  0.00    +0.000 HD
ENDROOT
BRANCH   2  10
ATOM     10  C   UNL     1       2.205   7.322  19.353  0.00  0.00    +0.000 A 
ATOM     11  C   UNL     1       2.522   6.457  20.407  0.00  0.00    +0.000 A 
ATOM     12  C   UNL     1       2.992   5.170  20.178  0.00  0.00    +0.000 A 
ATOM     13  C   UNL     1       3.951   5.162  19.160  0.00  0.00    +0.000 A 
ATOM     14  C   UNL     1       5.231   4.584  19.090  0.00  0.00    +0.000 A 
ATOM     15  C   UNL     1       5.812   4.943  17.888  0.00  0.00    +0.000 A 
ATOM     16  N   UNL     1       4.814   5.576  17.161  0.00  0.00    +0.000 N 
ATOM     17  C   UNL     1       3.795   6.001  18.050  0.00  0.00    +0.000 A 
ATOM     18  C   UNL     1       2.755   7.011  18.069  0.00  0.00    +0.000 A 
ATOM     19  C   UNL     1       4.761   5.749  15.726  0.00  0.00    +0.000 C 
ATOM     20  C   UNL     1       5.854   5.309  14.733  0.00  0.00    +0.000 C 
ATOM     21  C   UNL     1       7.132   4.623  15.165  0.00  0.00    +0.000 C 
ATOM     22  N   UNL     1       7.717   5.095  16.385  0.00  0.00    +0.000 N 
ATOM     23  C   UNL     1       7.209   4.715  17.600  0.00  0.00    +0.000 C 
ATOM     24  O   UNL     1       8.002   4.252  18.413  0.00  0.00    +0.000 OA
ATOM     25  H   UNL     1       8.715   4.923  16.436  0.00  0.00    +0.000 HD
ENDBRANCH   2  10
BRANCH   7  26
ATOM     26  C   UNL     1      -1.609  12.689  21.579  0.00  0.00    +0.000 C 
BRANCH  26  27
ATOM     27  C   UNL     1      -1.979  13.557  22.767  0.00  0.00    +0.000 A 
ATOM     28  C   UNL     1      -0.998  14.330  23.408  0.00  0.00    +0.000 A 
ATOM     29  C   UNL     1      -1.328  15.166  24.479  0.00  0.00    +0.000 A 
ATOM     30  C   UNL     1      -2.646  15.246  24.906  0.00  0.00    +0.000 A 
ATOM     31  F   UNL     1      -2.964  16.048  25.932  0.00  0.00    +0.000 F 
ATOM     32  C   UNL     1      -3.645  14.510  24.276  0.00  0.00    +0.000 A 
ATOM     33  C   UNL     1      -3.314  13.672  23.204  0.00  0.00    +0.000 A 
ENDBRANCH  26  27
ENDBRANCH   7  26
TORSDOF 3
ENDMDL
MODEL 8
REMARK VINA RESULT:      -9.0      7.474     10.147
REMARK  Name = 
REMARK  3 active torsions:
REMARK  status: ('A' for Active; 'I' for Inactive)
REMARK    1  A    between atoms: C_2  and  C_17
REMARK    2  A    between atoms: N_7  and  C_8
REMARK    3  A    between atoms: C_8  and  C_9
REMARK                            x       y       z     vdW  Elec       q    Type
REMARK                         _______ _______ _______ _____ _____    ______ ____
ROOT
ATOM      1  O   UNL     1       2.997   8.670  18.160  0.00  0.00    +0.000 OA
ATOM      2  C   UNL     1       1.963   8.532  18.814  0.00  0.00    +0.000 C 
ATOM      3  N   UNL     1       1.681   7.395  19.549  0.00  0.00    +0.000 N 
ATOM      4  C   UNL     1       2.518   6.270  19.602  0.00  0.00    +0.000 A 
ATOM      5  C   UNL     1       2.213   5.117  20.381  0.00  0.00    +0.000 A 
ATOM      6  C   UNL     1       3.273   4.245  20.177  0.00  0.00    +0.000 A 
ATOM      7  N   UNL     1       4.135   4.881  19.328  0.00  0.00    +0.000 N 
ATOM      8  N   UNL     1       3.697   6.113  18.978  0.00  0.00    +0.000 NA
ATOM      9  H   UNL     1       0.818   7.335  20.064  0.00  0.00    +0.000 HD
ENDROOT
BRANCH   2  10
ATOM     10  C   UNL     1       0.941   9.677  18.746  0.00  0.00    +0.000 A 
ATOM     11  C   UNL     1       1.159  10.625  19.753  0.00  0.00    +0.000 A 
ATOM     12  C   UNL     1       0.601  11.895  19.692  0.00  0.00    +0.000 A 
ATOM     13  C   UNL     1      -0.734  11.836  19.279  0.00  0.00    +0.000 A 
ATOM     14  C   UNL     1      -1.898  12.422  19.806  0.00  0.00    +0.000 A 
ATOM     15  C   UNL     1      -2.985  11.978  19.075  0.00  0.00    +0.000 A 
ATOM     16  N   UNL     1      -2.456  11.279  18.001  0.00  0.00    +0.000 N 
ATOM     17  C   UNL     1      -1.120  10.912  18.301  0.00  0.00    +0.000 A 
ATOM     18  C   UNL     1      -0.177   9.894  17.880  0.00  0.00    +0.000 A 
ATOM     19  C   UNL     1      -3.110  10.995  16.742  0.00  0.00    +0.000 C 
ATOM     20  C   UNL     1      -4.561  11.370  16.386  0.00  0.00    +0.000 C 
ATOM     21  C   UNL     1      -5.481  12.102  17.340  0.00  0.00    +0.000 C 
ATOM     22  N   UNL     1      -5.377  11.733  18.720  0.00  0.00    +0.000 N 
ATOM     23  C   UNL     1      -4.349  12.199  19.496  0.00  0.00    +0.000 C 
ATOM     24  O   UNL     1      -4.653  12.733  20.558  0.00  0.00    +0.000 OA
ATOM     25  H   UNL     1      -6.226  11.920  19.243  0.00  0.00    +0.000 HD
ENDBRANCH   2  10
BRANCH   7  26
ATOM     26  C   UNL     1       5.474   4.412  18.958  0.00  0.00    +0.000 C 
BRANCH  26  27
ATOM     27  C   UNL     1       5.755   4.464  17.467  0.00  0.00    +0.000 A 
ATOM     28  C   UNL     1       7.023   4.852  17.003  0.00  0.00    +0.000 A 
ATOM     29  C   UNL     1       7.313   4.867  15.636  0.00  0.00    +0.000 A 
ATOM     30  C   UNL     1       6.341   4.479  14.724  0.00  0.00    +0.000 A 
ATOM     31  F   UNL     1       6.619   4.492  13.412  0.00  0.00    +0.000 F 
ATOM     32  C   UNL     1       5.084   4.066  15.154  0.00  0.00    +0.000 A 
ATOM     33  C   UNL     1       4.793   4.052  16.524  0.00  0.00    +0.000 A 
ENDBRANCH  26  27
ENDBRANCH   7  26
TORSDOF 3
ENDMDL
MODEL 9
REMARK VINA RESULT:      -9.0      8.898     11.652
REMARK  Name = 
REMARK  3 active torsions:
REMARK  status: ('A' for Active; 'I' for Inactive)
REMARK    1  A    between atoms: C_2  and  C_17
REMARK    2  A    between atoms: N_7  and  C_8
REMARK    3  A    between atoms: C_8  and  C_9
REMARK                            x       y       z     vdW  Elec       q    Type
REMARK                         _______ _______ _______ _____ _____    ______ ____
ROOT
ATOM      1  O   UNL     1       0.102   9.371  21.857  0.00  0.00    +0.000 OA
ATOM      2  C   UNL     1      -0.282  10.186  21.019  0.00  0.00    +0.000 C 
ATOM      3  N   UNL     1       0.166  10.193  19.710  0.00  0.00    +0.000 N 
ATOM      4  C   UNL     1       1.125   9.300  19.208  0.00  0.00    +0.000 A 
ATOM      5  C   UNL     1       1.558   9.316  17.851  0.00  0.00    +0.000 A 
ATOM      6  C   UNL     1       2.489   8.293  17.750  0.00  0.00    +0.000 A 
ATOM      7  N   UNL     1       2.572   7.726  18.992  0.00  0.00    +0.000 N 
ATOM      8  N   UNL     1       1.744   8.318  19.883  0.00  0.00    +0.000 NA
ATOM      9  H   UNL     1      -0.181  10.885  19.067  0.00  0.00    +0.000 HD
ENDROOT
BRANCH   2  10
ATOM     10  C   UNL     1      -1.268  11.262  21.499  0.00  0.00    +0.000 A 
ATOM     11  C   UNL     1      -1.137  11.508  22.871  0.00  0.00    +0.000 A 
ATOM     12  C   UNL     1      -1.660  12.652  23.460  0.00  0.00    +0.000 A 
ATOM     13  C   UNL     1      -2.947  12.919  22.979  0.00  0.00    +0.000 A 
ATOM     14  C   UNL     1      -4.147  13.216  23.647  0.00  0.00    +0.000 A 
ATOM     15  C   UNL     1      -5.160  13.312  22.711  0.00  0.00    +0.000 A 
ATOM     16  N   UNL     1      -4.536  13.257  21.474  0.00  0.00    +0.000 N 
ATOM     17  C   UNL     1      -3.246  12.690  21.631  0.00  0.00    +0.000 A 
ATOM     18  C   UNL     1      -2.286  11.989  20.802  0.00  0.00    +0.000 A 
ATOM     19  C   UNL     1      -5.061  13.737  20.214  0.00  0.00    +0.000 C 
ATOM     20  C   UNL     1      -6.460  14.349  20.004  0.00  0.00    +0.000 C 
ATOM     21  C   UNL     1      -7.459  14.524  21.128  0.00  0.00    +0.000 C 
ATOM     22  N   UNL     1      -7.507  13.469  22.096  0.00  0.00    +0.000 N 
ATOM     23  C   UNL     1      -6.556  13.373  23.078  0.00  0.00    +0.000 C 
ATOM     24  O   UNL     1      -6.958  13.278  24.233  0.00  0.00    +0.000 OA
ATOM     25  H   UNL     1      -8.401  13.409  22.571  0.00  0.00    +0.000 HD
ENDBRANCH   2  10
BRANCH   7  26
ATOM     26  C   UNL     1       3.308   6.503  19.327  0.00  0.00    +0.000 C 
BRANCH  26  27
ATOM     27  C   UNL     1       2.507   5.228  19.135  0.00  0.00    +0.000 A 
ATOM     28  C   UNL     1       1.752   4.703  20.196  0.00  0.00    +0.000 A 
ATOM     29  C   UNL     1       0.977   3.553  20.025  0.00  0.00    +0.000 A 
ATOM     30  C   UNL     1       0.940   2.927  18.787  0.00  0.00    +0.000 A 
ATOM     31  F   UNL     1       0.196   1.824  18.622  0.00  0.00    +0.000 F 
ATOM     32  C   UNL     1       1.658   3.438  17.710  0.00  0.00    +0.000 A 
ATOM     33  C   UNL     1       2.435   4.589  17.881  0.00  0.00    +0.000 A 
ENDBRANCH  26  27
ENDBRANCH   7  26
TORSDOF 3
ENDMDL
