MODEL 1
REMARK VINA RESULT:      -7.9      0.000      0.000
REMARK  Name = 
REMARK  3 active torsions:
REMARK  status: ('A' for Active; 'I' for Inactive)
REMARK    1  A    between atoms: C_1  and  C_2
REMARK    2  A    between atoms: C_12  and  C_13
REMARK    3  A    between atoms: C_15  and  C_16
REMARK                            x       y       z     vdW  Elec       q    Type
REMARK                         _______ _______ _______ _____ _____    ______ ____
ROOT
ATOM      1  C   UNL     1       3.519   7.181  18.027  0.00  0.00    +0.000 C 
ATOM      2  C   UNL     1       3.751   5.753  17.680  0.00  0.00    +0.000 A 
ATOM      3  C   UNL     1       4.805   5.205  16.957  0.00  0.00    +0.000 A 
ATOM      4  N   UNL     1       4.555   3.857  16.842  0.00  0.00    +0.000 N 
ATOM      5  C   UNL     1       3.414   3.500  17.516  0.00  0.00    +0.000 A 
ATOM      6  C   UNL     1       2.796   2.251  17.699  0.00  0.00    +0.000 A 
ATOM      7  C   UNL     1       1.616   2.206  18.448  0.00  0.00    +0.000 A 
ATOM      8  C   UNL     1       1.069   3.362  18.993  0.00  0.00    +0.000 A 
ATOM      9  C   UNL     1       1.692   4.600  18.801  0.00  0.00    +0.000 A 
ATOM     10  C   UNL     1       2.888   4.672  18.054  0.00  0.00    +0.000 A 
ATOM     11  C   UNL     1       5.417   2.960  16.096  0.00  0.00    +0.000 C 
ATOM     12  C   UNL     1       6.274   3.738  15.103  0.00  0.00    +0.000 C 
ATOM     13  C   UNL     1       5.529   4.168  13.842  0.00  0.00    +0.000 C 
ATOM     14  O   UNL     1       6.893   4.840  15.769  0.00  0.00    +0.000 OA
ATOM     15  C   UNL     1       5.989   5.842  16.273  0.00  0.00    +0.000 C 
ENDROOT
BRANCH  15  16
ATOM     16  C   UNL     1       6.823   6.741  17.170  0.00  0.00    +0.000 A 
ATOM     17  C   UNL     1       6.912   8.119  16.899  0.00  0.00    +0.000 A 
ATOM     18  C   UNL     1       7.736   8.942  17.666  0.00  0.00    +0.000 A 
ATOM     19  C   UNL     1       8.478   8.391  18.704  0.00  0.00    +0.000 A 
ATOM     20  F   UNL     1       9.298   9.176  19.415  0.00  0.00    +0.000 F 
ATOM     21  C   UNL     1       8.390   7.038  19.007  0.00  0.00    +0.000 A 
ATOM     22  C   UNL     1       7.559   6.214  18.245  0.00  0.00    +0.000 A 
ENDBRANCH  15  16
TORSDOF 1
ENDMDL
MODEL 2
REMARK VINA RESULT:      -7.5      0.152      1.042
REMARK  Name = 
REMARK  3 active torsions:
REMARK  status: ('A' for Active; 'I' for Inactive)
REMARK    1  A    between atoms: C_1  and  C_2
REMARK    2  A    between atoms: C_12  and  C_13
REMARK    3  A    between atoms: C_15  and  C_16
REMARK                            x       y       z     vdW  Elec       q    Type
REMARK                         _______ _______ _______ _____ _____    ______ ____
ROOT
ATOM      1  C   UNL     1       3.698   7.241  17.956  0.00  0.00    +0.000 C 
ATOM      2  C   UNL     1       3.866   5.801  17.622  0.00  0.00    +0.000 A 
ATOM      3  C   UNL     1       4.883   5.203  16.886  0.00  0.00    +0.000 A 
ATOM      4  N   UNL     1       4.576   3.865  16.791  0.00  0.00    +0.000 N 
ATOM      5  C   UNL     1       3.435   3.562  17.491  0.00  0.00    +0.000 A 
ATOM      6  C   UNL     1       2.770   2.341  17.699  0.00  0.00    +0.000 A 
ATOM      7  C   UNL     1       1.604   2.352  18.470  0.00  0.00    +0.000 A 
ATOM      8  C   UNL     1       1.114   3.536  19.011  0.00  0.00    +0.000 A 
ATOM      9  C   UNL     1       1.783   4.745  18.793  0.00  0.00    +0.000 A 
ATOM     10  C   UNL     1       2.966   4.760  18.024  0.00  0.00    +0.000 A 
ATOM     11  C   UNL     1       5.387   2.925  16.040  0.00  0.00    +0.000 C 
ATOM     12  C   UNL     1       6.256   3.657  15.022  0.00  0.00    +0.000 C 
ATOM     13  C   UNL     1       5.505   4.104  13.771  0.00  0.00    +0.000 C 
ATOM     14  O   UNL     1       6.931   4.740  15.663  0.00  0.00    +0.000 OA
ATOM     15  C   UNL     1       6.079   5.784  16.173  0.00  0.00    +0.000 C 
ENDROOT
BRANCH  15  16
ATOM     16  C   UNL     1       6.964   6.658  17.043  0.00  0.00    +0.000 A 
ATOM     17  C   UNL     1       7.619   6.105  18.160  0.00  0.00    +0.000 A 
ATOM     18  C   UNL     1       8.371   6.912  19.014  0.00  0.00    +0.000 A 
ATOM     19  C   UNL     1       8.469   8.275  18.758  0.00  0.00    +0.000 A 
ATOM     20  F   UNL     1       9.160   9.054  19.599  0.00  0.00    +0.000 F 
ATOM     21  C   UNL     1       7.852   8.840  17.649  0.00  0.00    +0.000 A 
ATOM     22  C   UNL     1       7.106   8.033  16.789  0.00  0.00    +0.000 A 
ENDBRANCH  15  16
TORSDOF 1
ENDMDL
MODEL 3
REMARK VINA RESULT:      -7.2      3.086      5.179
REMARK  Name = 
REMARK  3 active torsions:
REMARK  status: ('A' for Active; 'I' for Inactive)
REMARK    1  A    between atoms: C_1  and  C_2
REMARK    2  A    between atoms: C_12  and  C_13
REMARK    3  A    between atoms: C_15  and  C_16
REMARK                            x       y       z     vdW  Elec       q    Type
REMARK                         _______ _______ _______ _____ _____    ______ ____
ROOT
ATOM      1  C   UNL     1       2.872   7.594  17.045  0.00  0.00    +0.000 C 
ATOM      2  C   UNL     1       2.448   7.240  18.427  0.00  0.00    +0.000 A 
ATOM      3  C   UNL     1       2.547   6.010  19.067  0.00  0.00    +0.000 A 
ATOM      4  N   UNL     1       1.967   6.156  20.307  0.00  0.00    +0.000 N 
ATOM      5  C   UNL     1       1.555   7.447  20.519  0.00  0.00    +0.000 A 
ATOM      6  C   UNL     1       0.949   8.058  21.630  0.00  0.00    +0.000 A 
ATOM      7  C   UNL     1       0.636   9.418  21.542  0.00  0.00    +0.000 A 
ATOM      8  C   UNL     1       0.912  10.144  20.388  0.00  0.00    +0.000 A 
ATOM      9  C   UNL     1       1.512   9.523  19.288  0.00  0.00    +0.000 A 
ATOM     10  C   UNL     1       1.844   8.152  19.353  0.00  0.00    +0.000 A 
ATOM     11  C   UNL     1       1.834   5.057  21.245  0.00  0.00    +0.000 C 
ATOM     12  C   UNL     1       1.936   3.717  20.523  0.00  0.00    +0.000 C 
ATOM     13  C   UNL     1       0.667   3.315  19.776  0.00  0.00    +0.000 C 
ATOM     14  O   UNL     1       3.085   3.720  19.674  0.00  0.00    +0.000 OA
ATOM     15  C   UNL     1       3.051   4.670  18.592  0.00  0.00    +0.000 C 
ENDROOT
BRANCH  15  16
ATOM     16  C   UNL     1       4.457   4.697  18.017  0.00  0.00    +0.000 A 
ATOM     17  C   UNL     1       4.686   4.265  16.698  0.00  0.00    +0.000 A 
ATOM     18  C   UNL     1       5.982   4.210  16.184  0.00  0.00    +0.000 A 
ATOM     19  C   UNL     1       7.053   4.581  16.987  0.00  0.00    +0.000 A 
ATOM     20  F   UNL     1       8.299   4.492  16.504  0.00  0.00    +0.000 F 
ATOM     21  C   UNL     1       6.851   5.035  18.284  0.00  0.00    +0.000 A 
ATOM     22  C   UNL     1       5.555   5.099  18.798  0.00  0.00    +0.000 A 
ENDBRANCH  15  16
TORSDOF 1
ENDMDL
MODEL 4
REMARK VINA RESULT:      -7.1      3.011      5.176
REMARK  Name = 
REMARK  3 active torsions:
REMARK  status: ('A' for Active; 'I' for Inactive)
REMARK    1  A    between atoms: C_1  and  C_2
REMARK    2  A    between atoms: C_12  and  C_13
REMARK    3  A    between atoms: C_15  and  C_16
REMARK                            x       y       z     vdW  Elec       q    Type
REMARK                         _______ _______ _______ _____ _____    ______ ____
ROOT
ATOM      1  C   UNL     1       2.918   7.380  16.964  0.00  0.00    +0.000 C 
ATOM      2  C   UNL     1       2.502   7.054  18.355  0.00  0.00    +0.000 A 
ATOM      3  C   UNL     1       2.575   5.829  19.009  0.00  0.00    +0.000 A 
ATOM      4  N   UNL     1       2.016   6.005  20.253  0.00  0.00    +0.000 N 
ATOM      5  C   UNL     1       1.642   7.310  20.455  0.00  0.00    +0.000 A 
ATOM      6  C   UNL     1       1.068   7.950  21.567  0.00  0.00    +0.000 A 
ATOM      7  C   UNL     1       0.791   9.317  21.467  0.00  0.00    +0.000 A 
ATOM      8  C   UNL     1       1.072  10.021  20.301  0.00  0.00    +0.000 A 
ATOM      9  C   UNL     1       1.641   9.371  19.200  0.00  0.00    +0.000 A 
ATOM     10  C   UNL     1       1.935   7.993  19.278  0.00  0.00    +0.000 A 
ATOM     11  C   UNL     1       1.865   4.921  21.206  0.00  0.00    +0.000 C 
ATOM     12  C   UNL     1       1.921   3.571  20.499  0.00  0.00    +0.000 C 
ATOM     13  C   UNL     1       0.632   3.195  19.773  0.00  0.00    +0.000 C 
ATOM     14  O   UNL     1       3.059   3.532  19.636  0.00  0.00    +0.000 OA
ATOM     15  C   UNL     1       3.037   4.471  18.543  0.00  0.00    +0.000 C 
ENDROOT
BRANCH  15  16
ATOM     16  C   UNL     1       4.435   4.453  17.950  0.00  0.00    +0.000 A 
ATOM     17  C   UNL     1       5.531   4.889  18.717  0.00  0.00    +0.000 A 
ATOM     18  C   UNL     1       6.808   4.953  18.160  0.00  0.00    +0.000 A 
ATOM     19  C   UNL     1       6.994   4.585  16.833  0.00  0.00    +0.000 A 
ATOM     20  F   UNL     1       8.214   4.683  16.288  0.00  0.00    +0.000 F 
ATOM     21  C   UNL     1       5.934   4.128  16.061  0.00  0.00    +0.000 A 
ATOM     22  C   UNL     1       4.656   4.056  16.620  0.00  0.00    +0.000 A 
ENDBRANCH  15  16
TORSDOF 1
ENDMDL
MODEL 5
REMARK VINA RESULT:      -6.9      2.794      5.326
REMARK  Name = 
REMARK  3 active torsions:
REMARK  status: ('A' for Active; 'I' for Inactive)
REMARK    1  A    between atoms: C_1  and  C_2
REMARK    2  A    between atoms: C_12  and  C_13
REMARK    3  A    between atoms: C_15  and  C_16
REMARK                            x       y       z     vdW  Elec       q    Type
REMARK                         _______ _______ _______ _____ _____    ______ ____
ROOT
ATOM      1  C   UNL     1       5.757   7.305  17.938  0.00  0.00    +0.000 C 
ATOM      2  C   UNL     1       5.177   6.084  17.316  0.00  0.00    +0.000 A 
ATOM      3  C   UNL     1       4.048   5.373  17.709  0.00  0.00    +0.000 A 
ATOM      4  N   UNL     1       3.945   4.288  16.869  0.00  0.00    +0.000 N 
ATOM      5  C   UNL     1       4.925   4.304  15.908  0.00  0.00    +0.000 A 
ATOM      6  C   UNL     1       5.189   3.432  14.838  0.00  0.00    +0.000 A 
ATOM      7  C   UNL     1       6.285   3.715  14.016  0.00  0.00    +0.000 A 
ATOM      8  C   UNL     1       7.090   4.823  14.253  0.00  0.00    +0.000 A 
ATOM      9  C   UNL     1       6.818   5.682  15.323  0.00  0.00    +0.000 A 
ATOM     10  C   UNL     1       5.714   5.422  16.164  0.00  0.00    +0.000 A 
ATOM     11  C   UNL     1       2.912   3.280  17.013  0.00  0.00    +0.000 C 
ATOM     12  C   UNL     1       2.328   3.304  18.421  0.00  0.00    +0.000 C 
ATOM     13  C   UNL     1       3.211   2.636  19.472  0.00  0.00    +0.000 C 
ATOM     14  O   UNL     1       1.989   4.646  18.774  0.00  0.00    +0.000 OA
ATOM     15  C   UNL     1       3.100   5.559  18.867  0.00  0.00    +0.000 C 
ENDROOT
BRANCH  15  16
ATOM     16  C   UNL     1       2.491   6.947  18.962  0.00  0.00    +0.000 A 
ATOM     17  C   UNL     1       2.049   7.439  20.204  0.00  0.00    +0.000 A 
ATOM     18  C   UNL     1       1.416   8.678  20.293  0.00  0.00    +0.000 A 
ATOM     19  C   UNL     1       1.218   9.430  19.142  0.00  0.00    +0.000 A 
ATOM     20  F   UNL     1       0.577  10.603  19.224  0.00  0.00    +0.000 F 
ATOM     21  C   UNL     1       1.667   8.979  17.907  0.00  0.00    +0.000 A 
ATOM     22  C   UNL     1       2.308   7.742  17.817  0.00  0.00    +0.000 A 
ENDBRANCH  15  16
TORSDOF 1
ENDMDL
MODEL 6
REMARK VINA RESULT:      -6.8      3.310      6.366
REMARK  Name = 
REMARK  3 active torsions:
REMARK  status: ('A' for Active; 'I' for Inactive)
REMARK    1  A    between atoms: C_1  and  C_2
REMARK    2  A    between atoms: C_12  and  C_13
REMARK    3  A    between atoms: C_15  and  C_16
REMARK                            x       y       z     vdW  Elec       q    Type
REMARK                         _______ _______ _______ _____ _____    ______ ____
ROOT
ATOM      1  C   UNL     1       2.781   2.835  16.912  0.00  0.00    +0.000 C 
ATOM      2  C   UNL     1       3.561   4.099  17.002  0.00  0.00    +0.000 A 
ATOM      3  C   UNL     1       3.268   5.239  17.742  0.00  0.00    +0.000 A 
ATOM      4  N   UNL     1       4.245   6.164  17.458  0.00  0.00    +0.000 N 
ATOM      5  C   UNL     1       5.194   5.647  16.613  0.00  0.00    +0.000 A 
ATOM      6  C   UNL     1       6.371   6.206  16.084  0.00  0.00    +0.000 A 
ATOM      7  C   UNL     1       7.146   5.416  15.229  0.00  0.00    +0.000 A 
ATOM      8  C   UNL     1       6.763   4.119  14.908  0.00  0.00    +0.000 A 
ATOM      9  C   UNL     1       5.588   3.576  15.438  0.00  0.00    +0.000 A 
ATOM     10  C   UNL     1       4.791   4.349  16.309  0.00  0.00    +0.000 A 
ATOM     11  C   UNL     1       4.238   7.507  18.008  0.00  0.00    +0.000 C 
ATOM     12  C   UNL     1       2.840   7.888  18.482  0.00  0.00    +0.000 C 
ATOM     13  C   UNL     1       1.887   8.279  17.355  0.00  0.00    +0.000 C 
ATOM     14  O   UNL     1       2.311   6.841  19.298  0.00  0.00    +0.000 OA
ATOM     15  C   UNL     1       2.096   5.585  18.628  0.00  0.00    +0.000 C 
ENDROOT
BRANCH  15  16
ATOM     16  C   UNL     1       1.817   4.571  19.723  0.00  0.00    +0.000 A 
ATOM     17  C   UNL     1       2.591   4.572  20.898  0.00  0.00    +0.000 A 
ATOM     18  C   UNL     1       2.399   3.597  21.877  0.00  0.00    +0.000 A 
ATOM     19  C   UNL     1       1.435   2.615  21.684  0.00  0.00    +0.000 A 
ATOM     20  F   UNL     1       1.278   1.658  22.608  0.00  0.00    +0.000 F 
ATOM     21  C   UNL     1       0.641   2.605  20.544  0.00  0.00    +0.000 A 
ATOM     22  C   UNL     1       0.827   3.585  19.567  0.00  0.00    +0.000 A 
ENDBRANCH  15  16
TORSDOF 1
ENDMDL
MODEL 7
REMARK VINA RESULT:      -6.8      2.779      5.245
REMARK  Name = 
REMARK  3 active torsions:
REMARK  status: ('A' for Active; 'I' for Inactive)
REMARK    1  A    between atoms: C_1  and  C_2
REMARK    2  A    between atoms: C_12  and  C_13
REMARK    3  A    between atoms: C_15  and  C_16
REMARK                            x       y       z     vdW  Elec       q    Type
REMARK                         _______ _______ _______ _____ _____    ______ ____
ROOT
ATOM      1  C   UNL     1       5.636   7.442  17.858  0.00  0.00    +0.000 C 
ATOM      2  C   UNL     1       5.130   6.152  17.314  0.00  0.00    +0.000 A 
ATOM      3  C   UNL     1       4.075   5.377  17.784  0.00  0.00    +0.000 A 
ATOM      4  N   UNL     1       4.027   4.249  16.998  0.00  0.00    +0.000 N 
ATOM      5  C   UNL     1       4.967   4.292  16.000  0.00  0.00    +0.000 A 
ATOM      6  C   UNL     1       5.260   3.392  14.961  0.00  0.00    +0.000 A 
ATOM      7  C   UNL     1       6.300   3.717  14.084  0.00  0.00    +0.000 A 
ATOM      8  C   UNL     1       7.025   4.894  14.239  0.00  0.00    +0.000 A 
ATOM      9  C   UNL     1       6.725   5.780  15.279  0.00  0.00    +0.000 A 
ATOM     10  C   UNL     1       5.676   5.478  16.173  0.00  0.00    +0.000 A 
ATOM     11  C   UNL     1       3.081   3.173  17.228  0.00  0.00    +0.000 C 
ATOM     12  C   UNL     1       2.547   3.221  18.656  0.00  0.00    +0.000 C 
ATOM     13  C   UNL     1       3.517   2.673  19.700  0.00  0.00    +0.000 C 
ATOM     14  O   UNL     1       2.118   4.549  18.961  0.00  0.00    +0.000 OA
ATOM     15  C   UNL     1       3.157   5.547  18.968  0.00  0.00    +0.000 C 
ENDROOT
BRANCH  15  16
ATOM     16  C   UNL     1       2.447   6.887  19.025  0.00  0.00    +0.000 A 
ATOM     17  C   UNL     1       2.273   7.643  17.850  0.00  0.00    +0.000 A 
ATOM     18  C   UNL     1       1.694   8.911  17.900  0.00  0.00    +0.000 A 
ATOM     19  C   UNL     1       1.289   9.431  19.123  0.00  0.00    +0.000 A 
ATOM     20  F   UNL     1       0.767  10.663  19.173  0.00  0.00    +0.000 F 
ATOM     21  C   UNL     1       1.426   8.696  20.293  0.00  0.00    +0.000 A 
ATOM     22  C   UNL     1       1.999   7.423  20.245  0.00  0.00    +0.000 A 
ENDBRANCH  15  16
TORSDOF 1
ENDMDL
MODEL 8
REMARK VINA RESULT:      -6.7      3.194      5.140
REMARK  Name = 
REMARK  3 active torsions:
REMARK  status: ('A' for Active; 'I' for Inactive)
REMARK    1  A    between atoms: C_1  and  C_2
REMARK    2  A    between atoms: C_12  and  C_13
REMARK    3  A    between atoms: C_15  and  C_16
REMARK                            x       y       z     vdW  Elec       q    Type
REMARK                         _______ _______ _______ _____ _____    ______ ____
ROOT
ATOM      1  C   UNL     1       2.500   8.442  17.432  0.00  0.00    +0.000 C 
ATOM      2  C   UNL     1       2.142   7.866  18.757  0.00  0.00    +0.000 A 
ATOM      3  C   UNL     1       2.398   6.586  19.234  0.00  0.00    +0.000 A 
ATOM      4  N   UNL     1       1.824   6.501  20.482  0.00  0.00    +0.000 N 
ATOM      5  C   UNL     1       1.262   7.695  20.857  0.00  0.00    +0.000 A 
ATOM      6  C   UNL     1       0.604   8.082  22.037  0.00  0.00    +0.000 A 
ATOM      7  C   UNL     1       0.128   9.394  22.124  0.00  0.00    +0.000 A 
ATOM      8  C   UNL     1       0.297  10.288  21.073  0.00  0.00    +0.000 A 
ATOM      9  C   UNL     1       0.951   9.890  19.903  0.00  0.00    +0.000 A 
ATOM     10  C   UNL     1       1.447   8.573  19.792  0.00  0.00    +0.000 A 
ATOM     11  C   UNL     1       1.838   5.284  21.271  0.00  0.00    +0.000 C 
ATOM     12  C   UNL     1       2.090   4.069  20.384  0.00  0.00    +0.000 C 
ATOM     13  C   UNL     1       0.868   3.614  19.590  0.00  0.00    +0.000 C 
ATOM     14  O   UNL     1       3.218   4.320  19.543  0.00  0.00    +0.000 OA
ATOM     15  C   UNL     1       3.053   5.389  18.592  0.00  0.00    +0.000 C 
ENDROOT
BRANCH  15  16
ATOM     16  C   UNL     1       4.436   5.659  18.025  0.00  0.00    +0.000 A 
ATOM     17  C   UNL     1       5.552   5.699  18.881  0.00  0.00    +0.000 A 
ATOM     18  C   UNL     1       6.815   6.025  18.387  0.00  0.00    +0.000 A 
ATOM     19  C   UNL     1       6.967   6.317  17.037  0.00  0.00    +0.000 A 
ATOM     20  F   UNL     1       8.174   6.666  16.572  0.00  0.00    +0.000 F 
ATOM     21  C   UNL     1       5.887   6.260  16.167  0.00  0.00    +0.000 A 
ATOM     22  C   UNL     1       4.623   5.926  16.658  0.00  0.00    +0.000 A 
ENDBRANCH  15  16
TORSDOF 1
ENDMDL
MODEL 9
REMARK VINA RESULT:      -6.6      3.334      6.355
REMARK  Name = 
REMARK  3 active torsions:
REMARK  status: ('A' for Active; 'I' for Inactive)
REMARK    1  A    between atoms: C_1  and  C_2
REMARK    2  A    between atoms: C_12  and  C_13
REMARK    3  A    between atoms: C_15  and  C_16
REMARK                            x       y       z     vdW  Elec       q    Type
REMARK                         _______ _______ _______ _____ _____    ______ ____
ROOT
ATOM      1  C   UNL     1       2.817   2.816  16.799  0.00  0.00    +0.000 C 
ATOM      2  C   UNL     1       3.602   4.077  16.894  0.00  0.00    +0.000 A 
ATOM      3  C   UNL     1       3.329   5.201  17.665  0.00  0.00    +0.000 A 
ATOM      4  N   UNL     1       4.300   6.132  17.373  0.00  0.00    +0.000 N 
ATOM      5  C   UNL     1       5.226   5.631  16.493  0.00  0.00    +0.000 A 
ATOM      6  C   UNL     1       6.389   6.199  15.945  0.00  0.00    +0.000 A 
ATOM      7  C   UNL     1       7.140   5.426  15.055  0.00  0.00    +0.000 A 
ATOM      8  C   UNL     1       6.747   4.135  14.718  0.00  0.00    +0.000 A 
ATOM      9  C   UNL     1       5.585   3.583  15.268  0.00  0.00    +0.000 A 
ATOM     10  C   UNL     1       4.812   4.340  16.174  0.00  0.00    +0.000 A 
ATOM     11  C   UNL     1       4.310   7.463  17.950  0.00  0.00    +0.000 C 
ATOM     12  C   UNL     1       2.925   7.836  18.468  0.00  0.00    +0.000 C 
ATOM     13  C   UNL     1       1.943   8.250  17.375  0.00  0.00    +0.000 C 
ATOM     14  O   UNL     1       2.416   6.773  19.277  0.00  0.00    +0.000 OA
ATOM     15  C   UNL     1       2.182   5.531  18.587  0.00  0.00    +0.000 C 
ENDROOT
BRANCH  15  16
ATOM     16  C   UNL     1       1.930   4.495  19.669  0.00  0.00    +0.000 A 
ATOM     17  C   UNL     1       0.909   3.541  19.507  0.00  0.00    +0.000 A 
ATOM     18  C   UNL     1       0.614   2.635  20.526  0.00  0.00    +0.000 A 
ATOM     19  C   UNL     1       1.336   2.682  21.713  0.00  0.00    +0.000 A 
ATOM     20  F   UNL     1       1.027   1.835  22.704  0.00  0.00    +0.000 F 
ATOM     21  C   UNL     1       2.366   3.597  21.888  0.00  0.00    +0.000 A 
ATOM     22  C   UNL     1       2.667   4.500  20.866  0.00  0.00    +0.000 A 
ENDBRANCH  15  16
TORSDOF 1
ENDMDL
