MODEL 1
REMARK VINA RESULT:      -8.4      0.000      0.000
REMARK  Name = 
REMARK  8 active torsions:
REMARK  status: ('A' for Active; 'I' for Inactive)
REMARK    1  A    between atoms: C_1  and  C_2
REMARK    2  A    between atoms: C_2  and  C_3
REMARK    3  A    between atoms: C_2  and  O_4
REMARK    4  A    between atoms: C_2  and  C_5
REMARK    5  A    between atoms: C_8  and  C_9
REMARK    6  A    between atoms: C_9  and  C_10
REMARK    7  A    between atoms: C_10  and  N_11
REMARK    8  A    between atoms: C_12  and  C_14
REMARK                            x       y       z     vdW  Elec       q    Type
REMARK                         _______ _______ _______ _____ _____    ______ ____
ROOT
ATOM      1  C   UNL     1       3.649   5.575  18.519  0.00  0.00    +0.000 C 
ATOM      2  C   UNL     1       3.040   4.665  17.404  0.00  0.00    +0.000 C 
ATOM      3  C   UNL     1       1.723   4.006  17.824  0.00  0.00    +0.000 C 
ATOM      4  C   UNL     1       1.873   3.174  19.083  0.00  0.00    +0.000 C 
ATOM      5  F   UNL     1       2.520   2.021  18.749  0.00  0.00    +0.000 F 
ATOM      6  F   UNL     1       0.643   2.807  19.523  0.00  0.00    +0.000 F 
ATOM      7  C   UNL     1       2.629   3.827  20.224  0.00  0.00    +0.000 C 
ATOM      8  C   UNL     1       3.822   4.683  19.792  0.00  0.00    +0.000 C 
ENDROOT
BRANCH   1  12
ATOM      9  C   UNL     1       1.521   9.300  19.089  0.00  0.00    +0.000 A 
ATOM     10  C   UNL     1       1.921   8.941  17.810  0.00  0.00    +0.000 A 
ATOM     11  C   UNL     1       2.468   7.680  17.585  0.00  0.00    +0.000 A 
ATOM     12  C   UNL     1       2.702   6.794  18.637  0.00  0.00    +0.000 A 
ATOM     13  C   UNL     1       2.188   7.214  19.870  0.00  0.00    +0.000 A 
ATOM     14  N   UNL     1       1.590   8.413  20.111  0.00  0.00    +0.000 NA
BRANCH   9  16
ATOM     15  C   UNL     1      -0.512  10.829  18.942  0.00  0.00    +0.000 C 
ATOM     16  C   UNL     1       0.963  10.703  19.335  0.00  0.00    +0.000 C 
ATOM     17  C   UNL     1       1.816  11.726  18.581  0.00  0.00    +0.000 C 
BRANCH  16  18
ATOM     18  O   UNL     1       1.049  11.011  20.740  0.00  0.00    +0.000 OA
ATOM     19  H   UNL     1       0.755  11.931  20.856  0.00  0.00    +0.000 HD
ENDBRANCH  16  18
ENDBRANCH   9  16
ENDBRANCH   1  12
BRANCH   1  20
ATOM     20  C   UNL     1       5.097   5.990  18.063  0.00  0.00    +0.000 C 
BRANCH  20  21
ATOM     21  N   UNL     1       5.400   5.627  16.684  0.00  0.00    +0.000 N 
ATOM     22  C   UNL     1       6.661   5.270  16.248  0.00  0.00    +0.000 C 
ATOM     23  O   UNL     1       7.629   5.203  17.000  0.00  0.00    +0.000 OA
ATOM     24  H   UNL     1       4.644   5.676  16.011  0.00  0.00    +0.000 HD
BRANCH  22  25
ATOM     25  C   UNL     1       6.814   4.920  14.800  0.00  0.00    +0.000 A 
ATOM     26  C   UNL     1       7.806   5.634  14.094  0.00  0.00    +0.000 A 
ATOM     27  C   UNL     1       8.049   5.389  12.742  0.00  0.00    +0.000 A 
ATOM     28  C   UNL     1       7.303   4.425  12.075  0.00  0.00    +0.000 A 
ATOM     29  C   UNL     1       6.305   3.719  12.752  0.00  0.00    +0.000 A 
ATOM     30 CL   UNL     1       5.426   2.540  11.835  0.00  0.00    +0.000 Cl
ATOM     31  C   UNL     1       6.041   3.967  14.113  0.00  0.00    +0.000 A 
ATOM     32 CL   UNL     1       4.729   3.126  14.885  0.00  0.00    +0.000 Cl
ENDBRANCH  22  25
ENDBRANCH  20  21
ENDBRANCH   1  20
TORSDOF 6
ENDMDL
MODEL 2
REMARK VINA RESULT:      -8.4      0.935      1.265
REMARK  Name = 
REMARK  8 active torsions:
REMARK  status: ('A' for Active; 'I' for Inactive)
REMARK    1  A    between atoms: C_1  and  C_2
REMARK    2  A    between atoms: C_2  and  C_3
REMARK    3  A    between atoms: C_2  and  O_4
REMARK    4  A    between atoms: C_2  and  C_5
REMARK    5  A    between atoms: C_8  and  C_9
REMARK    6  A    between atoms: C_9  and  C_10
REMARK    7  A    between atoms: C_10  and  N_11
REMARK    8  A    between atoms: C_12  and  C_14
REMARK                            x       y       z     vdW  Elec       q    Type
REMARK                         _______ _______ _______ _____ _____    ______ ____
ROOT
ATOM      1  C   UNL     1       3.879   5.907  18.489  0.00  0.00    +0.000 C 
ATOM      2  C   UNL     1       3.148   5.104  17.367  0.00  0.00    +0.000 C 
ATOM      3  C   UNL     1       1.774   4.585  17.802  0.00  0.00    +0.000 C 
ATOM      4  C   UNL     1       1.857   3.706  19.035  0.00  0.00    +0.000 C 
ATOM      5  F   UNL     1       2.362   2.497  18.655  0.00  0.00    +0.000 F 
ATOM      6  F   UNL     1       0.603   3.467  19.496  0.00  0.00    +0.000 F 
ATOM      7  C   UNL     1       2.706   4.237  20.173  0.00  0.00    +0.000 C 
ATOM      8  C   UNL     1       3.978   4.966  19.734  0.00  0.00    +0.000 C 
ENDROOT
BRANCH   1  12
ATOM      9  C   UNL     1       1.167   9.276  18.651  0.00  0.00    +0.000 A 
ATOM     10  C   UNL     1       1.340   8.494  19.784  0.00  0.00    +0.000 A 
ATOM     11  C   UNL     1       2.319   7.504  19.799  0.00  0.00    +0.000 A 
ATOM     12  C   UNL     1       3.079   7.222  18.663  0.00  0.00    +0.000 A 
ATOM     13  C   UNL     1       2.890   8.117  17.604  0.00  0.00    +0.000 A 
ATOM     14  N   UNL     1       1.987   9.136  17.581  0.00  0.00    +0.000 NA
BRANCH   9  16
ATOM     15  C   UNL     1      -0.540  10.586  20.015  0.00  0.00    +0.000 C 
ATOM     16  C   UNL     1       0.059  10.330  18.629  0.00  0.00    +0.000 C 
ATOM     17  C   UNL     1      -1.027   9.902  17.638  0.00  0.00    +0.000 C 
BRANCH  16  18
ATOM     18  O   UNL     1       0.601  11.584  18.170  0.00  0.00    +0.000 OA
ATOM     19  H   UNL     1       0.977  11.434  17.285  0.00  0.00    +0.000 HD
ENDBRANCH  16  18
ENDBRANCH   9  16
ENDBRANCH   1  12
BRANCH   1  20
ATOM     20  C   UNL     1       5.355   6.170  18.008  0.00  0.00    +0.000 C 
BRANCH  20  21
ATOM     21  N   UNL     1       5.591   5.792  16.620  0.00  0.00    +0.000 N 
ATOM     22  C   UNL     1       6.752   5.187  16.181  0.00  0.00    +0.000 C 
ATOM     23  O   UNL     1       7.674   4.892  16.936  0.00  0.00    +0.000 OA
ATOM     24  H   UNL     1       4.872   6.022  15.944  0.00  0.00    +0.000 HD
BRANCH  22  25
ATOM     25  C   UNL     1       6.846   4.856  14.723  0.00  0.00    +0.000 A 
ATOM     26  C   UNL     1       7.811   5.576  13.987  0.00  0.00    +0.000 A 
ATOM     27  C   UNL     1       7.998   5.348  12.623  0.00  0.00    +0.000 A 
ATOM     28  C   UNL     1       7.223   4.395  11.974  0.00  0.00    +0.000 A 
ATOM     29  C   UNL     1       6.250   3.683  12.682  0.00  0.00    +0.000 A 
ATOM     30 CL   UNL     1       5.331   2.519  11.786  0.00  0.00    +0.000 Cl
ATOM     31  C   UNL     1       6.042   3.913  14.055  0.00  0.00    +0.000 A 
ATOM     32 CL   UNL     1       4.760   3.067  14.869  0.00  0.00    +0.000 Cl
ENDBRANCH  22  25
ENDBRANCH  20  21
ENDBRANCH   1  20
TORSDOF 6
ENDMDL
MODEL 3
REMARK VINA RESULT:      -8.2      1.021      1.178
REMARK  Name = 
REMARK  8 active torsions:
REMARK  status: ('A' for Active; 'I' for Inactive)
REMARK    1  A    between atoms: C_1  and  C_2
REMARK    2  A    between atoms: C_2  and  C_3
REMARK    3  A    between atoms: C_2  and  O_4
REMARK    4  A    between atoms: C_2  and  C_5
REMARK    5  A    between atoms: C_8  and  C_9
REMARK    6  A    between atoms: C_9  and  C_10
REMARK    7  A    between atoms: C_10  and  N_11
REMARK    8  A    between atoms: C_12  and  C_14
REMARK                            x       y       z     vdW  Elec       q    Type
REMARK                         _______ _______ _______ _____ _____    ______ ____
ROOT
ATOM      1  C   UNL     1       3.899   5.632  18.335  0.00  0.00    +0.000 C 
ATOM      2  C   UNL     1       3.223   4.768  17.223  0.00  0.00    +0.000 C 
ATOM      3  C   UNL     1       2.209   3.765  17.780  0.00  0.00    +0.000 C 
ATOM      4  C   UNL     1       2.830   2.825  18.796  0.00  0.00    +0.000 C 
ATOM      5  F   UNL     1       3.588   1.915  18.118  0.00  0.00    +0.000 F 
ATOM      6  F   UNL     1       1.847   2.120  19.409  0.00  0.00    +0.000 F 
ATOM      7  C   UNL     1       3.702   3.473  19.853  0.00  0.00    +0.000 C 
ATOM      8  C   UNL     1       4.557   4.638  19.349  0.00  0.00    +0.000 C 
ENDROOT
BRANCH   1  12
ATOM      9  C   UNL     1       1.275   8.508  20.225  0.00  0.00    +0.000 A 
ATOM     10  C   UNL     1       1.689   8.730  18.920  0.00  0.00    +0.000 A 
ATOM     11  C   UNL     1       2.405   7.744  18.245  0.00  0.00    +0.000 A 
ATOM     12  C   UNL     1       2.791   6.564  18.883  0.00  0.00    +0.000 A 
ATOM     13  C   UNL     1       2.253   6.400  20.165  0.00  0.00    +0.000 A 
ATOM     14  N   UNL     1       1.496   7.315  20.829  0.00  0.00    +0.000 NA
BRANCH   9  16
ATOM     15  C   UNL     1      -0.308   9.076  22.139  0.00  0.00    +0.000 C 
ATOM     16  C   UNL     1       0.528   9.614  20.974  0.00  0.00    +0.000 C 
ATOM     17  C   UNL     1      -0.350  10.389  19.988  0.00  0.00    +0.000 C 
BRANCH  16  18
ATOM     18  O   UNL     1       1.480  10.538  21.533  0.00  0.00    +0.000 OA
ATOM     19  H   UNL     1       1.117  10.858  22.377  0.00  0.00    +0.000 HD
ENDBRANCH  16  18
ENDBRANCH   9  16
ENDBRANCH   1  12
BRANCH   1  20
ATOM     20  C   UNL     1       5.077   6.437  17.670  0.00  0.00    +0.000 C 
BRANCH  20  21
ATOM     21  N   UNL     1       5.409   5.980  16.327  0.00  0.00    +0.000 N 
ATOM     22  C   UNL     1       6.613   5.389  15.997  0.00  0.00    +0.000 C 
ATOM     23  O   UNL     1       7.496   5.176  16.823  0.00  0.00    +0.000 OA
ATOM     24  H   UNL     1       4.725   6.140  15.596  0.00  0.00    +0.000 HD
BRANCH  22  25
ATOM     25  C   UNL     1       6.805   4.969  14.572  0.00  0.00    +0.000 A 
ATOM     26  C   UNL     1       7.780   5.684  13.844  0.00  0.00    +0.000 A 
ATOM     27  C   UNL     1       8.056   5.377  12.511  0.00  0.00    +0.000 A 
ATOM     28  C   UNL     1       7.361   4.349  11.886  0.00  0.00    +0.000 A 
ATOM     29  C   UNL     1       6.380   3.640  12.585  0.00  0.00    +0.000 A 
ATOM     30 CL   UNL     1       5.565   2.379  11.720  0.00  0.00    +0.000 Cl
ATOM     31  C   UNL     1       6.083   3.949  13.926  0.00  0.00    +0.000 A 
ATOM     32 CL   UNL     1       4.792   3.098  14.723  0.00  0.00    +0.000 Cl
ENDBRANCH  22  25
ENDBRANCH  20  21
ENDBRANCH   1  20
TORSDOF 6
ENDMDL
MODEL 4
REMARK VINA RESULT:      -8.2      1.022      1.385
REMARK  Name = 
REMARK  8 active torsions:
REMARK  status: ('A' for Active; 'I' for Inactive)
REMARK    1  A    between atoms: C_1  and  C_2
REMARK    2  A    between atoms: C_2  and  C_3
REMARK    3  A    between atoms: C_2  and  O_4
REMARK    4  A    between atoms: C_2  and  C_5
REMARK    5  A    between atoms: C_8  and  C_9
REMARK    6  A    between atoms: C_9  and  C_10
REMARK    7  A    between atoms: C_10  and  N_11
REMARK    8  A    between atoms: C_12  and  C_14
REMARK                            x       y       z     vdW  Elec       q    Type
REMARK                         _______ _______ _______ _____ _____    ______ ____
ROOT
ATOM      1  C   UNL     1       3.958   5.006  18.588  0.00  0.00    +0.000 C 
ATOM      2  C   UNL     1       3.182   4.363  17.394  0.00  0.00    +0.000 C 
ATOM      3  C   UNL     1       1.726   4.033  17.736  0.00  0.00    +0.000 C 
ATOM      4  C   UNL     1       1.614   3.102  18.928  0.00  0.00    +0.000 C 
ATOM      5  F   UNL     1       1.961   1.849  18.515  0.00  0.00    +0.000 F 
ATOM      6  F   UNL     1       0.316   3.029  19.316  0.00  0.00    +0.000 F 
ATOM      7  C   UNL     1       2.466   3.457  20.131  0.00  0.00    +0.000 C 
ATOM      8  C   UNL     1       3.852   4.010  19.789  0.00  0.00    +0.000 C 
ENDROOT
BRANCH   1  12
ATOM      9  C   UNL     1       1.750   8.722  18.784  0.00  0.00    +0.000 A 
ATOM     10  C   UNL     1       1.753   7.881  19.887  0.00  0.00    +0.000 A 
ATOM     11  C   UNL     1       2.579   6.760  19.900  0.00  0.00    +0.000 A 
ATOM     12  C   UNL     1       3.346   6.414  18.786  0.00  0.00    +0.000 A 
ATOM     13  C   UNL     1       3.339   7.368  17.762  0.00  0.00    +0.000 A 
ATOM     14  N   UNL     1       2.593   8.506  17.745  0.00  0.00    +0.000 NA
BRANCH   9  16
ATOM     15  C   UNL     1       1.553  11.259  18.657  0.00  0.00    +0.000 C 
ATOM     16  C   UNL     1       0.805   9.926  18.761  0.00  0.00    +0.000 C 
ATOM     17  C   UNL     1      -0.083   9.897  20.006  0.00  0.00    +0.000 C 
BRANCH  16  18
ATOM     18  O   UNL     1      -0.053   9.837  17.607  0.00  0.00    +0.000 OA
ATOM     19  H   UNL     1      -0.885   9.422  17.893  0.00  0.00    +0.000 HD
ENDBRANCH  16  18
ENDBRANCH   9  16
ENDBRANCH   1  12
BRANCH   1  20
ATOM     20  C   UNL     1       5.481   5.070  18.193  0.00  0.00    +0.000 C 
BRANCH  20  21
ATOM     21  N   UNL     1       5.732   4.765  16.790  0.00  0.00    +0.000 N 
ATOM     22  C   UNL     1       6.689   5.406  16.029  0.00  0.00    +0.000 C 
ATOM     23  O   UNL     1       7.429   6.273  16.486  0.00  0.00    +0.000 OA
ATOM     24  H   UNL     1       5.143   4.066  16.351  0.00  0.00    +0.000 HD
BRANCH  22  25
ATOM     25  C   UNL     1       6.831   4.979  14.601  0.00  0.00    +0.000 A 
ATOM     26  C   UNL     1       7.818   5.654  13.850  0.00  0.00    +0.000 A 
ATOM     27  C   UNL     1       8.050   5.336  12.511  0.00  0.00    +0.000 A 
ATOM     28  C   UNL     1       7.300   4.338  11.902  0.00  0.00    +0.000 A 
ATOM     29  C   UNL     1       6.306   3.670  12.624  0.00  0.00    +0.000 A 
ATOM     30 CL   UNL     1       5.420   2.445  11.778  0.00  0.00    +0.000 Cl
ATOM     31  C   UNL     1       6.053   3.990  13.971  0.00  0.00    +0.000 A 
ATOM     32 CL   UNL     1       4.747   3.193  14.798  0.00  0.00    +0.000 Cl
ENDBRANCH  22  25
ENDBRANCH  20  21
ENDBRANCH   1  20
TORSDOF 6
ENDMDL
MODEL 5
REMARK VINA RESULT:      -7.5      6.188     10.791
REMARK  Name = 
REMARK  8 active torsions:
REMARK  status: ('A' for Active; 'I' for Inactive)
REMARK    1  A    between atoms: C_1  and  C_2
REMARK    2  A    between atoms: C_2  and  C_3
REMARK    3  A    between atoms: C_2  and  O_4
REMARK    4  A    between atoms: C_2  and  C_5
REMARK    5  A    between atoms: C_8  and  C_9
REMARK    6  A    between atoms: C_9  and  C_10
REMARK    7  A    between atoms: C_10  and  N_11
REMARK    8  A    between atoms: C_12  and  C_14
REMARK                            x       y       z     vdW  Elec       q    Type
REMARK                         _______ _______ _______ _____ _____    ______ ____
ROOT
ATOM      1  C   UNL     1       0.164  11.016  18.970  0.00  0.00    +0.000 C 
ATOM      2  C   UNL     1       1.036  12.091  18.247  0.00  0.00    +0.000 C 
ATOM      3  C   UNL     1       2.149  12.655  19.136  0.00  0.00    +0.000 C 
ATOM      4  C   UNL     1       1.607  13.267  20.414  0.00  0.00    +0.000 C 
ATOM      5  F   UNL     1       1.042  14.468  20.096  0.00  0.00    +0.000 F 
ATOM      6  F   UNL     1       2.641  13.541  21.249  0.00  0.00    +0.000 F 
ATOM      7  C   UNL     1       0.577  12.443  21.160  0.00  0.00    +0.000 C 
ATOM      8  C   UNL     1      -0.405  11.685  20.264  0.00  0.00    +0.000 C 
ENDROOT
BRANCH   1  12
ATOM      9  C   UNL     1       2.185   7.214  19.412  0.00  0.00    +0.000 A 
ATOM     10  C   UNL     1       2.322   7.916  18.223  0.00  0.00    +0.000 A 
ATOM     11  C   UNL     1       1.808   9.207  18.119  0.00  0.00    +0.000 A 
ATOM     12  C   UNL     1       1.080   9.782  19.162  0.00  0.00    +0.000 A 
ATOM     13  C   UNL     1       1.071   9.031  20.342  0.00  0.00    +0.000 A 
ATOM     14  N   UNL     1       1.619   7.794  20.498  0.00  0.00    +0.000 NA
BRANCH   9  16
ATOM     15  C   UNL     1       2.537   5.005  18.193  0.00  0.00    +0.000 C 
ATOM     16  C   UNL     1       2.712   5.781  19.502  0.00  0.00    +0.000 C 
ATOM     17  C   UNL     1       2.018   5.058  20.659  0.00  0.00    +0.000 C 
BRANCH  16  18
ATOM     18  O   UNL     1       4.124   5.809  19.786  0.00  0.00    +0.000 OA
ATOM     19  H   UNL     1       4.540   5.094  19.274  0.00  0.00    +0.000 HD
ENDBRANCH  16  18
ENDBRANCH   9  16
ENDBRANCH   1  12
BRANCH   1  20
ATOM     20  C   UNL     1      -1.072  10.700  18.048  0.00  0.00    +0.000 C 
BRANCH  20  21
ATOM     21  N   UNL     1      -2.357  10.935  18.696  0.00  0.00    +0.000 N 
ATOM     22  C   UNL     1      -3.474  11.396  18.029  0.00  0.00    +0.000 C 
ATOM     23  O   UNL     1      -3.482  11.621  16.822  0.00  0.00    +0.000 OA
ATOM     24  H   UNL     1      -2.411  10.781  19.696  0.00  0.00    +0.000 HD
BRANCH  22  25
ATOM     25  C   UNL     1      -4.724  11.586  18.832  0.00  0.00    +0.000 A 
ATOM     26  C   UNL     1      -5.855  10.863  18.393  0.00  0.00    +0.000 A 
ATOM     27  C   UNL     1      -7.074  10.951  19.066  0.00  0.00    +0.000 A 
ATOM     28  C   UNL     1      -7.181  11.761  20.190  0.00  0.00    +0.000 A 
ATOM     29  C   UNL     1      -6.077  12.497  20.630  0.00  0.00    +0.000 A 
ATOM     30 CL   UNL     1      -6.310  13.481  22.038  0.00  0.00    +0.000 Cl
ATOM     31  C   UNL     1      -4.846  12.428  19.952  0.00  0.00    +0.000 A 
ATOM     32 CL   UNL     1      -3.530  13.431  20.488  0.00  0.00    +0.000 Cl
ENDBRANCH  22  25
ENDBRANCH  20  21
ENDBRANCH   1  20
TORSDOF 6
ENDMDL
MODEL 6
REMARK VINA RESULT:      -7.5      3.758      8.506
REMARK  Name = 
REMARK  8 active torsions:
REMARK  status: ('A' for Active; 'I' for Inactive)
REMARK    1  A    between atoms: C_1  and  C_2
REMARK    2  A    between atoms: C_2  and  C_3
REMARK    3  A    between atoms: C_2  and  O_4
REMARK    4  A    between atoms: C_2  and  C_5
REMARK    5  A    between atoms: C_8  and  C_9
REMARK    6  A    between atoms: C_9  and  C_10
REMARK    7  A    between atoms: C_10  and  N_11
REMARK    8  A    between atoms: C_12  and  C_14
REMARK                            x       y       z     vdW  Elec       q    Type
REMARK                         _______ _______ _______ _____ _____    ______ ____
ROOT
ATOM      1  C   UNL     1       2.900   6.075  18.267  0.00  0.00    +0.000 C 
ATOM      2  C   UNL     1       3.463   5.764  19.691  0.00  0.00    +0.000 C 
ATOM      3  C   UNL     1       3.530   4.264  19.992  0.00  0.00    +0.000 C 
ATOM      4  C   UNL     1       2.177   3.591  19.861  0.00  0.00    +0.000 C 
ATOM      5  F   UNL     1       1.432   3.931  20.952  0.00  0.00    +0.000 F 
ATOM      6  F   UNL     1       2.342   2.245  19.918  0.00  0.00    +0.000 F 
ATOM      7  C   UNL     1       1.382   3.936  18.618  0.00  0.00    +0.000 C 
ATOM      8  C   UNL     1       1.494   5.397  18.174  0.00  0.00    +0.000 C 
ENDROOT
BRANCH   1  12
ATOM      9  C   UNL     1       5.432   4.682  15.046  0.00  0.00    +0.000 A 
ATOM     10  C   UNL     1       5.439   6.030  15.374  0.00  0.00    +0.000 A 
ATOM     11  C   UNL     1       4.752   6.470  16.502  0.00  0.00    +0.000 A 
ATOM     12  C   UNL     1       3.981   5.594  17.268  0.00  0.00    +0.000 A 
ATOM     13  C   UNL     1       4.107   4.248  16.907  0.00  0.00    +0.000 A 
ATOM     14  N   UNL     1       4.823   3.776  15.849  0.00  0.00    +0.000 NA
BRANCH   9  16
ATOM     15  C   UNL     1       7.335   5.113  13.407  0.00  0.00    +0.000 C 
ATOM     16  C   UNL     1       6.152   4.213  13.780  0.00  0.00    +0.000 C 
ATOM     17  C   UNL     1       5.148   4.131  12.627  0.00  0.00    +0.000 C 
BRANCH  16  18
ATOM     18  O   UNL     1       6.684   2.892  13.994  0.00  0.00    +0.000 OA
ATOM     19  H   UNL     1       6.164   2.479  14.704  0.00  0.00    +0.000 HD
ENDBRANCH  16  18
ENDBRANCH   9  16
ENDBRANCH   1  12
BRANCH   1  20
ATOM     20  C   UNL     1       2.655   7.628  18.175  0.00  0.00    +0.000 C 
BRANCH  20  21
ATOM     21  N   UNL     1       1.958   8.177  19.331  0.00  0.00    +0.000 N 
ATOM     22  C   UNL     1       1.118   9.270  19.268  0.00  0.00    +0.000 C 
ATOM     23  O   UNL     1       0.868   9.855  18.217  0.00  0.00    +0.000 OA
ATOM     24  H   UNL     1       2.134   7.745  20.232  0.00  0.00    +0.000 HD
BRANCH  22  25
ATOM     25  C   UNL     1       0.470   9.715  20.543  0.00  0.00    +0.000 A 
ATOM     26  C   UNL     1       0.137   8.691  21.455  0.00  0.00    +0.000 A 
ATOM     27  C   UNL     1      -0.462   8.983  22.681  0.00  0.00    +0.000 A 
ATOM     28  C   UNL     1      -0.735  10.304  23.015  0.00  0.00    +0.000 A 
ATOM     29  C   UNL     1      -0.427  11.331  22.117  0.00  0.00    +0.000 A 
ATOM     30 CL   UNL     1      -0.809  12.945  22.620  0.00  0.00    +0.000 Cl
ATOM     31  C   UNL     1       0.164  11.049  20.871  0.00  0.00    +0.000 A 
ATOM     32 CL   UNL     1       0.445  12.352  19.755  0.00  0.00    +0.000 Cl
ENDBRANCH  22  25
ENDBRANCH  20  21
ENDBRANCH   1  20
TORSDOF 6
ENDMDL
MODEL 7
REMARK VINA RESULT:      -7.5      1.393      1.627
REMARK  Name = 
REMARK  8 active torsions:
REMARK  status: ('A' for Active; 'I' for Inactive)
REMARK    1  A    between atoms: C_1  and  C_2
REMARK    2  A    between atoms: C_2  and  C_3
REMARK    3  A    between atoms: C_2  and  O_4
REMARK    4  A    between atoms: C_2  and  C_5
REMARK    5  A    between atoms: C_8  and  C_9
REMARK    6  A    between atoms: C_9  and  C_10
REMARK    7  A    between atoms: C_10  and  N_11
REMARK    8  A    between atoms: C_12  and  C_14
REMARK                            x       y       z     vdW  Elec       q    Type
REMARK                         _______ _______ _______ _____ _____    ______ ____
ROOT
ATOM      1  C   UNL     1       4.123   4.663  18.595  0.00  0.00    +0.000 C 
ATOM      2  C   UNL     1       3.510   3.899  17.378  0.00  0.00    +0.000 C 
ATOM      3  C   UNL     1       2.332   3.002  17.767  0.00  0.00    +0.000 C 
ATOM      4  C   UNL     1       2.712   1.981  18.823  0.00  0.00    +0.000 C 
ATOM      5  F   UNL     1       3.450   1.007  18.218  0.00  0.00    +0.000 F 
ATOM      6  F   UNL     1       1.587   1.376  19.282  0.00  0.00    +0.000 F 
ATOM      7  C   UNL     1       3.502   2.510  20.003  0.00  0.00    +0.000 C 
ATOM      8  C   UNL     1       4.533   3.584  19.651  0.00  0.00    +0.000 C 
ENDROOT
BRANCH   1  12
ATOM      9  C   UNL     1       1.611   7.804  20.191  0.00  0.00    +0.000 A 
ATOM     10  C   UNL     1       2.143   7.948  18.918  0.00  0.00    +0.000 A 
ATOM     11  C   UNL     1       2.824   6.885  18.329  0.00  0.00    +0.000 A 
ATOM     12  C   UNL     1       3.058   5.700  19.028  0.00  0.00    +0.000 A 
ATOM     13  C   UNL     1       2.411   5.623  20.266  0.00  0.00    +0.000 A 
ATOM     14  N   UNL     1       1.683   6.618  20.843  0.00  0.00    +0.000 NA
BRANCH   9  16
ATOM     15  C   UNL     1       0.941  10.253  19.980  0.00  0.00    +0.000 C 
ATOM     16  C   UNL     1       0.904   8.992  20.848  0.00  0.00    +0.000 C 
ATOM     17  C   UNL     1       1.529   9.258  22.220  0.00  0.00    +0.000 C 
BRANCH  16  18
ATOM     18  O   UNL     1      -0.484   8.667  21.054  0.00  0.00    +0.000 OA
ATOM     19  H   UNL     1      -0.850   9.324  21.671  0.00  0.00    +0.000 HD
ENDBRANCH  16  18
ENDBRANCH   9  16
ENDBRANCH   1  12
BRANCH   1  20
ATOM     20  C   UNL     1       5.456   5.346  18.112  0.00  0.00    +0.000 C 
BRANCH  20  21
ATOM     21  N   UNL     1       5.896   4.900  16.797  0.00  0.00    +0.000 N 
ATOM     22  C   UNL     1       5.878   5.701  15.673  0.00  0.00    +0.000 C 
ATOM     23  O   UNL     1       5.512   6.873  15.699  0.00  0.00    +0.000 OA
ATOM     24  H   UNL     1       6.199   3.937  16.707  0.00  0.00    +0.000 HD
BRANCH  22  25
ATOM     25  C   UNL     1       6.366   5.100  14.391  0.00  0.00    +0.000 A 
ATOM     26  C   UNL     1       7.534   5.675  13.845  0.00  0.00    +0.000 A 
ATOM     27  C   UNL     1       8.090   5.194  12.659  0.00  0.00    +0.000 A 
ATOM     28  C   UNL     1       7.487   4.128  12.002  0.00  0.00    +0.000 A 
ATOM     29  C   UNL     1       6.321   3.556  12.518  0.00  0.00    +0.000 A 
ATOM     30 CL   UNL     1       5.641   2.235  11.626  0.00  0.00    +0.000 Cl
ATOM     31  C   UNL     1       5.743   4.041  13.706  0.00  0.00    +0.000 A 
ATOM     32 CL   UNL     1       4.244   3.353  14.258  0.00  0.00    +0.000 Cl
ENDBRANCH  22  25
ENDBRANCH  20  21
ENDBRANCH   1  20
TORSDOF 6
ENDMDL
MODEL 8
REMARK VINA RESULT:      -7.4      6.083     10.871
REMARK  Name = 
REMARK  8 active torsions:
REMARK  status: ('A' for Active; 'I' for Inactive)
REMARK    1  A    between atoms: C_1  and  C_2
REMARK    2  A    between atoms: C_2  and  C_3
REMARK    3  A    between atoms: C_2  and  O_4
REMARK    4  A    between atoms: C_2  and  C_5
REMARK    5  A    between atoms: C_8  and  C_9
REMARK    6  A    between atoms: C_9  and  C_10
REMARK    7  A    between atoms: C_10  and  N_11
REMARK    8  A    between atoms: C_12  and  C_14
REMARK                            x       y       z     vdW  Elec       q    Type
REMARK                         _______ _______ _______ _____ _____    ______ ____
ROOT
ATOM      1  C   UNL     1      -0.197  10.949  18.932  0.00  0.00    +0.000 C 
ATOM      2  C   UNL     1       0.454  12.246  18.355  0.00  0.00    +0.000 C 
ATOM      3  C   UNL     1       1.502  12.856  19.290  0.00  0.00    +0.000 C 
ATOM      4  C   UNL     1       0.931  13.181  20.658  0.00  0.00    +0.000 C 
ATOM      5  F   UNL     1       0.165  14.303  20.536  0.00  0.00    +0.000 F 
ATOM      6  F   UNL     1       1.946  13.502  21.499  0.00  0.00    +0.000 F 
ATOM      7  C   UNL     1       0.086  12.098  21.299  0.00  0.00    +0.000 C 
ATOM      8  C   UNL     1      -0.804  11.322  20.324  0.00  0.00    +0.000 C 
ENDROOT
BRANCH   1  12
ATOM      9  C   UNL     1       2.426   7.509  18.806  0.00  0.00    +0.000 A 
ATOM     10  C   UNL     1       2.328   8.323  17.687  0.00  0.00    +0.000 A 
ATOM     11  C   UNL     1       1.612   9.515  17.760  0.00  0.00    +0.000 A 
ATOM     12  C   UNL     1       0.915   9.871  18.916  0.00  0.00    +0.000 A 
ATOM     13  C   UNL     1       1.146   9.030  20.010  0.00  0.00    +0.000 A 
ATOM     14  N   UNL     1       1.892   7.892  19.991  0.00  0.00    +0.000 NA
BRANCH   9  16
ATOM     15  C   UNL     1       4.493   6.304  17.931  0.00  0.00    +0.000 C 
ATOM     16  C   UNL     1       3.177   6.179  18.704  0.00  0.00    +0.000 C 
ATOM     17  C   UNL     1       2.265   5.131  18.060  0.00  0.00    +0.000 C 
BRANCH  16  18
ATOM     18  O   UNL     1       3.510   5.716  20.027  0.00  0.00    +0.000 OA
ATOM     19  H   UNL     1       3.280   6.425  20.651  0.00  0.00    +0.000 HD
ENDBRANCH  16  18
ENDBRANCH   9  16
ENDBRANCH   1  12
BRANCH   1  20
ATOM     20  C   UNL     1      -1.409  10.565  18.003  0.00  0.00    +0.000 C 
BRANCH  20  21
ATOM     21  N   UNL     1      -2.559  11.447  18.153  0.00  0.00    +0.000 N 
ATOM     22  C   UNL     1      -3.867  11.024  18.029  0.00  0.00    +0.000 C 
ATOM     23  O   UNL     1      -4.168   9.854  17.808  0.00  0.00    +0.000 OA
ATOM     24  H   UNL     1      -2.376  12.430  18.323  0.00  0.00    +0.000 HD
BRANCH  22  25
ATOM     25  C   UNL     1      -4.943  12.050  18.213  0.00  0.00    +0.000 A 
ATOM     26  C   UNL     1      -5.731  12.329  17.076  0.00  0.00    +0.000 A 
ATOM     27  C   UNL     1      -6.770  13.260  17.128  0.00  0.00    +0.000 A 
ATOM     28  C   UNL     1      -7.037  13.924  18.318  0.00  0.00    +0.000 A 
ATOM     29  C   UNL     1      -6.257  13.673  19.451  0.00  0.00    +0.000 A 
ATOM     30 CL   UNL     1      -6.665  14.553  20.887  0.00  0.00    +0.000 Cl
ATOM     31  C   UNL     1      -5.198  12.747  19.408  0.00  0.00    +0.000 A 
ATOM     32 CL   UNL     1      -4.202  12.537  20.818  0.00  0.00    +0.000 Cl
ENDBRANCH  22  25
ENDBRANCH  20  21
ENDBRANCH   1  20
TORSDOF 6
ENDMDL
MODEL 9
REMARK VINA RESULT:      -7.4      3.938      7.749
REMARK  Name = 
REMARK  8 active torsions:
REMARK  status: ('A' for Active; 'I' for Inactive)
REMARK    1  A    between atoms: C_1  and  C_2
REMARK    2  A    between atoms: C_2  and  C_3
REMARK    3  A    between atoms: C_2  and  O_4
REMARK    4  A    between atoms: C_2  and  C_5
REMARK    5  A    between atoms: C_8  and  C_9
REMARK    6  A    between atoms: C_9  and  C_10
REMARK    7  A    between atoms: C_10  and  N_11
REMARK    8  A    between atoms: C_12  and  C_14
REMARK                            x       y       z     vdW  Elec       q    Type
REMARK                         _______ _______ _______ _____ _____    ______ ____
ROOT
ATOM      1  C   UNL     1       2.191   4.958  19.970  0.00  0.00    +0.000 C 
ATOM      2  C   UNL     1       2.600   3.601  20.627  0.00  0.00    +0.000 C 
ATOM      3  C   UNL     1       2.961   2.525  19.599  0.00  0.00    +0.000 C 
ATOM      4  C   UNL     1       1.827   2.256  18.628  0.00  0.00    +0.000 C 
ATOM      5  F   UNL     1       0.877   1.529  19.283  0.00  0.00    +0.000 F 
ATOM      6  F   UNL     1       2.282   1.469  17.620  0.00  0.00    +0.000 F 
ATOM      7  C   UNL     1       1.160   3.480  18.032  0.00  0.00    +0.000 C 
ATOM      8  C   UNL     1       1.002   4.655  19.000  0.00  0.00    +0.000 C 
ENDROOT
BRANCH   1  12
ATOM      9  C   UNL     1       5.855   5.990  17.911  0.00  0.00    +0.000 A 
ATOM     10  C   UNL     1       4.652   6.493  17.438  0.00  0.00    +0.000 A 
ATOM     11  C   UNL     1       3.485   6.299  18.173  0.00  0.00    +0.000 A 
ATOM     12  C   UNL     1       3.483   5.534  19.340  0.00  0.00    +0.000 A 
ATOM     13  C   UNL     1       4.755   5.145  19.776  0.00  0.00    +0.000 A 
ATOM     14  N   UNL     1       5.923   5.373  19.115  0.00  0.00    +0.000 NA
BRANCH   9  16
ATOM     15  C   UNL     1       7.766   7.546  17.264  0.00  0.00    +0.000 C 
ATOM     16  C   UNL     1       7.123   6.169  17.074  0.00  0.00    +0.000 C 
ATOM     17  C   UNL     1       6.796   5.920  15.600  0.00  0.00    +0.000 C 
BRANCH  16  18
ATOM     18  O   UNL     1       8.102   5.191  17.477  0.00  0.00    +0.000 OA
ATOM     19  H   UNL     1       7.689   4.314  17.402  0.00  0.00    +0.000 HD
ENDBRANCH  16  18
ENDBRANCH   9  16
ENDBRANCH   1  12
BRANCH   1  20
ATOM     20  C   UNL     1       1.618   5.888  21.104  0.00  0.00    +0.000 C 
BRANCH  20  21
ATOM     21  N   UNL     1       1.594   7.299  20.743  0.00  0.00    +0.000 N 
ATOM     22  C   UNL     1       0.516   8.129  20.977  0.00  0.00    +0.000 C 
ATOM     23  O   UNL     1      -0.508   7.746  21.537  0.00  0.00    +0.000 OA
ATOM     24  H   UNL     1       2.406   7.674  20.265  0.00  0.00    +0.000 HD
BRANCH  22  25
ATOM     25  C   UNL     1       0.644   9.559  20.552  0.00  0.00    +0.000 A 
ATOM     26  C   UNL     1       1.212   9.776  19.278  0.00  0.00    +0.000 A 
ATOM     27  C   UNL     1       1.374  11.065  18.768  0.00  0.00    +0.000 A 
ATOM     28  C   UNL     1       0.967  12.158  19.525  0.00  0.00    +0.000 A 
ATOM     29  C   UNL     1       0.417  11.964  20.795  0.00  0.00    +0.000 A 
ATOM     30 CL   UNL     1      -0.055  13.388  21.664  0.00  0.00    +0.000 Cl
ATOM     31  C   UNL     1       0.262  10.670  21.326  0.00  0.00    +0.000 A 
ATOM     32 CL   UNL     1      -0.344  10.489  22.946  0.00  0.00    +0.000 Cl
ENDBRANCH  22  25
ENDBRANCH  20  21
ENDBRANCH   1  20
TORSDOF 6
ENDMDL
