MODEL 1
REMARK VINA RESULT:      -7.7      0.000      0.000
REMARK  Name = 
REMARK  4 active torsions:
REMARK  status: ('A' for Active; 'I' for Inactive)
REMARK    1  A    between atoms: C_1  and  N_2
REMARK    2  A    between atoms: N_14  and  C_15
REMARK    3  A    between atoms: C_15  and  C_16
REMARK    4  A    between atoms: N_22  and  C_23
REMARK                            x       y       z     vdW  Elec       q    Type
REMARK                         _______ _______ _______ _____ _____    ______ ____
ROOT
ATOM      1  C   UNL     1      -0.275  10.856  22.005  0.00  0.00    +0.000 C 
ATOM      2  N   UNL     1       0.416  10.129  20.956  0.00  0.00    +0.000 N 
ATOM      3  C   UNL     1       0.613   8.754  21.126  0.00  0.00    +0.000 A 
ATOM      4  O   UNL     1       0.179   8.120  22.083  0.00  0.00    +0.000 OA
ATOM      5  C   UNL     1       1.389   8.169  20.086  0.00  0.00    +0.000 A 
ATOM      6  C   UNL     1       1.864   8.887  19.029  0.00  0.00    +0.000 A 
ATOM      7  N   UNL     1       2.650   8.138  18.213  0.00  0.00    +0.000 NA
ATOM      8  C   UNL     1       2.645   6.931  18.737  0.00  0.00    +0.000 A 
ATOM      9  N   UNL     1       1.871   6.899  19.884  0.00  0.00    +0.000 N 
ATOM     10  C   UNL     1       1.742   5.767  20.775  0.00  0.00    +0.000 C 
ATOM     11  C   UNL     1       1.182   4.520  20.100  0.00  0.00    +0.000 C 
ATOM     12  C   UNL     1       2.213   3.818  19.215  0.00  0.00    +0.000 C 
ATOM     13  C   UNL     1       2.610   4.618  17.975  0.00  0.00    +0.000 C 
ATOM     14  N   UNL     1       3.326   5.846  18.295  0.00  0.00    +0.000 N 
ATOM     15  N   UNL     1       1.591  10.225  18.878  0.00  0.00    +0.000 N 
ATOM     16  C   UNL     1       2.118  10.990  17.767  0.00  0.00    +0.000 C 
ATOM     17  C   UNL     1       0.862  10.890  19.861  0.00  0.00    +0.000 A 
ATOM     18  O   UNL     1       0.631  12.101  19.787  0.00  0.00    +0.000 OA
ENDROOT
BRANCH  14  19
ATOM     19  C   UNL     1       4.784   5.804  18.455  0.00  0.00    +0.000 C 
BRANCH  19  20
ATOM     20  C   UNL     1       5.549   6.604  17.372  0.00  0.00    +0.000 C 
ATOM     21  C   UNL     1       7.075   6.414  17.407  0.00  0.00    +0.000 C 
ATOM     22  C   UNL     1       7.500   4.983  17.083  0.00  0.00    +0.000 C 
ATOM     23  C   UNL     1       6.927   4.491  15.755  0.00  0.00    +0.000 C 
ATOM     24  C   UNL     1       5.436   4.778  15.587  0.00  0.00    +0.000 C 
ATOM     25  C   UNL     1       5.069   6.215  15.957  0.00  0.00    +0.000 C 
ENDBRANCH  19  20
ENDBRANCH  14  19
TORSDOF 2
ENDMDL
MODEL 2
REMARK VINA RESULT:      -7.5      0.788      1.498
REMARK  Name = 
REMARK  4 active torsions:
REMARK  status: ('A' for Active; 'I' for Inactive)
REMARK    1  A    between atoms: C_1  and  N_2
REMARK    2  A    between atoms: N_14  and  C_15
REMARK    3  A    between atoms: C_15  and  C_16
REMARK    4  A    between atoms: N_22  and  C_23
REMARK                            x       y       z     vdW  Elec       q    Type
REMARK                         _______ _______ _______ _____ _____    ______ ____
ROOT
ATOM      1  C   UNL     1      -0.438  10.688  21.827  0.00  0.00    +0.000 C 
ATOM      2  N   UNL     1       0.323   9.899  20.876  0.00  0.00    +0.000 N 
ATOM      3  C   UNL     1       0.486   8.533  21.131  0.00  0.00    +0.000 A 
ATOM      4  O   UNL     1      -0.032   7.955  22.082  0.00  0.00    +0.000 OA
ATOM      5  C   UNL     1       1.332   7.886  20.188  0.00  0.00    +0.000 A 
ATOM      6  C   UNL     1       1.900   8.542  19.137  0.00  0.00    +0.000 A 
ATOM      7  N   UNL     1       2.736   7.742  18.426  0.00  0.00    +0.000 NA
ATOM      8  C   UNL     1       2.673   6.565  19.009  0.00  0.00    +0.000 A 
ATOM      9  N   UNL     1       1.809   6.602  20.091  0.00  0.00    +0.000 N 
ATOM     10  C   UNL     1       1.594   5.520  21.027  0.00  0.00    +0.000 C 
ATOM     11  C   UNL     1       1.071   4.245  20.374  0.00  0.00    +0.000 C 
ATOM     12  C   UNL     1       2.157   3.486  19.611  0.00  0.00    +0.000 C 
ATOM     13  C   UNL     1       2.663   4.215  18.367  0.00  0.00    +0.000 C 
ATOM     14  N   UNL     1       3.370   5.451  18.679  0.00  0.00    +0.000 N 
ATOM     15  N   UNL     1       1.660   9.873  18.895  0.00  0.00    +0.000 N 
ATOM     16  C   UNL     1       2.284  10.573  17.792  0.00  0.00    +0.000 C 
ATOM     17  C   UNL     1       0.865  10.596  19.782  0.00  0.00    +0.000 A 
ATOM     18  O   UNL     1       0.659  11.804  19.627  0.00  0.00    +0.000 OA
ENDROOT
BRANCH  14  19
ATOM     19  C   UNL     1       4.810   5.402  18.957  0.00  0.00    +0.000 C 
BRANCH  19  20
ATOM     20  C   UNL     1       5.672   5.102  17.706  0.00  0.00    +0.000 C 
ATOM     21  C   UNL     1       5.597   6.183  16.614  0.00  0.00    +0.000 C 
ATOM     22  C   UNL     1       6.177   7.521  17.067  0.00  0.00    +0.000 C 
ATOM     23  C   UNL     1       7.604   7.389  17.597  0.00  0.00    +0.000 C 
ATOM     24  C   UNL     1       7.788   6.236  18.583  0.00  0.00    +0.000 C 
ATOM     25  C   UNL     1       7.158   4.935  18.088  0.00  0.00    +0.000 C 
ENDBRANCH  19  20
ENDBRANCH  14  19
TORSDOF 2
ENDMDL
MODEL 3
REMARK VINA RESULT:      -7.1      2.157      4.194
REMARK  Name = 
REMARK  4 active torsions:
REMARK  status: ('A' for Active; 'I' for Inactive)
REMARK    1  A    between atoms: C_1  and  N_2
REMARK    2  A    between atoms: N_14  and  C_15
REMARK    3  A    between atoms: C_15  and  C_16
REMARK    4  A    between atoms: N_22  and  C_23
REMARK                            x       y       z     vdW  Elec       q    Type
REMARK                         _______ _______ _______ _____ _____    ______ ____
ROOT
ATOM      1  C   UNL     1      -0.839  12.842  20.221  0.00  0.00    +0.000 C 
ATOM      2  N   UNL     1      -0.183  11.587  20.537  0.00  0.00    +0.000 N 
ATOM      3  C   UNL     1       0.489  10.915  19.510  0.00  0.00    +0.000 A 
ATOM      4  O   UNL     1       0.607  11.362  18.373  0.00  0.00    +0.000 OA
ATOM      5  C   UNL     1       1.003   9.651  19.913  0.00  0.00    +0.000 A 
ATOM      6  C   UNL     1       0.863   9.169  21.180  0.00  0.00    +0.000 A 
ATOM      7  N   UNL     1       1.354   7.909  21.306  0.00  0.00    +0.000 NA
ATOM      8  C   UNL     1       1.836   7.603  20.121  0.00  0.00    +0.000 A 
ATOM      9  N   UNL     1       1.655   8.651  19.234  0.00  0.00    +0.000 N 
ATOM     10  C   UNL     1       1.958   8.612  17.820  0.00  0.00    +0.000 C 
ATOM     11  C   UNL     1       3.424   8.323  17.518  0.00  0.00    +0.000 C 
ATOM     12  C   UNL     1       3.789   6.853  17.727  0.00  0.00    +0.000 C 
ATOM     13  C   UNL     1       3.740   6.404  19.187  0.00  0.00    +0.000 C 
ATOM     14  N   UNL     1       2.393   6.427  19.745  0.00  0.00    +0.000 N 
ATOM     15  N   UNL     1       0.245   9.896  22.170  0.00  0.00    +0.000 N 
ATOM     16  C   UNL     1       0.077   9.371  23.508  0.00  0.00    +0.000 C 
ATOM     17  C   UNL     1      -0.314  11.134  21.861  0.00  0.00    +0.000 A 
ATOM     18  O   UNL     1      -0.915  11.800  22.710  0.00  0.00    +0.000 OA
ENDROOT
BRANCH  14  19
ATOM     19  C   UNL     1       1.535   5.247  19.591  0.00  0.00    +0.000 C 
BRANCH  19  20
ATOM     20  C   UNL     1       1.976   4.043  20.459  0.00  0.00    +0.000 C 
ATOM     21  C   UNL     1       0.989   2.863  20.450  0.00  0.00    +0.000 C 
ATOM     22  C   UNL     1       0.858   2.213  19.074  0.00  0.00    +0.000 C 
ATOM     23  C   UNL     1       2.208   1.789  18.499  0.00  0.00    +0.000 C 
ATOM     24  C   UNL     1       3.286   2.866  18.606  0.00  0.00    +0.000 C 
ATOM     25  C   UNL     1       3.345   3.502  19.994  0.00  0.00    +0.000 C 
ENDBRANCH  19  20
ENDBRANCH  14  19
TORSDOF 2
ENDMDL
MODEL 4
REMARK VINA RESULT:      -6.8      2.884      6.846
REMARK  Name = 
REMARK  4 active torsions:
REMARK  status: ('A' for Active; 'I' for Inactive)
REMARK    1  A    between atoms: C_1  and  N_2
REMARK    2  A    between atoms: N_14  and  C_15
REMARK    3  A    between atoms: C_15  and  C_16
REMARK    4  A    between atoms: N_22  and  C_23
REMARK                            x       y       z     vdW  Elec       q    Type
REMARK                         _______ _______ _______ _____ _____    ______ ____
ROOT
ATOM      1  C   UNL     1       4.149   3.280  19.552  0.00  0.00    +0.000 C 
ATOM      2  N   UNL     1       3.835   4.639  19.151  0.00  0.00    +0.000 N 
ATOM      3  C   UNL     1       2.953   5.376  19.949  0.00  0.00    +0.000 A 
ATOM      4  O   UNL     1       2.482   4.958  21.002  0.00  0.00    +0.000 OA
ATOM      5  C   UNL     1       2.642   6.653  19.403  0.00  0.00    +0.000 A 
ATOM      6  C   UNL     1       3.174   7.103  18.232  0.00  0.00    +0.000 A 
ATOM      7  N   UNL     1       2.664   8.308  17.867  0.00  0.00    +0.000 NA
ATOM      8  C   UNL     1       1.829   8.638  18.828  0.00  0.00    +0.000 A 
ATOM      9  N   UNL     1       1.792   7.655  19.803  0.00  0.00    +0.000 N 
ATOM     10  C   UNL     1       0.897   7.637  20.939  0.00  0.00    +0.000 C 
ATOM     11  C   UNL     1       1.048   8.846  21.855  0.00  0.00    +0.000 C 
ATOM     12  C   UNL     1       0.419  10.110  21.268  0.00  0.00    +0.000 C 
ATOM     13  C   UNL     1       1.139  10.642  20.029  0.00  0.00    +0.000 C 
ATOM     14  N   UNL     1       1.045   9.742  18.886  0.00  0.00    +0.000 N 
ATOM     15  N   UNL     1       4.084   6.363  17.515  0.00  0.00    +0.000 N 
ATOM     16  C   UNL     1       4.628   6.834  16.259  0.00  0.00    +0.000 C 
ATOM     17  C   UNL     1       4.428   5.088  17.958  0.00  0.00    +0.000 A 
ATOM     18  O   UNL     1       5.208   4.373  17.322  0.00  0.00    +0.000 OA
ENDROOT
BRANCH  14  19
ATOM     19  C   UNL     1      -0.106   9.849  17.983  0.00  0.00    +0.000 C 
BRANCH  19  20
ATOM     20  C   UNL     1      -1.148  10.904  18.430  0.00  0.00    +0.000 C 
ATOM     21  C   UNL     1      -1.568  11.885  17.323  0.00  0.00    +0.000 C 
ATOM     22  C   UNL     1      -2.305  11.200  16.174  0.00  0.00    +0.000 C 
ATOM     23  C   UNL     1      -3.505  10.385  16.655  0.00  0.00    +0.000 C 
ATOM     24  C   UNL     1      -3.197   9.489  17.853  0.00  0.00    +0.000 C 
ATOM     25  C   UNL     1      -2.431  10.223  18.953  0.00  0.00    +0.000 C 
ENDBRANCH  19  20
ENDBRANCH  14  19
TORSDOF 2
ENDMDL
MODEL 5
REMARK VINA RESULT:      -6.7      1.987      3.916
REMARK  Name = 
REMARK  4 active torsions:
REMARK  status: ('A' for Active; 'I' for Inactive)
REMARK    1  A    between atoms: C_1  and  N_2
REMARK    2  A    between atoms: N_14  and  C_15
REMARK    3  A    between atoms: C_15  and  C_16
REMARK    4  A    between atoms: N_22  and  C_23
REMARK                            x       y       z     vdW  Elec       q    Type
REMARK                         _______ _______ _______ _____ _____    ______ ____
ROOT
ATOM      1  C   UNL     1      -1.334  11.741  19.231  0.00  0.00    +0.000 C 
ATOM      2  N   UNL     1      -0.436  10.737  19.771  0.00  0.00    +0.000 N 
ATOM      3  C   UNL     1       0.340   9.993  18.876  0.00  0.00    +0.000 A 
ATOM      4  O   UNL     1       0.348  10.188  17.664  0.00  0.00    +0.000 OA
ATOM      5  C   UNL     1       1.102   8.973  19.510  0.00  0.00    +0.000 A 
ATOM      6  C   UNL     1       1.083   8.770  20.858  0.00  0.00    +0.000 A 
ATOM      7  N   UNL     1       1.817   7.688  21.224  0.00  0.00    +0.000 NA
ATOM      8  C   UNL     1       2.331   7.222  20.106  0.00  0.00    +0.000 A 
ATOM      9  N   UNL     1       1.930   7.990  19.026  0.00  0.00    +0.000 N 
ATOM     10  C   UNL     1       2.211   7.694  17.638  0.00  0.00    +0.000 C 
ATOM     11  C   UNL     1       3.700   7.630  17.318  0.00  0.00    +0.000 C 
ATOM     12  C   UNL     1       4.354   6.341  17.817  0.00  0.00    +0.000 C 
ATOM     13  C   UNL     1       4.420   6.231  19.340  0.00  0.00    +0.000 C 
ATOM     14  N   UNL     1       3.106   6.120  19.960  0.00  0.00    +0.000 N 
ATOM     15  N   UNL     1       0.349   9.568  21.703  0.00  0.00    +0.000 N 
ATOM     16  C   UNL     1       0.311   9.335  23.131  0.00  0.00    +0.000 C 
ATOM     17  C   UNL     1      -0.451  10.576  21.168  0.00  0.00    +0.000 A 
ATOM     18  O   UNL     1      -1.159  11.288  21.887  0.00  0.00    +0.000 OA
ENDROOT
BRANCH  14  19
ATOM     19  C   UNL     1       2.498   4.794  20.118  0.00  0.00    +0.000 C 
BRANCH  19  20
ATOM     20  C   UNL     1       1.379   4.500  19.087  0.00  0.00    +0.000 C 
ATOM     21  C   UNL     1       1.879   4.345  17.641  0.00  0.00    +0.000 C 
ATOM     22  C   UNL     1       2.788   3.131  17.456  0.00  0.00    +0.000 C 
ATOM     23  C   UNL     1       2.138   1.836  17.943  0.00  0.00    +0.000 C 
ATOM     24  C   UNL     1       1.489   1.957  19.321  0.00  0.00    +0.000 C 
ATOM     25  C   UNL     1       0.620   3.207  19.454  0.00  0.00    +0.000 C 
ENDBRANCH  19  20
ENDBRANCH  14  19
TORSDOF 2
ENDMDL
MODEL 6
REMARK VINA RESULT:      -6.7      3.290      6.756
REMARK  Name = 
REMARK  4 active torsions:
REMARK  status: ('A' for Active; 'I' for Inactive)
REMARK    1  A    between atoms: C_1  and  N_2
REMARK    2  A    between atoms: N_14  and  C_15
REMARK    3  A    between atoms: C_15  and  C_16
REMARK    4  A    between atoms: N_22  and  C_23
REMARK                            x       y       z     vdW  Elec       q    Type
REMARK                         _______ _______ _______ _____ _____    ______ ____
ROOT
ATOM      1  C   UNL     1       6.201   3.778  14.507  0.00  0.00    +0.000 C 
ATOM      2  N   UNL     1       5.761   4.395  15.745  0.00  0.00    +0.000 N 
ATOM      3  C   UNL     1       4.653   3.847  16.399  0.00  0.00    +0.000 A 
ATOM      4  O   UNL     1       4.073   2.835  16.017  0.00  0.00    +0.000 OA
ATOM      5  C   UNL     1       4.254   4.594  17.543  0.00  0.00    +0.000 A 
ATOM      6  C   UNL     1       4.909   5.715  17.955  0.00  0.00    +0.000 A 
ATOM      7  N   UNL     1       4.296   6.307  19.012  0.00  0.00    +0.000 NA
ATOM      8  C   UNL     1       3.265   5.540  19.292  0.00  0.00    +0.000 A 
ATOM      9  N   UNL     1       3.206   4.464  18.422  0.00  0.00    +0.000 N 
ATOM     10  C   UNL     1       2.139   3.489  18.367  0.00  0.00    +0.000 C 
ATOM     11  C   UNL     1       1.943   2.725  19.671  0.00  0.00    +0.000 C 
ATOM     12  C   UNL     1       1.244   3.560  20.744  0.00  0.00    +0.000 C 
ATOM     13  C   UNL     1       2.082   4.729  21.261  0.00  0.00    +0.000 C 
ATOM     14  N   UNL     1       2.327   5.747  20.247  0.00  0.00    +0.000 N 
ATOM     15  N   UNL     1       6.031   6.180  17.312  0.00  0.00    +0.000 N 
ATOM     16  C   UNL     1       6.710   7.385  17.737  0.00  0.00    +0.000 C 
ATOM     17  C   UNL     1       6.480   5.528  16.165  0.00  0.00    +0.000 A 
ATOM     18  O   UNL     1       7.458   5.937  15.531  0.00  0.00    +0.000 OA
ENDROOT
BRANCH  14  19
ATOM     19  C   UNL     1       1.349   6.826  20.065  0.00  0.00    +0.000 C 
BRANCH  19  20
ATOM     20  C   UNL     1       1.888   8.223  20.460  0.00  0.00    +0.000 C 
ATOM     21  C   UNL     1       1.666   9.309  19.394  0.00  0.00    +0.000 C 
ATOM     22  C   UNL     1       0.187   9.611  19.156  0.00  0.00    +0.000 C 
ATOM     23  C   UNL     1      -0.550   9.965  20.447  0.00  0.00    +0.000 C 
ATOM     24  C   UNL     1      -0.261   9.006  21.601  0.00  0.00    +0.000 C 
ATOM     25  C   UNL     1       1.230   8.718  21.766  0.00  0.00    +0.000 C 
ENDBRANCH  19  20
ENDBRANCH  14  19
TORSDOF 2
ENDMDL
MODEL 7
REMARK VINA RESULT:      -6.7      1.582      4.309
REMARK  Name = 
REMARK  4 active torsions:
REMARK  status: ('A' for Active; 'I' for Inactive)
REMARK    1  A    between atoms: C_1  and  N_2
REMARK    2  A    between atoms: N_14  and  C_15
REMARK    3  A    between atoms: C_15  and  C_16
REMARK    4  A    between atoms: N_22  and  C_23
REMARK                            x       y       z     vdW  Elec       q    Type
REMARK                         _______ _______ _______ _____ _____    ______ ____
ROOT
ATOM      1  C   UNL     1       0.607  11.582  18.595  0.00  0.00    +0.000 C 
ATOM      2  N   UNL     1       1.107  10.283  19.006  0.00  0.00    +0.000 N 
ATOM      3  C   UNL     1       2.052   9.651  18.192  0.00  0.00    +0.000 A 
ATOM      4  O   UNL     1       2.528  10.163  17.182  0.00  0.00    +0.000 OA
ATOM      5  C   UNL     1       2.391   8.344  18.640  0.00  0.00    +0.000 A 
ATOM      6  C   UNL     1       1.854   7.789  19.763  0.00  0.00    +0.000 A 
ATOM      7  N   UNL     1       2.256   6.504  19.943  0.00  0.00    +0.000 NA
ATOM      8  C   UNL     1       3.078   6.254  18.946  0.00  0.00    +0.000 A 
ATOM      9  N   UNL     1       3.202   7.363  18.126  0.00  0.00    +0.000 N 
ATOM     10  C   UNL     1       3.930   7.401  16.876  0.00  0.00    +0.000 C 
ATOM     11  C   UNL     1       5.411   7.071  17.023  0.00  0.00    +0.000 C 
ATOM     12  C   UNL     1       5.664   5.577  17.226  0.00  0.00    +0.000 C 
ATOM     13  C   UNL     1       5.154   5.039  18.562  0.00  0.00    +0.000 C 
ATOM     14  N   UNL     1       3.701   5.082  18.676  0.00  0.00    +0.000 N 
ATOM     15  N   UNL     1       0.973   8.476  20.564  0.00  0.00    +0.000 N 
ATOM     16  C   UNL     1       0.385   7.875  21.742  0.00  0.00    +0.000 C 
ATOM     17  C   UNL     1       0.562   9.753  20.189  0.00  0.00    +0.000 A 
ATOM     18  O   UNL     1      -0.261  10.388  20.855  0.00  0.00    +0.000 OA
ENDROOT
BRANCH  14  19
ATOM     19  C   UNL     1       2.911   3.951  18.179  0.00  0.00    +0.000 C 
BRANCH  19  20
ATOM     20  C   UNL     1       3.140   2.639  18.970  0.00  0.00    +0.000 C 
ATOM     21  C   UNL     1       3.559   2.851  20.435  0.00  0.00    +0.000 C 
ATOM     22  C   UNL     1       2.469   3.522  21.270  0.00  0.00    +0.000 C 
ATOM     23  C   UNL     1       1.136   2.779  21.193  0.00  0.00    +0.000 C 
ATOM     24  C   UNL     1       0.724   2.405  19.770  0.00  0.00    +0.000 C 
ATOM     25  C   UNL     1       1.865   1.770  18.976  0.00  0.00    +0.000 C 
ENDBRANCH  19  20
ENDBRANCH  14  19
TORSDOF 2
ENDMDL
MODEL 8
REMARK VINA RESULT:      -6.6      1.206      1.618
REMARK  Name = 
REMARK  4 active torsions:
REMARK  status: ('A' for Active; 'I' for Inactive)
REMARK    1  A    between atoms: C_1  and  N_2
REMARK    2  A    between atoms: N_14  and  C_15
REMARK    3  A    between atoms: C_15  and  C_16
REMARK    4  A    between atoms: N_22  and  C_23
REMARK                            x       y       z     vdW  Elec       q    Type
REMARK                         _______ _______ _______ _____ _____    ______ ____
ROOT
ATOM      1  C   UNL     1      -0.783  11.312  22.692  0.00  0.00    +0.000 C 
ATOM      2  N   UNL     1      -0.160  10.707  21.529  0.00  0.00    +0.000 N 
ATOM      3  C   UNL     1       0.234   9.367  21.613  0.00  0.00    +0.000 A 
ATOM      4  O   UNL     1       0.025   8.660  22.595  0.00  0.00    +0.000 OA
ATOM      5  C   UNL     1       0.923   8.914  20.454  0.00  0.00    +0.000 A 
ATOM      6  C   UNL     1       1.147   9.712  19.372  0.00  0.00    +0.000 A 
ATOM      7  N   UNL     1       1.899   9.092  18.425  0.00  0.00    +0.000 NA
ATOM      8  C   UNL     1       2.124   7.885  18.895  0.00  0.00    +0.000 A 
ATOM      9  N   UNL     1       1.530   7.724  20.136  0.00  0.00    +0.000 N 
ATOM     10  C   UNL     1       1.676   6.565  20.989  0.00  0.00    +0.000 C 
ATOM     11  C   UNL     1       1.191   5.270  20.347  0.00  0.00    +0.000 C 
ATOM     12  C   UNL     1       2.166   4.732  19.300  0.00  0.00    +0.000 C 
ATOM     13  C   UNL     1       2.278   5.605  18.051  0.00  0.00    +0.000 C 
ATOM     14  N   UNL     1       2.869   6.910  18.319  0.00  0.00    +0.000 N 
ATOM     15  N   UNL     1       0.686  11.005  19.314  0.00  0.00    +0.000 N 
ATOM     16  C   UNL     1       0.948  11.858  18.174  0.00  0.00    +0.000 C 
ATOM     17  C   UNL     1       0.025  11.545  20.415  0.00  0.00    +0.000 A 
ATOM     18  O   UNL     1      -0.368  12.716  20.423  0.00  0.00    +0.000 OA
ENDROOT
BRANCH  14  19
ATOM     19  C   UNL     1       4.327   7.058  18.275  0.00  0.00    +0.000 C 
BRANCH  19  20
ATOM     20  C   UNL     1       5.046   5.895  17.547  0.00  0.00    +0.000 C 
ATOM     21  C   UNL     1       6.195   6.341  16.627  0.00  0.00    +0.000 C 
ATOM     22  C   UNL     1       7.352   6.980  17.393  0.00  0.00    +0.000 C 
ATOM     23  C   UNL     1       7.877   6.082  18.512  0.00  0.00    +0.000 C 
ATOM     24  C   UNL     1       6.775   5.482  19.384  0.00  0.00    +0.000 C 
ATOM     25  C   UNL     1       5.632   4.889  18.561  0.00  0.00    +0.000 C 
ENDBRANCH  19  20
ENDBRANCH  14  19
TORSDOF 2
ENDMDL
MODEL 9
REMARK VINA RESULT:      -6.5      3.220      6.867
REMARK  Name = 
REMARK  4 active torsions:
REMARK  status: ('A' for Active; 'I' for Inactive)
REMARK    1  A    between atoms: C_1  and  N_2
REMARK    2  A    between atoms: N_14  and  C_15
REMARK    3  A    between atoms: C_15  and  C_16
REMARK    4  A    between atoms: N_22  and  C_23
REMARK                            x       y       z     vdW  Elec       q    Type
REMARK                         _______ _______ _______ _____ _____    ______ ____
ROOT
ATOM      1  C   UNL     1       6.019   4.010  14.293  0.00  0.00    +0.000 C 
ATOM      2  N   UNL     1       5.686   4.586  15.582  0.00  0.00    +0.000 N 
ATOM      3  C   UNL     1       4.464   4.237  16.166  0.00  0.00    +0.000 A 
ATOM      4  O   UNL     1       3.687   3.422  15.677  0.00  0.00    +0.000 OA
ATOM      5  C   UNL     1       4.202   4.940  17.376  0.00  0.00    +0.000 A 
ATOM      6  C   UNL     1       5.074   5.842  17.907  0.00  0.00    +0.000 A 
ATOM      7  N   UNL     1       4.573   6.450  19.012  0.00  0.00    +0.000 NA
ATOM      8  C   UNL     1       3.390   5.907  19.202  0.00  0.00    +0.000 A 
ATOM      9  N   UNL     1       3.124   4.962  18.226  0.00  0.00    +0.000 N 
ATOM     10  C   UNL     1       1.870   4.259  18.061  0.00  0.00    +0.000 C 
ATOM     11  C   UNL     1       1.468   3.434  19.279  0.00  0.00    +0.000 C 
ATOM     12  C   UNL     1       0.937   4.296  20.424  0.00  0.00    +0.000 C 
ATOM     13  C   UNL     1       1.994   5.193  21.066  0.00  0.00    +0.000 C 
ATOM     14  N   UNL     1       2.490   6.225  20.164  0.00  0.00    +0.000 N 
ATOM     15  N   UNL     1       6.292   6.105  17.325  0.00  0.00    +0.000 N 
ATOM     16  C   UNL     1       7.205   7.082  17.878  0.00  0.00    +0.000 C 
ATOM     17  C   UNL     1       6.623   5.485  16.123  0.00  0.00    +0.000 A 
ATOM     18  O   UNL     1       7.687   5.725  15.544  0.00  0.00    +0.000 OA
ENDROOT
BRANCH  14  19
ATOM     19  C   UNL     1       1.780   7.506  20.083  0.00  0.00    +0.000 C 
BRANCH  19  20
ATOM     20  C   UNL     1       1.040   7.888  21.389  0.00  0.00    +0.000 C 
ATOM     21  C   UNL     1       1.590   9.146  22.082  0.00  0.00    +0.000 C 
ATOM     22  C   UNL     1       1.403  10.411  21.247  0.00  0.00    +0.000 C 
ATOM     23  C   UNL     1      -0.051  10.621  20.825  0.00  0.00    +0.000 C 
ATOM     24  C   UNL     1      -0.713   9.366  20.259  0.00  0.00    +0.000 C 
ATOM     25  C   UNL     1      -0.461   8.129  21.120  0.00  0.00    +0.000 C 
ENDBRANCH  19  20
ENDBRANCH  14  19
TORSDOF 2
ENDMDL
