MODEL 1
REMARK VINA RESULT:      -7.9      0.000      0.000
REMARK  Name = 
REMARK  4 active torsions:
REMARK  status: ('A' for Active; 'I' for Inactive)
REMARK    1  A    between atoms: C_2  and  C_3
REMARK    2  A    between atoms: C_3  and  N_4
REMARK    3  A    between atoms: N_16  and  C_17
REMARK    4  A    between atoms: C_17  and  C_18
REMARK                            x       y       z     vdW  Elec       q    Type
REMARK                         _______ _______ _______ _____ _____    ______ ____
ROOT
ATOM      1  C   UNL     1       6.096   4.784  17.098  0.00  0.00    +0.000 C 
ENDROOT
BRANCH   1   2
ATOM      2  N   UNL     1       4.725   4.492  17.536  0.00  0.00    +0.000 N 
ATOM      3  C   UNL     1       3.781   3.804  16.753  0.00  0.00    +0.000 C 
ATOM      4  N   UNL     1       2.644   3.379  17.193  0.00  0.00    +0.000 NA
ATOM      5  C   UNL     1       2.314   3.519  18.555  0.00  0.00    +0.000 A 
ATOM      6  C   UNL     1       1.366   2.645  19.092  0.00  0.00    +0.000 A 
ATOM      7  C   UNL     1       1.059   2.667  20.458  0.00  0.00    +0.000 A 
ATOM      8  C   UNL     1       1.692   3.575  21.307  0.00  0.00    +0.000 A 
ATOM      9  C   UNL     1       2.617   4.477  20.787  0.00  0.00    +0.000 A 
ATOM     10  C   UNL     1       2.899   4.443  19.419  0.00  0.00    +0.000 A 
ATOM     11  S   UNL     1       4.105   5.493  18.735  0.00  0.00    +0.000 S 
ATOM     12  O   UNL     1       3.428   6.607  18.110  0.00  0.00    +0.000 OA
ATOM     13  O   UNL     1       5.154   5.699  19.710  0.00  0.00    +0.000 OA
ENDBRANCH   1   2
BRANCH   1  15
ATOM     14  O   UNL     1       5.646   6.314  15.313  0.00  0.00    +0.000 OA
ATOM     15  C   UNL     1       6.166   5.257  15.662  0.00  0.00    +0.000 C 
ATOM     16  N   UNL     1       6.865   4.430  14.813  0.00  0.00    +0.000 N 
ATOM     17  H   UNL     1       7.261   3.558  15.149  0.00  0.00    +0.000 HD
BRANCH  16  18
ATOM     18  C   UNL     1       7.073   4.768  13.422  0.00  0.00    +0.000 C 
BRANCH  18  19
ATOM     19  C   UNL     1       6.562   3.683  12.510  0.00  0.00    +0.000 A 
ATOM     20  C   UNL     1       7.439   2.788  11.883  0.00  0.00    +0.000 A 
ATOM     21  C   UNL     1       6.945   1.774  11.058  0.00  0.00    +0.000 A 
ATOM     22  C   UNL     1       5.574   1.648  10.843  0.00  0.00    +0.000 A 
ATOM     23  C   UNL     1       4.693   2.532  11.459  0.00  0.00    +0.000 A 
ATOM     24  C   UNL     1       5.184   3.537  12.294  0.00  0.00    +0.000 A 
ENDBRANCH  18  19
ENDBRANCH  16  18
ENDBRANCH   1  15
TORSDOF 4
ENDMDL
MODEL 2
REMARK VINA RESULT:      -7.9      0.140      1.014
REMARK  Name = 
REMARK  4 active torsions:
REMARK  status: ('A' for Active; 'I' for Inactive)
REMARK    1  A    between atoms: C_2  and  C_3
REMARK    2  A    between atoms: C_3  and  N_4
REMARK    3  A    between atoms: N_16  and  C_17
REMARK    4  A    between atoms: C_17  and  C_18
REMARK                            x       y       z     vdW  Elec       q    Type
REMARK                         _______ _______ _______ _____ _____    ______ ____
ROOT
ATOM      1  C   UNL     1       6.010   4.733  17.095  0.00  0.00    +0.000 C 
ENDROOT
BRANCH   1   2
ATOM      2  N   UNL     1       4.630   4.470  17.522  0.00  0.00    +0.000 N 
ATOM      3  C   UNL     1       3.672   3.820  16.724  0.00  0.00    +0.000 C 
ATOM      4  N   UNL     1       2.523   3.417  17.152  0.00  0.00    +0.000 NA
ATOM      5  C   UNL     1       2.191   3.542  18.514  0.00  0.00    +0.000 A 
ATOM      6  C   UNL     1       1.217   2.683  19.033  0.00  0.00    +0.000 A 
ATOM      7  C   UNL     1       0.905   2.690  20.397  0.00  0.00    +0.000 A 
ATOM      8  C   UNL     1       1.558   3.566  21.265  0.00  0.00    +0.000 A 
ATOM      9  C   UNL     1       2.509   4.452  20.764  0.00  0.00    +0.000 A 
ATOM     10  C   UNL     1       2.795   4.435  19.397  0.00  0.00    +0.000 A 
ATOM     11  S   UNL     1       4.031   5.465  18.736  0.00  0.00    +0.000 S 
ATOM     12  O   UNL     1       3.386   6.607  18.129  0.00  0.00    +0.000 OA
ATOM     13  O   UNL     1       5.081   5.627  19.719  0.00  0.00    +0.000 OA
ENDBRANCH   1   2
BRANCH   1  15
ATOM     14  O   UNL     1       5.584   6.238  15.283  0.00  0.00    +0.000 OA
ATOM     15  C   UNL     1       6.103   5.188  15.655  0.00  0.00    +0.000 C 
ATOM     16  N   UNL     1       6.819   4.353  14.829  0.00  0.00    +0.000 N 
ATOM     17  H   UNL     1       7.213   3.488  15.183  0.00  0.00    +0.000 HD
BRANCH  16  18
ATOM     18  C   UNL     1       7.050   4.674  13.437  0.00  0.00    +0.000 C 
BRANCH  18  19
ATOM     19  C   UNL     1       6.445   3.637  12.526  0.00  0.00    +0.000 A 
ATOM     20  C   UNL     1       5.068   3.610  12.269  0.00  0.00    +0.000 A 
ATOM     21  C   UNL     1       4.528   2.655  11.404  0.00  0.00    +0.000 A 
ATOM     22  C   UNL     1       5.354   1.712  10.794  0.00  0.00    +0.000 A 
ATOM     23  C   UNL     1       6.723   1.727  11.043  0.00  0.00    +0.000 A 
ATOM     24  C   UNL     1       7.266   2.689  11.896  0.00  0.00    +0.000 A 
ENDBRANCH  18  19
ENDBRANCH  16  18
ENDBRANCH   1  15
TORSDOF 4
ENDMDL
MODEL 3
REMARK VINA RESULT:      -7.8      1.602      2.170
REMARK  Name = 
REMARK  4 active torsions:
REMARK  status: ('A' for Active; 'I' for Inactive)
REMARK    1  A    between atoms: C_2  and  C_3
REMARK    2  A    between atoms: C_3  and  N_4
REMARK    3  A    between atoms: N_16  and  C_17
REMARK    4  A    between atoms: C_17  and  C_18
REMARK                            x       y       z     vdW  Elec       q    Type
REMARK                         _______ _______ _______ _____ _____    ______ ____
ROOT
ATOM      1  C   UNL     1       5.230   6.479  17.623  0.00  0.00    +0.000 C 
ENDROOT
BRANCH   1   2
ATOM      2  N   UNL     1       4.686   5.279  18.272  0.00  0.00    +0.000 N 
ATOM      3  C   UNL     1       5.478   4.285  18.872  0.00  0.00    +0.000 C 
ATOM      4  N   UNL     1       5.013   3.329  19.605  0.00  0.00    +0.000 NA
ATOM      5  C   UNL     1       3.641   3.281  19.918  0.00  0.00    +0.000 A 
ATOM      6  C   UNL     1       3.255   2.585  21.067  0.00  0.00    +0.000 A 
ATOM      7  C   UNL     1       1.920   2.574  21.488  0.00  0.00    +0.000 A 
ATOM      8  C   UNL     1       0.946   3.255  20.757  0.00  0.00    +0.000 A 
ATOM      9  C   UNL     1       1.303   3.929  19.592  0.00  0.00    +0.000 A 
ATOM     10  C   UNL     1       2.639   3.915  19.186  0.00  0.00    +0.000 A 
ATOM     11  S   UNL     1       3.150   4.808  17.782  0.00  0.00    +0.000 S 
ATOM     12  O   UNL     1       3.274   3.880  16.681  0.00  0.00    +0.000 OA
ATOM     13  O   UNL     1       2.345   6.006  17.672  0.00  0.00    +0.000 OA
ENDBRANCH   1   2
BRANCH   1  15
ATOM     14  O   UNL     1       7.463   6.729  16.798  0.00  0.00    +0.000 OA
ATOM     15  C   UNL     1       6.375   6.170  16.682  0.00  0.00    +0.000 C 
ATOM     16  N   UNL     1       6.100   5.218  15.728  0.00  0.00    +0.000 N 
ATOM     17  H   UNL     1       5.178   4.799  15.665  0.00  0.00    +0.000 HD
BRANCH  16  18
ATOM     18  C   UNL     1       7.106   4.768  14.790  0.00  0.00    +0.000 C 
BRANCH  18  19
ATOM     19  C   UNL     1       6.484   4.065  13.611  0.00  0.00    +0.000 A 
ATOM     20  C   UNL     1       5.101   3.855  13.539  0.00  0.00    +0.000 A 
ATOM     21  C   UNL     1       4.538   3.221  12.427  0.00  0.00    +0.000 A 
ATOM     22  C   UNL     1       5.351   2.783  11.383  0.00  0.00    +0.000 A 
ATOM     23  C   UNL     1       6.727   2.985  11.444  0.00  0.00    +0.000 A 
ATOM     24  C   UNL     1       7.288   3.630  12.547  0.00  0.00    +0.000 A 
ENDBRANCH  18  19
ENDBRANCH  16  18
ENDBRANCH   1  15
TORSDOF 4
ENDMDL
MODEL 4
REMARK VINA RESULT:      -7.8      1.815      7.115
REMARK  Name = 
REMARK  4 active torsions:
REMARK  status: ('A' for Active; 'I' for Inactive)
REMARK    1  A    between atoms: C_2  and  C_3
REMARK    2  A    between atoms: C_3  and  N_4
REMARK    3  A    between atoms: N_16  and  C_17
REMARK    4  A    between atoms: C_17  and  C_18
REMARK                            x       y       z     vdW  Elec       q    Type
REMARK                         _______ _______ _______ _____ _____    ______ ____
ROOT
ATOM      1  C   UNL     1       5.406   6.566  17.856  0.00  0.00    +0.000 C 
ENDROOT
BRANCH   1   2
ATOM      2  N   UNL     1       5.637   5.577  16.795  0.00  0.00    +0.000 N 
ATOM      3  C   UNL     1       4.785   4.489  16.537  0.00  0.00    +0.000 C 
ATOM      4  N   UNL     1       4.873   3.728  15.498  0.00  0.00    +0.000 NA
ATOM      5  C   UNL     1       5.815   4.011  14.491  0.00  0.00    +0.000 A 
ATOM      6  C   UNL     1       5.567   3.520  13.206  0.00  0.00    +0.000 A 
ATOM      7  C   UNL     1       6.413   3.841  12.137  0.00  0.00    +0.000 A 
ATOM      8  C   UNL     1       7.529   4.652  12.342  0.00  0.00    +0.000 A 
ATOM      9  C   UNL     1       7.813   5.126  13.621  0.00  0.00    +0.000 A 
ATOM     10  C   UNL     1       6.961   4.783  14.673  0.00  0.00    +0.000 A 
ATOM     11  S   UNL     1       7.226   5.415  16.273  0.00  0.00    +0.000 S 
ATOM     12  O   UNL     1       7.873   4.389  17.058  0.00  0.00    +0.000 OA
ATOM     13  O   UNL     1       7.784   6.746  16.164  0.00  0.00    +0.000 OA
ENDBRANCH   1   2
BRANCH   1  15
ATOM     14  O   UNL     1       4.928   5.270  19.811  0.00  0.00    +0.000 OA
ATOM     15  C   UNL     1       4.507   6.047  18.957  0.00  0.00    +0.000 C 
ATOM     16  N   UNL     1       3.218   6.528  18.928  0.00  0.00    +0.000 N 
ATOM     17  H   UNL     1       2.917   7.155  18.190  0.00  0.00    +0.000 HD
BRANCH  16  18
ATOM     18  C   UNL     1       2.251   6.174  19.943  0.00  0.00    +0.000 C 
BRANCH  18  19
ATOM     19  C   UNL     1       1.828   4.733  19.822  0.00  0.00    +0.000 A 
ATOM     20  C   UNL     1       1.534   4.165  18.576  0.00  0.00    +0.000 A 
ATOM     21  C   UNL     1       1.166   2.820  18.481  0.00  0.00    +0.000 A 
ATOM     22  C   UNL     1       1.078   2.032  19.628  0.00  0.00    +0.000 A 
ATOM     23  C   UNL     1       1.366   2.586  20.871  0.00  0.00    +0.000 A 
ATOM     24  C   UNL     1       1.747   3.925  20.967  0.00  0.00    +0.000 A 
ENDBRANCH  18  19
ENDBRANCH  16  18
ENDBRANCH   1  15
TORSDOF 4
ENDMDL
MODEL 5
REMARK VINA RESULT:      -7.8      1.812      7.121
REMARK  Name = 
REMARK  4 active torsions:
REMARK  status: ('A' for Active; 'I' for Inactive)
REMARK    1  A    between atoms: C_2  and  C_3
REMARK    2  A    between atoms: C_3  and  N_4
REMARK    3  A    between atoms: N_16  and  C_17
REMARK    4  A    between atoms: C_17  and  C_18
REMARK                            x       y       z     vdW  Elec       q    Type
REMARK                         _______ _______ _______ _____ _____    ______ ____
ROOT
ATOM      1  C   UNL     1       5.397   6.563  17.860  0.00  0.00    +0.000 C 
ENDROOT
BRANCH   1   2
ATOM      2  N   UNL     1       5.627   5.574  16.799  0.00  0.00    +0.000 N 
ATOM      3  C   UNL     1       4.773   4.487  16.542  0.00  0.00    +0.000 C 
ATOM      4  N   UNL     1       4.860   3.725  15.503  0.00  0.00    +0.000 NA
ATOM      5  C   UNL     1       5.802   4.006  14.495  0.00  0.00    +0.000 A 
ATOM      6  C   UNL     1       5.554   3.516  13.210  0.00  0.00    +0.000 A 
ATOM      7  C   UNL     1       6.400   3.835  12.142  0.00  0.00    +0.000 A 
ATOM      8  C   UNL     1       7.517   4.645  12.346  0.00  0.00    +0.000 A 
ATOM      9  C   UNL     1       7.801   5.119  13.624  0.00  0.00    +0.000 A 
ATOM     10  C   UNL     1       6.949   4.778  14.677  0.00  0.00    +0.000 A 
ATOM     11  S   UNL     1       7.215   5.410  16.276  0.00  0.00    +0.000 S 
ATOM     12  O   UNL     1       7.862   4.384  17.062  0.00  0.00    +0.000 OA
ATOM     13  O   UNL     1       7.774   6.740  16.166  0.00  0.00    +0.000 OA
ENDBRANCH   1   2
BRANCH   1  15
ATOM     14  O   UNL     1       4.903   5.271  19.813  0.00  0.00    +0.000 OA
ATOM     15  C   UNL     1       4.490   6.049  18.956  0.00  0.00    +0.000 C 
ATOM     16  N   UNL     1       3.203   6.535  18.920  0.00  0.00    +0.000 N 
ATOM     17  H   UNL     1       2.908   7.163  18.180  0.00  0.00    +0.000 HD
BRANCH  16  18
ATOM     18  C   UNL     1       2.229   6.187  19.931  0.00  0.00    +0.000 C 
BRANCH  18  19
ATOM     19  C   UNL     1       1.842   4.733  19.843  0.00  0.00    +0.000 A 
ATOM     20  C   UNL     1       1.744   3.937  20.992  0.00  0.00    +0.000 A 
ATOM     21  C   UNL     1       1.362   2.596  20.893  0.00  0.00    +0.000 A 
ATOM     22  C   UNL     1       1.083   2.035  19.648  0.00  0.00    +0.000 A 
ATOM     23  C   UNL     1       1.179   2.815  18.500  0.00  0.00    +0.000 A 
ATOM     24  C   UNL     1       1.547   4.157  18.598  0.00  0.00    +0.000 A 
ENDBRANCH  18  19
ENDBRANCH  16  18
ENDBRANCH   1  15
TORSDOF 4
ENDMDL
MODEL 6
REMARK VINA RESULT:      -7.8      1.565      1.916
REMARK  Name = 
REMARK  4 active torsions:
REMARK  status: ('A' for Active; 'I' for Inactive)
REMARK    1  A    between atoms: C_2  and  C_3
REMARK    2  A    between atoms: C_3  and  N_4
REMARK    3  A    between atoms: N_16  and  C_17
REMARK    4  A    between atoms: C_17  and  C_18
REMARK                            x       y       z     vdW  Elec       q    Type
REMARK                         _______ _______ _______ _____ _____    ______ ____
ROOT
ATOM      1  C   UNL     1       4.808   6.343  17.326  0.00  0.00    +0.000 C 
ENDROOT
BRANCH   1   2
ATOM      2  N   UNL     1       4.402   5.154  18.087  0.00  0.00    +0.000 N 
ATOM      3  C   UNL     1       5.306   4.248  18.668  0.00  0.00    +0.000 C 
ATOM      4  N   UNL     1       4.969   3.312  19.491  0.00  0.00    +0.000 NA
ATOM      5  C   UNL     1       3.635   3.199  19.926  0.00  0.00    +0.000 A 
ATOM      6  C   UNL     1       3.395   2.552  21.141  0.00  0.00    +0.000 A 
ATOM      7  C   UNL     1       2.103   2.485  21.678  0.00  0.00    +0.000 A 
ATOM      8  C   UNL     1       1.028   3.059  21.000  0.00  0.00    +0.000 A 
ATOM      9  C   UNL     1       1.240   3.681  19.772  0.00  0.00    +0.000 A 
ATOM     10  C   UNL     1       2.535   3.726  19.251  0.00  0.00    +0.000 A 
ATOM     11  S   UNL     1       2.864   4.561  17.761  0.00  0.00    +0.000 S 
ATOM     12  O   UNL     1       2.957   3.577  16.706  0.00  0.00    +0.000 OA
ATOM     13  O   UNL     1       1.976   5.698  17.655  0.00  0.00    +0.000 OA
ENDBRANCH   1   2
BRANCH   1  15
ATOM     14  O   UNL     1       7.091   6.629  16.663  0.00  0.00    +0.000 OA
ATOM     15  C   UNL     1       6.008   6.092  16.439  0.00  0.00    +0.000 C 
ATOM     16  N   UNL     1       5.789   5.214  15.402  0.00  0.00    +0.000 N 
ATOM     17  H   UNL     1       4.871   4.811  15.251  0.00  0.00    +0.000 HD
BRANCH  16  18
ATOM     18  C   UNL     1       6.849   4.823  14.499  0.00  0.00    +0.000 C 
BRANCH  18  19
ATOM     19  C   UNL     1       6.317   4.018  13.342  0.00  0.00    +0.000 A 
ATOM     20  C   UNL     1       7.176   3.302  12.499  0.00  0.00    +0.000 A 
ATOM     21  C   UNL     1       6.662   2.543  11.444  0.00  0.00    +0.000 A 
ATOM     22  C   UNL     1       5.288   2.499  11.214  0.00  0.00    +0.000 A 
ATOM     23  C   UNL     1       4.424   3.208  12.044  0.00  0.00    +0.000 A 
ATOM     24  C   UNL     1       4.935   3.955  13.106  0.00  0.00    +0.000 A 
ENDBRANCH  18  19
ENDBRANCH  16  18
ENDBRANCH   1  15
TORSDOF 4
ENDMDL
MODEL 7
REMARK VINA RESULT:      -7.6      3.993      8.728
REMARK  Name = 
REMARK  4 active torsions:
REMARK  status: ('A' for Active; 'I' for Inactive)
REMARK    1  A    between atoms: C_2  and  C_3
REMARK    2  A    between atoms: C_3  and  N_4
REMARK    3  A    between atoms: N_16  and  C_17
REMARK    4  A    between atoms: C_17  and  C_18
REMARK                            x       y       z     vdW  Elec       q    Type
REMARK                         _______ _______ _______ _____ _____    ______ ____
ROOT
ATOM      1  C   UNL     1       2.810   5.780  19.702  0.00  0.00    +0.000 C 
ENDROOT
BRANCH   1   2
ATOM      2  N   UNL     1       3.516   5.029  18.656  0.00  0.00    +0.000 N 
ATOM      3  C   UNL     1       2.870   4.266  17.667  0.00  0.00    +0.000 C 
ATOM      4  N   UNL     1       3.463   3.759  16.638  0.00  0.00    +0.000 NA
ATOM      5  C   UNL     1       4.826   4.023  16.405  0.00  0.00    +0.000 A 
ATOM      6  C   UNL     1       5.301   3.908  15.096  0.00  0.00    +0.000 A 
ATOM      7  C   UNL     1       6.622   4.245  14.778  0.00  0.00    +0.000 A 
ATOM      8  C   UNL     1       7.493   4.694  15.771  0.00  0.00    +0.000 A 
ATOM      9  C   UNL     1       7.050   4.786  17.088  0.00  0.00    +0.000 A 
ATOM     10  C   UNL     1       5.731   4.434  17.383  0.00  0.00    +0.000 A 
ATOM     11  S   UNL     1       5.106   4.607  18.998  0.00  0.00    +0.000 S 
ATOM     12  O   UNL     1       5.119   3.306  19.626  0.00  0.00    +0.000 OA
ATOM     13  O   UNL     1       5.732   5.753  19.621  0.00  0.00    +0.000 OA
ENDBRANCH   1   2
BRANCH   1  15
ATOM     14  O   UNL     1       2.810   7.634  18.188  0.00  0.00    +0.000 OA
ATOM     15  C   UNL     1       2.445   7.185  19.272  0.00  0.00    +0.000 C 
ATOM     16  N   UNL     1       1.671   7.883  20.170  0.00  0.00    +0.000 N 
ATOM     17  H   UNL     1       1.411   7.471  21.060  0.00  0.00    +0.000 HD
BRANCH  16  18
ATOM     18  C   UNL     1       1.188   9.217  19.882  0.00  0.00    +0.000 C 
BRANCH  18  19
ATOM     19  C   UNL     1       0.372   9.764  21.025  0.00  0.00    +0.000 A 
ATOM     20  C   UNL     1       0.313   9.102  22.258  0.00  0.00    +0.000 A 
ATOM     21  C   UNL     1      -0.431   9.636  23.313  0.00  0.00    +0.000 A 
ATOM     22  C   UNL     1      -1.131  10.830  23.146  0.00  0.00    +0.000 A 
ATOM     23  C   UNL     1      -1.081  11.496  21.925  0.00  0.00    +0.000 A 
ATOM     24  C   UNL     1      -0.327  10.971  20.875  0.00  0.00    +0.000 A 
ENDBRANCH  18  19
ENDBRANCH  16  18
ENDBRANCH   1  15
TORSDOF 4
ENDMDL
MODEL 8
REMARK VINA RESULT:      -7.6      3.437      6.316
REMARK  Name = 
REMARK  4 active torsions:
REMARK  status: ('A' for Active; 'I' for Inactive)
REMARK    1  A    between atoms: C_2  and  C_3
REMARK    2  A    between atoms: C_3  and  N_4
REMARK    3  A    between atoms: N_16  and  C_17
REMARK    4  A    between atoms: C_17  and  C_18
REMARK                            x       y       z     vdW  Elec       q    Type
REMARK                         _______ _______ _______ _____ _____    ______ ____
ROOT
ATOM      1  C   UNL     1       5.066   4.572  16.685  0.00  0.00    +0.000 C 
ENDROOT
BRANCH   1   2
ATOM      2  N   UNL     1       4.518   3.872  17.855  0.00  0.00    +0.000 N 
ATOM      3  C   UNL     1       5.242   3.634  19.036  0.00  0.00    +0.000 C 
ATOM      4  N   UNL     1       4.720   3.193  20.131  0.00  0.00    +0.000 NA
ATOM      5  C   UNL     1       3.329   2.997  20.224  0.00  0.00    +0.000 A 
ATOM      6  C   UNL     1       2.748   3.016  21.495  0.00  0.00    +0.000 A 
ATOM      7  C   UNL     1       1.360   2.920  21.653  0.00  0.00    +0.000 A 
ATOM      8  C   UNL     1       0.532   2.792  20.538  0.00  0.00    +0.000 A 
ATOM      9  C   UNL     1       1.092   2.739  19.264  0.00  0.00    +0.000 A 
ATOM     10  C   UNL     1       2.480   2.825  19.132  0.00  0.00    +0.000 A 
ATOM     11  S   UNL     1       3.223   2.844  17.559  0.00  0.00    +0.000 S 
ATOM     12  O   UNL     1       3.731   1.519  17.287  0.00  0.00    +0.000 OA
ATOM     13  O   UNL     1       2.339   3.519  16.632  0.00  0.00    +0.000 OA
ENDBRANCH   1   2
BRANCH   1  15
ATOM     14  O   UNL     1       5.392   6.849  16.023  0.00  0.00    +0.000 OA
ATOM     15  C   UNL     1       4.721   6.045  16.667  0.00  0.00    +0.000 C 
ATOM     16  N   UNL     1       3.608   6.389  17.398  0.00  0.00    +0.000 N 
ATOM     17  H   UNL     1       3.099   5.688  17.926  0.00  0.00    +0.000 HD
BRANCH  16  18
ATOM     18  C   UNL     1       3.112   7.748  17.436  0.00  0.00    +0.000 C 
BRANCH  18  19
ATOM     19  C   UNL     1       2.321   8.010  18.692  0.00  0.00    +0.000 A 
ATOM     20  C   UNL     1       1.555   9.173  18.838  0.00  0.00    +0.000 A 
ATOM     21  C   UNL     1       0.811   9.389  20.001  0.00  0.00    +0.000 A 
ATOM     22  C   UNL     1       0.831   8.451  21.032  0.00  0.00    +0.000 A 
ATOM     23  C   UNL     1       1.591   7.292  20.899  0.00  0.00    +0.000 A 
ATOM     24  C   UNL     1       2.323   7.069  19.733  0.00  0.00    +0.000 A 
ENDBRANCH  18  19
ENDBRANCH  16  18
ENDBRANCH   1  15
TORSDOF 4
ENDMDL
MODEL 9
REMARK VINA RESULT:      -7.6      3.446      6.169
REMARK  Name = 
REMARK  4 active torsions:
REMARK  status: ('A' for Active; 'I' for Inactive)
REMARK    1  A    between atoms: C_2  and  C_3
REMARK    2  A    between atoms: C_3  and  N_4
REMARK    3  A    between atoms: N_16  and  C_17
REMARK    4  A    between atoms: C_17  and  C_18
REMARK                            x       y       z     vdW  Elec       q    Type
REMARK                         _______ _______ _______ _____ _____    ______ ____
ROOT
ATOM      1  C   UNL     1       5.322   4.407  16.769  0.00  0.00    +0.000 C 
ENDROOT
BRANCH   1   2
ATOM      2  N   UNL     1       4.683   3.758  17.921  0.00  0.00    +0.000 N 
ATOM      3  C   UNL     1       5.346   3.470  19.127  0.00  0.00    +0.000 C 
ATOM      4  N   UNL     1       4.754   3.076  20.205  0.00  0.00    +0.000 NA
ATOM      5  C   UNL     1       3.350   2.988  20.250  0.00  0.00    +0.000 A 
ATOM      6  C   UNL     1       2.729   3.058  21.500  0.00  0.00    +0.000 A 
ATOM      7  C   UNL     1       1.333   3.070  21.611  0.00  0.00    +0.000 A 
ATOM      8  C   UNL     1       0.536   3.001  20.468  0.00  0.00    +0.000 A 
ATOM      9  C   UNL     1       1.133   2.899  19.215  0.00  0.00    +0.000 A 
ATOM     10  C   UNL     1       2.527   2.877  19.130  0.00  0.00    +0.000 A 
ATOM     11  S   UNL     1       3.323   2.832  17.583  0.00  0.00    +0.000 S 
ATOM     12  O   UNL     1       3.736   1.470  17.332  0.00  0.00    +0.000 OA
ATOM     13  O   UNL     1       2.526   3.567  16.625  0.00  0.00    +0.000 OA
ENDBRANCH   1   2
BRANCH   1  15
ATOM     14  O   UNL     1       5.294   6.521  15.646  0.00  0.00    +0.000 OA
ATOM     15  C   UNL     1       4.854   5.832  16.563  0.00  0.00    +0.000 C 
ATOM     16  N   UNL     1       3.902   6.264  17.457  0.00  0.00    +0.000 N 
ATOM     17  H   UNL     1       3.584   5.660  18.208  0.00  0.00    +0.000 HD
BRANCH  16  18
ATOM     18  C   UNL     1       3.309   7.580  17.360  0.00  0.00    +0.000 C 
BRANCH  18  19
ATOM     19  C   UNL     1       2.454   7.887  18.563  0.00  0.00    +0.000 A 
ATOM     20  C   UNL     1       2.370   6.997  19.641  0.00  0.00    +0.000 A 
ATOM     21  C   UNL     1       1.589   7.309  20.758  0.00  0.00    +0.000 A 
ATOM     22  C   UNL     1       0.880   8.508  20.806  0.00  0.00    +0.000 A 
ATOM     23  C   UNL     1       0.954   9.400  19.740  0.00  0.00    +0.000 A 
ATOM     24  C   UNL     1       1.744   9.095  18.630  0.00  0.00    +0.000 A 
ENDBRANCH  18  19
ENDBRANCH  16  18
ENDBRANCH   1  15
TORSDOF 4
ENDMDL
