MODEL 1
REMARK VINA RESULT:      -6.8      0.000      0.000
REMARK  Name = 
REMARK  3 active torsions:
REMARK  status: ('A' for Active; 'I' for Inactive)
REMARK    1  A    between atoms: C_2  and  C_11
REMARK    2  A    between atoms: N_3  and  C_4
REMARK    3  A    between atoms: C_17  and  O_18
REMARK                            x       y       z     vdW  Elec       q    Type
REMARK                         _______ _______ _______ _____ _____    ______ ____
ROOT
ATOM      1  O   UNL     1       4.721   5.654  18.612  0.00  0.00    +0.000 OA
ATOM      2  C   UNL     1       4.715   4.683  17.861  0.00  0.00    +0.000 C 
ATOM      3  N   UNL     1       3.988   3.532  18.079  0.00  0.00    +0.000 N 
ATOM      4  H   UNL     1       4.269   2.711  17.543  0.00  0.00    +0.000 HD
ENDROOT
BRANCH   3   5
ATOM      5  C   UNL     1       3.119   3.324  19.168  0.00  0.00    +0.000 A 
ATOM      6  C   UNL     1       3.553   2.743  20.361  0.00  0.00    +0.000 A 
ATOM      7  C   UNL     1       2.641   2.567  21.389  0.00  0.00    +0.000 A 
ATOM      8  N   UNL     1       1.340   2.917  21.307  0.00  0.00    +0.000 NA
ATOM      9  C   UNL     1       0.937   3.479  20.142  0.00  0.00    +0.000 A 
ATOM     10  C   UNL     1       1.782   3.726  19.069  0.00  0.00    +0.000 A 
ATOM     11 CL   UNL     1       1.139   4.422  17.624  0.00  0.00    +0.000 Cl
ENDBRANCH   3   5
BRANCH   2  12
ATOM     12  C   UNL     1       5.579   4.711  16.640  0.00  0.00    +0.000 A 
ATOM     13  C   UNL     1       4.991   4.262  15.446  0.00  0.00    +0.000 A 
ATOM     14  C   UNL     1       5.729   4.226  14.267  0.00  0.00    +0.000 A 
ATOM     15 CL   UNL     1       4.996   3.661  12.817  0.00  0.00    +0.000 Cl
ATOM     16  C   UNL     1       7.059   4.636  14.255  0.00  0.00    +0.000 A 
ATOM     17  C   UNL     1       7.655   5.100  15.430  0.00  0.00    +0.000 A 
ATOM     18  C   UNL     1       6.916   5.143  16.615  0.00  0.00    +0.000 A 
BRANCH  18  19
ATOM     19  O   UNL     1       7.517   5.622  17.749  0.00  0.00    +0.000 OA
ATOM     20  H   UNL     1       7.818   6.536  17.591  0.00  0.00    +0.000 HD
ENDBRANCH  18  19
ENDBRANCH   2  12
TORSDOF 3
ENDMDL
MODEL 2
REMARK VINA RESULT:      -6.8      4.625      6.754
REMARK  Name = 
REMARK  3 active torsions:
REMARK  status: ('A' for Active; 'I' for Inactive)
REMARK    1  A    between atoms: C_2  and  C_11
REMARK    2  A    between atoms: N_3  and  C_4
REMARK    3  A    between atoms: C_17  and  O_18
REMARK                            x       y       z     vdW  Elec       q    Type
REMARK                         _______ _______ _______ _____ _____    ______ ____
ROOT
ATOM      1  O   UNL     1       2.393   7.272  17.888  0.00  0.00    +0.000 OA
ATOM      2  C   UNL     1       2.246   7.446  19.094  0.00  0.00    +0.000 C 
ATOM      3  N   UNL     1       2.680   6.573  20.068  0.00  0.00    +0.000 N 
ATOM      4  H   UNL     1       2.269   6.686  20.994  0.00  0.00    +0.000 HD
ENDROOT
BRANCH   3   5
ATOM      5  C   UNL     1       3.390   5.382  19.822  0.00  0.00    +0.000 A 
ATOM      6  C   UNL     1       4.698   5.387  19.333  0.00  0.00    +0.000 A 
ATOM      7  C   UNL     1       5.334   4.175  19.112  0.00  0.00    +0.000 A 
ATOM      8  N   UNL     1       4.759   2.974  19.333  0.00  0.00    +0.000 NA
ATOM      9  C   UNL     1       3.490   2.989  19.807  0.00  0.00    +0.000 A 
ATOM     10  C   UNL     1       2.783   4.150  20.090  0.00  0.00    +0.000 A 
ATOM     11 CL   UNL     1       1.157   4.035  20.663  0.00  0.00    +0.000 Cl
ENDBRANCH   3   5
BRANCH   2  12
ATOM     12  C   UNL     1       1.511   8.663  19.561  0.00  0.00    +0.000 A 
ATOM     13  C   UNL     1       1.034   8.637  20.883  0.00  0.00    +0.000 A 
ATOM     14  C   UNL     1       0.314   9.713  21.392  0.00  0.00    +0.000 A 
ATOM     15 CL   UNL     1      -0.273   9.659  23.008  0.00  0.00    +0.000 Cl
ATOM     16  C   UNL     1       0.060  10.830  20.600  0.00  0.00    +0.000 A 
ATOM     17  C   UNL     1       0.539  10.877  19.290  0.00  0.00    +0.000 A 
ATOM     18  C   UNL     1       1.267   9.801  18.775  0.00  0.00    +0.000 A 
BRANCH  18  19
ATOM     19  O   UNL     1       1.745   9.883  17.494  0.00  0.00    +0.000 OA
ATOM     20  H   UNL     1       2.254  10.708  17.393  0.00  0.00    +0.000 HD
ENDBRANCH  18  19
ENDBRANCH   2  12
TORSDOF 3
ENDMDL
MODEL 3
REMARK VINA RESULT:      -6.8      1.261      1.487
REMARK  Name = 
REMARK  3 active torsions:
REMARK  status: ('A' for Active; 'I' for Inactive)
REMARK    1  A    between atoms: C_2  and  C_11
REMARK    2  A    between atoms: N_3  and  C_4
REMARK    3  A    between atoms: C_17  and  O_18
REMARK                            x       y       z     vdW  Elec       q    Type
REMARK                         _______ _______ _______ _____ _____    ______ ____
ROOT
ATOM      1  O   UNL     1       5.784   4.116  18.790  0.00  0.00    +0.000 OA
ATOM      2  C   UNL     1       5.120   4.275  17.769  0.00  0.00    +0.000 C 
ATOM      3  N   UNL     1       3.744   4.216  17.716  0.00  0.00    +0.000 N 
ATOM      4  H   UNL     1       3.331   4.094  16.792  0.00  0.00    +0.000 HD
ENDROOT
BRANCH   3   5
ATOM      5  C   UNL     1       2.904   4.008  18.828  0.00  0.00    +0.000 A 
ATOM      6  C   UNL     1       2.311   5.068  19.517  0.00  0.00    +0.000 A 
ATOM      7  C   UNL     1       1.497   4.788  20.603  0.00  0.00    +0.000 A 
ATOM      8  N   UNL     1       1.246   3.539  21.050  0.00  0.00    +0.000 NA
ATOM      9  C   UNL     1       1.829   2.524  20.369  0.00  0.00    +0.000 A 
ATOM     10  C   UNL     1       2.632   2.702  19.250  0.00  0.00    +0.000 A 
ATOM     11 CL   UNL     1       3.343   1.325  18.487  0.00  0.00    +0.000 Cl
ENDBRANCH   3   5
BRANCH   2  12
ATOM     12  C   UNL     1       5.833   4.510  16.476  0.00  0.00    +0.000 A 
ATOM     13  C   UNL     1       5.224   3.991  15.321  0.00  0.00    +0.000 A 
ATOM     14  C   UNL     1       5.831   4.137  14.078  0.00  0.00    +0.000 A 
ATOM     15 CL   UNL     1       5.076   3.484  12.677  0.00  0.00    +0.000 Cl
ATOM     16  C   UNL     1       7.049   4.801  13.962  0.00  0.00    +0.000 A 
ATOM     17  C   UNL     1       7.661   5.336  15.097  0.00  0.00    +0.000 A 
ATOM     18  C   UNL     1       7.052   5.196  16.347  0.00  0.00    +0.000 A 
BRANCH  18  19
ATOM     19  O   UNL     1       7.663   5.749  17.442  0.00  0.00    +0.000 OA
ATOM     20  H   UNL     1       8.433   6.272  17.150  0.00  0.00    +0.000 HD
ENDBRANCH  18  19
ENDBRANCH   2  12
TORSDOF 3
ENDMDL
MODEL 4
REMARK VINA RESULT:      -6.7      1.484      1.666
REMARK  Name = 
REMARK  3 active torsions:
REMARK  status: ('A' for Active; 'I' for Inactive)
REMARK    1  A    between atoms: C_2  and  C_11
REMARK    2  A    between atoms: N_3  and  C_4
REMARK    3  A    between atoms: C_17  and  O_18
REMARK                            x       y       z     vdW  Elec       q    Type
REMARK                         _______ _______ _______ _____ _____    ______ ____
ROOT
ATOM      1  O   UNL     1       5.861   4.278  17.673  0.00  0.00    +0.000 OA
ATOM      2  C   UNL     1       5.207   4.118  16.646  0.00  0.00    +0.000 C 
ATOM      3  N   UNL     1       3.881   3.745  16.615  0.00  0.00    +0.000 N 
ATOM      4  H   UNL     1       3.531   3.387  15.727  0.00  0.00    +0.000 HD
ENDROOT
BRANCH   3   5
ATOM      5  C   UNL     1       3.077   3.537  17.753  0.00  0.00    +0.000 A 
ATOM      6  C   UNL     1       2.817   2.259  18.252  0.00  0.00    +0.000 A 
ATOM      7  C   UNL     1       2.015   2.131  19.375  0.00  0.00    +0.000 A 
ATOM      8  N   UNL     1       1.453   3.175  20.020  0.00  0.00    +0.000 NA
ATOM      9  C   UNL     1       1.717   4.407  19.522  0.00  0.00    +0.000 A 
ATOM     10  C   UNL     1       2.534   4.639  18.423  0.00  0.00    +0.000 A 
ATOM     11 CL   UNL     1       2.767   6.257  17.866  0.00  0.00    +0.000 Cl
ENDBRANCH   3   5
BRANCH   2  12
ATOM     12  C   UNL     1       5.887   4.295  15.325  0.00  0.00    +0.000 A 
ATOM     13  C   UNL     1       5.370   3.552  14.251  0.00  0.00    +0.000 A 
ATOM     14  C   UNL     1       5.958   3.631  12.992  0.00  0.00    +0.000 A 
ATOM     15 CL   UNL     1       5.319   2.704  11.692  0.00  0.00    +0.000 Cl
ATOM     16  C   UNL     1       7.064   4.450  12.781  0.00  0.00    +0.000 A 
ATOM     17  C   UNL     1       7.581   5.207  13.834  0.00  0.00    +0.000 A 
ATOM     18  C   UNL     1       6.991   5.134  15.099  0.00  0.00    +0.000 A 
BRANCH  18  19
ATOM     19  O   UNL     1       7.504   5.903  16.110  0.00  0.00    +0.000 OA
ATOM     20  H   UNL     1       7.126   6.800  16.054  0.00  0.00    +0.000 HD
ENDBRANCH  18  19
ENDBRANCH   2  12
TORSDOF 3
ENDMDL
MODEL 5
REMARK VINA RESULT:      -6.7      1.128      1.157
REMARK  Name = 
REMARK  3 active torsions:
REMARK  status: ('A' for Active; 'I' for Inactive)
REMARK    1  A    between atoms: C_2  and  C_11
REMARK    2  A    between atoms: N_3  and  C_4
REMARK    3  A    between atoms: C_17  and  O_18
REMARK                            x       y       z     vdW  Elec       q    Type
REMARK                         _______ _______ _______ _____ _____    ______ ____
ROOT
ATOM      1  O   UNL     1       5.719   3.993  18.816  0.00  0.00    +0.000 OA
ATOM      2  C   UNL     1       5.061   4.149  17.792  0.00  0.00    +0.000 C 
ATOM      3  N   UNL     1       3.686   4.073  17.728  0.00  0.00    +0.000 N 
ATOM      4  H   UNL     1       3.281   3.951  16.801  0.00  0.00    +0.000 HD
ENDROOT
BRANCH   3   5
ATOM      5  C   UNL     1       2.841   3.848  18.833  0.00  0.00    +0.000 A 
ATOM      6  C   UNL     1       2.488   2.561  19.246  0.00  0.00    +0.000 A 
ATOM      7  C   UNL     1       1.651   2.417  20.341  0.00  0.00    +0.000 A 
ATOM      8  N   UNL     1       1.138   3.454  21.036  0.00  0.00    +0.000 NA
ATOM      9  C   UNL     1       1.491   4.694  20.621  0.00  0.00    +0.000 A 
ATOM     10  C   UNL     1       2.350   4.940  19.558  0.00  0.00    +0.000 A 
ATOM     11 CL   UNL     1       2.698   6.570  19.107  0.00  0.00    +0.000 Cl
ENDBRANCH   3   5
BRANCH   2  12
ATOM     12  C   UNL     1       5.780   4.400  16.505  0.00  0.00    +0.000 A 
ATOM     13  C   UNL     1       5.128   3.984  15.332  0.00  0.00    +0.000 A 
ATOM     14  C   UNL     1       5.736   4.151  14.091  0.00  0.00    +0.000 A 
ATOM     15 CL   UNL     1       4.929   3.625  12.667  0.00  0.00    +0.000 Cl
ATOM     16  C   UNL     1       6.996   4.735  13.997  0.00  0.00    +0.000 A 
ATOM     17  C   UNL     1       7.651   5.168  15.151  0.00  0.00    +0.000 A 
ATOM     18  C   UNL     1       7.043   5.007  16.399  0.00  0.00    +0.000 A 
BRANCH  18  19
ATOM     19  O   UNL     1       7.698   5.459  17.514  0.00  0.00    +0.000 OA
ATOM     20  H   UNL     1       7.294   5.060  18.307  0.00  0.00    +0.000 HD
ENDBRANCH  18  19
ENDBRANCH   2  12
TORSDOF 3
ENDMDL
MODEL 6
REMARK VINA RESULT:      -6.7      3.811      6.656
REMARK  Name = 
REMARK  3 active torsions:
REMARK  status: ('A' for Active; 'I' for Inactive)
REMARK    1  A    between atoms: C_2  and  C_11
REMARK    2  A    between atoms: N_3  and  C_4
REMARK    3  A    between atoms: C_17  and  O_18
REMARK                            x       y       z     vdW  Elec       q    Type
REMARK                         _______ _______ _______ _____ _____    ______ ____
ROOT
ATOM      1  O   UNL     1       2.944   5.072  18.131  0.00  0.00    +0.000 OA
ATOM      2  C   UNL     1       3.310   6.237  18.258  0.00  0.00    +0.000 C 
ATOM      3  N   UNL     1       4.490   6.744  17.758  0.00  0.00    +0.000 N 
ATOM      4  H   UNL     1       4.806   7.630  18.151  0.00  0.00    +0.000 HD
ENDROOT
BRANCH   3   5
ATOM      5  C   UNL     1       5.422   6.010  16.997  0.00  0.00    +0.000 A 
ATOM      6  C   UNL     1       5.316   5.894  15.609  0.00  0.00    +0.000 A 
ATOM      7  C   UNL     1       6.269   5.154  14.926  0.00  0.00    +0.000 A 
ATOM      8  N   UNL     1       7.300   4.523  15.525  0.00  0.00    +0.000 NA
ATOM      9  C   UNL     1       7.387   4.648  16.871  0.00  0.00    +0.000 A 
ATOM     10  C   UNL     1       6.501   5.393  17.638  0.00  0.00    +0.000 A 
ATOM     11 CL   UNL     1       6.702   5.448  19.353  0.00  0.00    +0.000 Cl
ENDBRANCH   3   5
BRANCH   2  12
ATOM     12  C   UNL     1       2.451   7.180  19.039  0.00  0.00    +0.000 A 
ATOM     13  C   UNL     1       2.105   8.384  18.404  0.00  0.00    +0.000 A 
ATOM     14  C   UNL     1       1.334   9.334  19.067  0.00  0.00    +0.000 A 
ATOM     15 CL   UNL     1       0.930  10.808  18.278  0.00  0.00    +0.000 Cl
ATOM     16  C   UNL     1       0.893   9.102  20.367  0.00  0.00    +0.000 A 
ATOM     17  C   UNL     1       1.215   7.904  21.007  0.00  0.00    +0.000 A 
ATOM     18  C   UNL     1       1.986   6.945  20.344  0.00  0.00    +0.000 A 
BRANCH  18  19
ATOM     19  O   UNL     1       2.270   5.769  20.987  0.00  0.00    +0.000 OA
ATOM     20  H   UNL     1       3.124   5.856  21.450  0.00  0.00    +0.000 HD
ENDBRANCH  18  19
ENDBRANCH   2  12
TORSDOF 3
ENDMDL
MODEL 7
REMARK VINA RESULT:      -6.6      1.840      2.449
REMARK  Name = 
REMARK  3 active torsions:
REMARK  status: ('A' for Active; 'I' for Inactive)
REMARK    1  A    between atoms: C_2  and  C_11
REMARK    2  A    between atoms: N_3  and  C_4
REMARK    3  A    between atoms: C_17  and  O_18
REMARK                            x       y       z     vdW  Elec       q    Type
REMARK                         _______ _______ _______ _____ _____    ______ ____
ROOT
ATOM      1  O   UNL     1       6.751   4.327  16.916  0.00  0.00    +0.000 OA
ATOM      2  C   UNL     1       5.866   4.274  16.067  0.00  0.00    +0.000 C 
ATOM      3  N   UNL     1       4.521   4.165  16.348  0.00  0.00    +0.000 N 
ATOM      4  H   UNL     1       3.921   3.861  15.581  0.00  0.00    +0.000 HD
ENDROOT
BRANCH   3   5
ATOM      5  C   UNL     1       3.969   4.140  17.643  0.00  0.00    +0.000 A 
ATOM      6  C   UNL     1       3.675   2.944  18.301  0.00  0.00    +0.000 A 
ATOM      7  C   UNL     1       3.132   2.997  19.575  0.00  0.00    +0.000 A 
ATOM      8  N   UNL     1       2.854   4.147  20.225  0.00  0.00    +0.000 NA
ATOM      9  C   UNL     1       3.146   5.297  19.572  0.00  0.00    +0.000 A 
ATOM     10  C   UNL     1       3.722   5.346  18.309  0.00  0.00    +0.000 A 
ATOM     11 CL   UNL     1       4.017   6.879  17.570  0.00  0.00    +0.000 Cl
ENDBRANCH   3   5
BRANCH   2  12
ATOM     12  C   UNL     1       6.252   4.288  14.622  0.00  0.00    +0.000 A 
ATOM     13  C   UNL     1       5.456   3.522  13.754  0.00  0.00    +0.000 A 
ATOM     14  C   UNL     1       5.759   3.452  12.398  0.00  0.00    +0.000 A 
ATOM     15 CL   UNL     1       4.780   2.499  11.352  0.00  0.00    +0.000 Cl
ATOM     16  C   UNL     1       6.852   4.143  11.883  0.00  0.00    +0.000 A 
ATOM     17  C   UNL     1       7.645   4.921  12.729  0.00  0.00    +0.000 A 
ATOM     18  C   UNL     1       7.342   4.998  14.091  0.00  0.00    +0.000 A 
BRANCH  18  19
ATOM     19  O   UNL     1       8.122   5.786  14.895  0.00  0.00    +0.000 OA
ATOM     20  H   UNL     1       9.062   5.616  14.696  0.00  0.00    +0.000 HD
ENDBRANCH  18  19
ENDBRANCH   2  12
TORSDOF 3
ENDMDL
MODEL 8
REMARK VINA RESULT:      -6.6      1.731      2.270
REMARK  Name = 
REMARK  3 active torsions:
REMARK  status: ('A' for Active; 'I' for Inactive)
REMARK    1  A    between atoms: C_2  and  C_11
REMARK    2  A    between atoms: N_3  and  C_4
REMARK    3  A    between atoms: C_17  and  O_18
REMARK                            x       y       z     vdW  Elec       q    Type
REMARK                         _______ _______ _______ _____ _____    ______ ____
ROOT
ATOM      1  O   UNL     1       6.204   4.326  17.321  0.00  0.00    +0.000 OA
ATOM      2  C   UNL     1       5.437   4.378  16.364  0.00  0.00    +0.000 C 
ATOM      3  N   UNL     1       4.062   4.398  16.466  0.00  0.00    +0.000 N 
ATOM      4  H   UNL     1       3.542   4.170  15.619  0.00  0.00    +0.000 HD
ENDROOT
BRANCH   3   5
ATOM      5  C   UNL     1       3.345   4.406  17.678  0.00  0.00    +0.000 A 
ATOM      6  C   UNL     1       2.897   5.590  18.267  0.00  0.00    +0.000 A 
ATOM      7  C   UNL     1       2.199   5.520  19.462  0.00  0.00    +0.000 A 
ATOM      8  N   UNL     1       1.930   4.366  20.108  0.00  0.00    +0.000 NA
ATOM      9  C   UNL     1       2.372   3.227  19.523  0.00  0.00    +0.000 A 
ATOM     10  C   UNL     1       3.050   3.193  18.311  0.00  0.00    +0.000 A 
ATOM     11 CL   UNL     1       3.590   1.677  17.684  0.00  0.00    +0.000 Cl
ENDBRANCH   3   5
BRANCH   2  12
ATOM     12  C   UNL     1       6.008   4.379  14.982  0.00  0.00    +0.000 A 
ATOM     13  C   UNL     1       5.360   3.567  14.036  0.00  0.00    +0.000 A 
ATOM     14  C   UNL     1       5.841   3.484  12.733  0.00  0.00    +0.000 A 
ATOM     15 CL   UNL     1       5.042   2.475  11.591  0.00  0.00    +0.000 Cl
ATOM     16  C   UNL     1       6.968   4.206  12.349  0.00  0.00    +0.000 A 
ATOM     17  C   UNL     1       7.615   5.029  13.273  0.00  0.00    +0.000 A 
ATOM     18  C   UNL     1       7.133   5.120  14.582  0.00  0.00    +0.000 A 
BRANCH  18  19
ATOM     19  O   UNL     1       7.773   5.951  15.462  0.00  0.00    +0.000 OA
ATOM     20  H   UNL     1       7.180   6.143  16.212  0.00  0.00    +0.000 HD
ENDBRANCH  18  19
ENDBRANCH   2  12
TORSDOF 3
ENDMDL
MODEL 9
REMARK VINA RESULT:      -6.6      2.020      2.542
REMARK  Name = 
REMARK  3 active torsions:
REMARK  status: ('A' for Active; 'I' for Inactive)
REMARK    1  A    between atoms: C_2  and  C_11
REMARK    2  A    between atoms: N_3  and  C_4
REMARK    3  A    between atoms: C_17  and  O_18
REMARK                            x       y       z     vdW  Elec       q    Type
REMARK                         _______ _______ _______ _____ _____    ______ ____
ROOT
ATOM      1  O   UNL     1       4.857   6.195  16.143  0.00  0.00    +0.000 OA
ATOM      2  C   UNL     1       4.944   5.014  15.820  0.00  0.00    +0.000 C 
ATOM      3  N   UNL     1       4.391   3.968  16.528  0.00  0.00    +0.000 N 
ATOM      4  H   UNL     1       4.752   3.038  16.318  0.00  0.00    +0.000 HD
ENDROOT
BRANCH   3   5
ATOM      5  C   UNL     1       3.615   4.108  17.695  0.00  0.00    +0.000 A 
ATOM      6  C   UNL     1       2.231   3.918  17.692  0.00  0.00    +0.000 A 
ATOM      7  C   UNL     1       1.533   4.075  18.879  0.00  0.00    +0.000 A 
ATOM      8  N   UNL     1       2.110   4.414  20.051  0.00  0.00    +0.000 NA
ATOM      9  C   UNL     1       3.453   4.594  20.035  0.00  0.00    +0.000 A 
ATOM     10  C   UNL     1       4.242   4.428  18.904  0.00  0.00    +0.000 A 
ATOM     11 CL   UNL     1       5.942   4.718  19.006  0.00  0.00    +0.000 Cl
ENDBRANCH   3   5
BRANCH   2  12
ATOM     12  C   UNL     1       5.732   4.657  14.600  0.00  0.00    +0.000 A 
ATOM     13  C   UNL     1       5.076   3.871  13.638  0.00  0.00    +0.000 A 
ATOM     14  C   UNL     1       5.742   3.467  12.485  0.00  0.00    +0.000 A 
ATOM     15 CL   UNL     1       4.927   2.494  11.324  0.00  0.00    +0.000 Cl
ATOM     16  C   UNL     1       7.066   3.839  12.269  0.00  0.00    +0.000 A 
ATOM     17  C   UNL     1       7.728   4.632  13.208  0.00  0.00    +0.000 A 
ATOM     18  C   UNL     1       7.062   5.045  14.365  0.00  0.00    +0.000 A 
BRANCH  18  19
ATOM     19  O   UNL     1       7.728   5.840  15.259  0.00  0.00    +0.000 OA
ATOM     20  H   UNL     1       7.089   6.429  15.702  0.00  0.00    +0.000 HD
ENDBRANCH  18  19
ENDBRANCH   2  12
TORSDOF 3
ENDMDL
