MODEL 1
REMARK VINA RESULT:      -8.1      0.000      0.000
REMARK  Name = 
REMARK  6 active torsions:
REMARK  status: ('A' for Active; 'I' for Inactive)
REMARK    1  A    between atoms: C_1  and  C_2
REMARK    2  A    between atoms: C_5  and  N_6
REMARK    3  A    between atoms: N_6  and  C_7
REMARK    4  A    between atoms: C_7  and  C_8
REMARK    5  A    between atoms: N_18  and  C_19
REMARK    6  A    between atoms: C_19  and  C_20
REMARK                            x       y       z     vdW  Elec       q    Type
REMARK                         _______ _______ _______ _____ _____    ______ ____
ROOT
ATOM      1  C   UNL     1      -0.037  11.237  19.959  0.00  0.00    +0.000 C 
ATOM      2  C   UNL     1       0.490   9.847  20.135  0.00  0.00    +0.000 A 
ATOM      3  N   UNL     1       0.108   9.084  21.171  0.00  0.00    +0.000 NA
ATOM      4  N   UNL     1       0.668   7.803  21.379  0.00  0.00    +0.000 NA
ATOM      5  C   UNL     1       1.609   7.217  20.578  0.00  0.00    +0.000 A 
ATOM      6  C   UNL     1       1.903   7.980  19.419  0.00  0.00    +0.000 A 
ATOM      7  C   UNL     1       1.384   9.273  19.237  0.00  0.00    +0.000 A 
ATOM      8  N   UNL     1       1.885   9.858  18.112  0.00  0.00    +0.000 NA
ATOM      9  N   UNL     1       2.696   8.998  17.545  0.00  0.00    +0.000 NA
ATOM     10  N   UNL     1       2.630   7.843  18.250  0.00  0.00    +0.000 N 
ENDROOT
BRANCH   5  11
ATOM     11  N   UNL     1       2.201   6.020  20.998  0.00  0.00    +0.000 N 
ATOM     12  H   UNL     1       3.171   5.994  21.263  0.00  0.00    +0.000 HD
BRANCH  11  13
ATOM     13  C   UNL     1       1.527   4.725  20.750  0.00  0.00    +0.000 C 
BRANCH  13  14
ATOM     14  C   UNL     1       2.254   3.767  19.792  0.00  0.00    +0.000 A 
ATOM     15  C   UNL     1       3.351   2.994  20.183  0.00  0.00    +0.000 A 
ATOM     16  C   UNL     1       3.985   2.112  19.288  0.00  0.00    +0.000 A 
ATOM     17  C   UNL     1       3.514   1.957  17.988  0.00  0.00    +0.000 A 
ATOM     18  C   UNL     1       2.379   2.667  17.588  0.00  0.00    +0.000 A 
ATOM     19  C   UNL     1       1.750   3.548  18.486  0.00  0.00    +0.000 A 
ENDBRANCH  13  14
ENDBRANCH  11  13
ENDBRANCH   5  11
BRANCH  10  20
ATOM     20  C   UNL     1       2.952   6.665  17.475  0.00  0.00    +0.000 C 
BRANCH  20  21
ATOM     21  C   UNL     1       4.411   6.299  17.451  0.00  0.00    +0.000 A 
ATOM     22  C   UNL     1       4.986   5.807  18.628  0.00  0.00    +0.000 A 
ATOM     23  C   UNL     1       6.199   5.128  18.578  0.00  0.00    +0.000 A 
ATOM     24  C   UNL     1       6.842   4.953  17.358  0.00  0.00    +0.000 A 
ATOM     25  F   UNL     1       7.941   4.190  17.303  0.00  0.00    +0.000 F 
ATOM     26  C   UNL     1       6.335   5.511  16.196  0.00  0.00    +0.000 A 
ATOM     27  C   UNL     1       5.125   6.205  16.240  0.00  0.00    +0.000 A 
ENDBRANCH  20  21
ENDBRANCH  10  20
TORSDOF 5
ENDMDL
MODEL 2
REMARK VINA RESULT:      -7.8      0.790      1.486
REMARK  Name = 
REMARK  6 active torsions:
REMARK  status: ('A' for Active; 'I' for Inactive)
REMARK    1  A    between atoms: C_1  and  C_2
REMARK    2  A    between atoms: C_5  and  N_6
REMARK    3  A    between atoms: N_6  and  C_7
REMARK    4  A    between atoms: C_7  and  C_8
REMARK    5  A    between atoms: N_18  and  C_19
REMARK    6  A    between atoms: C_19  and  C_20
REMARK                            x       y       z     vdW  Elec       q    Type
REMARK                         _______ _______ _______ _____ _____    ______ ____
ROOT
ATOM      1  C   UNL     1       0.925  11.363  18.981  0.00  0.00    +0.000 C 
ATOM      2  C   UNL     1       1.167   9.954  19.425  0.00  0.00    +0.000 A 
ATOM      3  N   UNL     1       0.634   9.482  20.564  0.00  0.00    +0.000 NA
ATOM      4  N   UNL     1       0.929   8.177  21.020  0.00  0.00    +0.000 NA
ATOM      5  C   UNL     1       1.742   7.285  20.378  0.00  0.00    +0.000 A 
ATOM      6  C   UNL     1       2.188   7.750  19.115  0.00  0.00    +0.000 A 
ATOM      7  C   UNL     1       1.935   9.064  18.683  0.00  0.00    +0.000 A 
ATOM      8  N   UNL     1       2.550   9.325  17.494  0.00  0.00    +0.000 NA
ATOM      9  N   UNL     1       3.180   8.236  17.125  0.00  0.00    +0.000 NA
ATOM     10  N   UNL     1       2.883   7.264  18.021  0.00  0.00    +0.000 N 
ENDROOT
BRANCH   5  11
ATOM     11  N   UNL     1       2.084   6.093  21.029  0.00  0.00    +0.000 N 
ATOM     12  H   UNL     1       2.990   5.982  21.451  0.00  0.00    +0.000 HD
BRANCH  11  13
ATOM     13  C   UNL     1       1.269   4.872  20.830  0.00  0.00    +0.000 C 
BRANCH  13  14
ATOM     14  C   UNL     1       1.926   3.761  19.994  0.00  0.00    +0.000 A 
ATOM     15  C   UNL     1       1.381   3.296  18.793  0.00  0.00    +0.000 A 
ATOM     16  C   UNL     1       2.015   2.291  18.041  0.00  0.00    +0.000 A 
ATOM     17  C   UNL     1       3.228   1.749  18.454  0.00  0.00    +0.000 A 
ATOM     18  C   UNL     1       3.830   2.241  19.616  0.00  0.00    +0.000 A 
ATOM     19  C   UNL     1       3.192   3.245  20.365  0.00  0.00    +0.000 A 
ENDBRANCH  13  14
ENDBRANCH  11  13
ENDBRANCH   5  11
BRANCH  10  20
ATOM     20  C   UNL     1       2.971   5.925  17.483  0.00  0.00    +0.000 C 
BRANCH  20  21
ATOM     21  C   UNL     1       4.301   5.249  17.677  0.00  0.00    +0.000 A 
ATOM     22  C   UNL     1       4.780   4.433  16.647  0.00  0.00    +0.000 A 
ATOM     23  C   UNL     1       6.126   4.080  16.608  0.00  0.00    +0.000 A 
ATOM     24  C   UNL     1       6.986   4.529  17.604  0.00  0.00    +0.000 A 
ATOM     25  F   UNL     1       8.298   4.292  17.490  0.00  0.00    +0.000 F 
ATOM     26  C   UNL     1       6.512   5.261  18.681  0.00  0.00    +0.000 A 
ATOM     27  C   UNL     1       5.161   5.608  18.734  0.00  0.00    +0.000 A 
ENDBRANCH  20  21
ENDBRANCH  10  20
TORSDOF 5
ENDMDL
MODEL 3
REMARK VINA RESULT:      -7.8      0.596      1.095
REMARK  Name = 
REMARK  6 active torsions:
REMARK  status: ('A' for Active; 'I' for Inactive)
REMARK    1  A    between atoms: C_1  and  C_2
REMARK    2  A    between atoms: C_5  and  N_6
REMARK    3  A    between atoms: N_6  and  C_7
REMARK    4  A    between atoms: C_7  and  C_8
REMARK    5  A    between atoms: N_18  and  C_19
REMARK    6  A    between atoms: C_19  and  C_20
REMARK                            x       y       z     vdW  Elec       q    Type
REMARK                         _______ _______ _______ _____ _____    ______ ____
ROOT
ATOM      1  C   UNL     1       0.377  11.175  19.868  0.00  0.00    +0.000 C 
ATOM      2  C   UNL     1       0.815   9.758  20.072  0.00  0.00    +0.000 A 
ATOM      3  N   UNL     1       0.457   9.070  21.168  0.00  0.00    +0.000 NA
ATOM      4  N   UNL     1       0.938   7.760  21.396  0.00  0.00    +0.000 NA
ATOM      5  C   UNL     1       1.772   7.072  20.559  0.00  0.00    +0.000 A 
ATOM      6  C   UNL     1       2.033   7.761  19.346  0.00  0.00    +0.000 A 
ATOM      7  C   UNL     1       1.595   9.081  19.141  0.00  0.00    +0.000 A 
ATOM      8  N   UNL     1       2.052   9.579  17.956  0.00  0.00    +0.000 NA
ATOM      9  N   UNL     1       2.754   8.637  17.374  0.00  0.00    +0.000 NA
ATOM     10  N   UNL     1       2.659   7.521  18.136  0.00  0.00    +0.000 N 
ENDROOT
BRANCH   5  11
ATOM     11  N   UNL     1       2.306   5.852  20.991  0.00  0.00    +0.000 N 
ATOM     12  H   UNL     1       3.281   5.776  21.230  0.00  0.00    +0.000 HD
BRANCH  11  13
ATOM     13  C   UNL     1       1.553   4.593  20.793  0.00  0.00    +0.000 C 
BRANCH  13  14
ATOM     14  C   UNL     1       2.215   3.557  19.871  0.00  0.00    +0.000 A 
ATOM     15  C   UNL     1       1.606   3.081  18.707  0.00  0.00    +0.000 A 
ATOM     16  C   UNL     1       2.246   2.145  17.873  0.00  0.00    +0.000 A 
ATOM     17  C   UNL     1       3.527   1.689  18.166  0.00  0.00    +0.000 A 
ATOM     18  C   UNL     1       4.188   2.197  19.287  0.00  0.00    +0.000 A 
ATOM     19  C   UNL     1       3.544   3.131  20.118  0.00  0.00    +0.000 A 
ENDBRANCH  13  14
ENDBRANCH  11  13
ENDBRANCH   5  11
BRANCH  10  20
ATOM     20  C   UNL     1       2.837   6.291  17.397  0.00  0.00    +0.000 C 
BRANCH  20  21
ATOM     21  C   UNL     1       4.267   5.876  17.188  0.00  0.00    +0.000 A 
ATOM     22  C   UNL     1       5.251   6.488  17.972  0.00  0.00    +0.000 A 
ATOM     23  C   UNL     1       6.511   5.908  18.083  0.00  0.00    +0.000 A 
ATOM     24  C   UNL     1       6.791   4.729  17.402  0.00  0.00    +0.000 A 
ATOM     25  F   UNL     1       7.960   4.112  17.615  0.00  0.00    +0.000 F 
ATOM     26  C   UNL     1       5.860   4.158  16.549  0.00  0.00    +0.000 A 
ATOM     27  C   UNL     1       4.598   4.741  16.422  0.00  0.00    +0.000 A 
ENDBRANCH  20  21
ENDBRANCH  10  20
TORSDOF 5
ENDMDL
MODEL 4
REMARK VINA RESULT:      -7.7      2.110      5.542
REMARK  Name = 
REMARK  6 active torsions:
REMARK  status: ('A' for Active; 'I' for Inactive)
REMARK    1  A    between atoms: C_1  and  C_2
REMARK    2  A    between atoms: C_5  and  N_6
REMARK    3  A    between atoms: N_6  and  C_7
REMARK    4  A    between atoms: C_7  and  C_8
REMARK    5  A    between atoms: N_18  and  C_19
REMARK    6  A    between atoms: C_19  and  C_20
REMARK                            x       y       z     vdW  Elec       q    Type
REMARK                         _______ _______ _______ _____ _____    ______ ____
ROOT
ATOM      1  C   UNL     1       2.520   2.566  21.676  0.00  0.00    +0.000 C 
ATOM      2  C   UNL     1       2.570   3.695  20.694  0.00  0.00    +0.000 A 
ATOM      3  N   UNL     1       2.187   4.935  21.039  0.00  0.00    +0.000 NA
ATOM      4  N   UNL     1       2.159   5.981  20.089  0.00  0.00    +0.000 NA
ATOM      5  C   UNL     1       2.514   5.858  18.774  0.00  0.00    +0.000 A 
ATOM      6  C   UNL     1       3.040   4.579  18.459  0.00  0.00    +0.000 A 
ATOM      7  C   UNL     1       3.022   3.526  19.390  0.00  0.00    +0.000 A 
ATOM      8  N   UNL     1       3.474   2.364  18.837  0.00  0.00    +0.000 NA
ATOM      9  N   UNL     1       3.799   2.616  17.592  0.00  0.00    +0.000 NA
ATOM     10  N   UNL     1       3.649   3.947  17.389  0.00  0.00    +0.000 N 
ENDROOT
BRANCH   5  11
ATOM     11  N   UNL     1       2.274   6.931  17.907  0.00  0.00    +0.000 N 
ATOM     12  H   UNL     1       2.136   6.773  16.923  0.00  0.00    +0.000 HD
BRANCH  11  13
ATOM     13  C   UNL     1       2.542   8.320  18.343  0.00  0.00    +0.000 C 
BRANCH  13  14
ATOM     14  C   UNL     1       1.307   9.142  18.748  0.00  0.00    +0.000 A 
ATOM     15  C   UNL     1       0.417   9.679  17.814  0.00  0.00    +0.000 A 
ATOM     16  C   UNL     1      -0.715  10.412  18.216  0.00  0.00    +0.000 A 
ATOM     17  C   UNL     1      -1.002  10.597  19.564  0.00  0.00    +0.000 A 
ATOM     18  C   UNL     1      -0.166  10.016  20.522  0.00  0.00    +0.000 A 
ATOM     19  C   UNL     1       0.965   9.285  20.116  0.00  0.00    +0.000 A 
ENDBRANCH  13  14
ENDBRANCH  11  13
ENDBRANCH   5  11
BRANCH  10  20
ATOM     20  C   UNL     1       4.491   4.478  16.340  0.00  0.00    +0.000 C 
BRANCH  20  21
ATOM     21  C   UNL     1       5.760   5.133  16.813  0.00  0.00    +0.000 A 
ATOM     22  C   UNL     1       5.897   6.512  16.625  0.00  0.00    +0.000 A 
ATOM     23  C   UNL     1       6.856   7.220  17.344  0.00  0.00    +0.000 A 
ATOM     24  C   UNL     1       7.685   6.548  18.236  0.00  0.00    +0.000 A 
ATOM     25  F   UNL     1       8.515   7.253  19.014  0.00  0.00    +0.000 F 
ATOM     26  C   UNL     1       7.625   5.170  18.368  0.00  0.00    +0.000 A 
ATOM     27  C   UNL     1       6.675   4.452  17.641  0.00  0.00    +0.000 A 
ENDBRANCH  20  21
ENDBRANCH  10  20
TORSDOF 5
ENDMDL
MODEL 5
REMARK VINA RESULT:      -7.6      2.214      5.487
REMARK  Name = 
REMARK  6 active torsions:
REMARK  status: ('A' for Active; 'I' for Inactive)
REMARK    1  A    between atoms: C_1  and  C_2
REMARK    2  A    between atoms: C_5  and  N_6
REMARK    3  A    between atoms: N_6  and  C_7
REMARK    4  A    between atoms: C_7  and  C_8
REMARK    5  A    between atoms: N_18  and  C_19
REMARK    6  A    between atoms: C_19  and  C_20
REMARK                            x       y       z     vdW  Elec       q    Type
REMARK                         _______ _______ _______ _____ _____    ______ ____
ROOT
ATOM      1  C   UNL     1       1.810   2.320  21.684  0.00  0.00    +0.000 C 
ATOM      2  C   UNL     1       2.065   3.454  20.740  0.00  0.00    +0.000 A 
ATOM      3  N   UNL     1       1.614   4.691  21.000  0.00  0.00    +0.000 NA
ATOM      4  N   UNL     1       1.786   5.741  20.070  0.00  0.00    +0.000 NA
ATOM      5  C   UNL     1       2.414   5.625  18.861  0.00  0.00    +0.000 A 
ATOM      6  C   UNL     1       2.999   4.348  18.660  0.00  0.00    +0.000 A 
ATOM      7  C   UNL     1       2.786   3.291  19.562  0.00  0.00    +0.000 A 
ATOM      8  N   UNL     1       3.349   2.132  19.114  0.00  0.00    +0.000 NA
ATOM      9  N   UNL     1       3.931   2.391  17.968  0.00  0.00    +0.000 NA
ATOM     10  N   UNL     1       3.824   3.722  17.743  0.00  0.00    +0.000 N 
ENDROOT
BRANCH   5  11
ATOM     11  N   UNL     1       2.361   6.701  17.966  0.00  0.00    +0.000 N 
ATOM     12  H   UNL     1       2.330   6.540  16.974  0.00  0.00    +0.000 HD
BRANCH  11  13
ATOM     13  C   UNL     1       2.681   8.072  18.426  0.00  0.00    +0.000 C 
BRANCH  13  14
ATOM     14  C   UNL     1       1.477   8.939  18.828  0.00  0.00    +0.000 A 
ATOM     15  C   UNL     1       0.629   9.537  17.892  0.00  0.00    +0.000 A 
ATOM     16  C   UNL     1      -0.477  10.310  18.291  0.00  0.00    +0.000 A 
ATOM     17  C   UNL     1      -0.781  10.475  19.638  0.00  0.00    +0.000 A 
ATOM     18  C   UNL     1       0.010   9.835  20.597  0.00  0.00    +0.000 A 
ATOM     19  C   UNL     1       1.115   9.064  20.192  0.00  0.00    +0.000 A 
ENDBRANCH  13  14
ENDBRANCH  11  13
ENDBRANCH   5  11
BRANCH  10  20
ATOM     20  C   UNL     1       4.869   4.259  16.900  0.00  0.00    +0.000 C 
BRANCH  20  21
ATOM     21  C   UNL     1       5.703   5.341  17.530  0.00  0.00    +0.000 A 
ATOM     22  C   UNL     1       6.499   5.001  18.629  0.00  0.00    +0.000 A 
ATOM     23  C   UNL     1       7.539   5.840  19.020  0.00  0.00    +0.000 A 
ATOM     24  C   UNL     1       7.772   7.020  18.324  0.00  0.00    +0.000 A 
ATOM     25  F   UNL     1       8.850   7.755  18.625  0.00  0.00    +0.000 F 
ATOM     26  C   UNL     1       6.938   7.418  17.291  0.00  0.00    +0.000 A 
ATOM     27  C   UNL     1       5.885   6.588  16.901  0.00  0.00    +0.000 A 
ENDBRANCH  20  21
ENDBRANCH  10  20
TORSDOF 5
ENDMDL
MODEL 6
REMARK VINA RESULT:      -7.2      2.079      5.569
REMARK  Name = 
REMARK  6 active torsions:
REMARK  status: ('A' for Active; 'I' for Inactive)
REMARK    1  A    between atoms: C_1  and  C_2
REMARK    2  A    between atoms: C_5  and  N_6
REMARK    3  A    between atoms: N_6  and  C_7
REMARK    4  A    between atoms: C_7  and  C_8
REMARK    5  A    between atoms: N_18  and  C_19
REMARK    6  A    between atoms: C_19  and  C_20
REMARK                            x       y       z     vdW  Elec       q    Type
REMARK                         _______ _______ _______ _____ _____    ______ ____
ROOT
ATOM      1  C   UNL     1       1.967   3.231  21.472  0.00  0.00    +0.000 C 
ATOM      2  C   UNL     1       2.314   4.358  20.551  0.00  0.00    +0.000 A 
ATOM      3  N   UNL     1       2.218   5.637  20.948  0.00  0.00    +0.000 NA
ATOM      4  N   UNL     1       2.469   6.701  20.051  0.00  0.00    +0.000 NA
ATOM      5  C   UNL     1       2.834   6.554  18.742  0.00  0.00    +0.000 A 
ATOM      6  C   UNL     1       3.059   5.202  18.376  0.00  0.00    +0.000 A 
ATOM      7  C   UNL     1       2.762   4.144  19.252  0.00  0.00    +0.000 A 
ATOM      8  N   UNL     1       2.952   2.933  18.653  0.00  0.00    +0.000 NA
ATOM      9  N   UNL     1       3.372   3.156  17.431  0.00  0.00    +0.000 NA
ATOM     10  N   UNL     1       3.544   4.493  17.292  0.00  0.00    +0.000 N 
ENDROOT
BRANCH   5  11
ATOM     11  N   UNL     1       2.881   7.690  17.924  0.00  0.00    +0.000 N 
ATOM     12  H   UNL     1       3.760   8.128  17.705  0.00  0.00    +0.000 HD
BRANCH  11  13
ATOM     13  C   UNL     1       1.648   8.458  17.638  0.00  0.00    +0.000 C 
BRANCH  13  14
ATOM     14  C   UNL     1       1.500   9.789  18.393  0.00  0.00    +0.000 A 
ATOM     15  C   UNL     1       0.826   9.896  19.613  0.00  0.00    +0.000 A 
ATOM     16  C   UNL     1       0.723  11.125  20.290  0.00  0.00    +0.000 A 
ATOM     17  C   UNL     1       1.323  12.271  19.779  0.00  0.00    +0.000 A 
ATOM     18  C   UNL     1       2.060  12.182  18.595  0.00  0.00    +0.000 A 
ATOM     19  C   UNL     1       2.159  10.951  17.921  0.00  0.00    +0.000 A 
ENDBRANCH  13  14
ENDBRANCH  11  13
ENDBRANCH   5  11
BRANCH  10  20
ATOM     20  C   UNL     1       4.524   4.856  16.293  0.00  0.00    +0.000 C 
BRANCH  20  21
ATOM     21  C   UNL     1       5.822   5.384  16.838  0.00  0.00    +0.000 A 
ATOM     22  C   UNL     1       6.116   6.738  16.643  0.00  0.00    +0.000 A 
ATOM     23  C   UNL     1       7.097   7.355  17.413  0.00  0.00    +0.000 A 
ATOM     24  C   UNL     1       7.792   6.617  18.365  0.00  0.00    +0.000 A 
ATOM     25  F   UNL     1       8.642   7.245  19.186  0.00  0.00    +0.000 F 
ATOM     26  C   UNL     1       7.580   5.255  18.509  0.00  0.00    +0.000 A 
ATOM     27  C   UNL     1       6.606   4.627  17.731  0.00  0.00    +0.000 A 
ENDBRANCH  20  21
ENDBRANCH  10  20
TORSDOF 5
ENDMDL
MODEL 7
REMARK VINA RESULT:      -7.2      2.067      5.570
REMARK  Name = 
REMARK  6 active torsions:
REMARK  status: ('A' for Active; 'I' for Inactive)
REMARK    1  A    between atoms: C_1  and  C_2
REMARK    2  A    between atoms: C_5  and  N_6
REMARK    3  A    between atoms: N_6  and  C_7
REMARK    4  A    between atoms: C_7  and  C_8
REMARK    5  A    between atoms: N_18  and  C_19
REMARK    6  A    between atoms: C_19  and  C_20
REMARK                            x       y       z     vdW  Elec       q    Type
REMARK                         _______ _______ _______ _____ _____    ______ ____
ROOT
ATOM      1  C   UNL     1       1.561   2.814  21.405  0.00  0.00    +0.000 C 
ATOM      2  C   UNL     1       2.045   3.954  20.563  0.00  0.00    +0.000 A 
ATOM      3  N   UNL     1       2.054   5.211  21.034  0.00  0.00    +0.000 NA
ATOM      4  N   UNL     1       2.435   6.295  20.210  0.00  0.00    +0.000 NA
ATOM      5  C   UNL     1       2.832   6.190  18.906  0.00  0.00    +0.000 A 
ATOM      6  C   UNL     1       2.943   4.846  18.467  0.00  0.00    +0.000 A 
ATOM      7  C   UNL     1       2.518   3.772  19.269  0.00  0.00    +0.000 A 
ATOM      8  N   UNL     1       2.615   2.585  18.604  0.00  0.00    +0.000 NA
ATOM      9  N   UNL     1       3.097   2.836  17.411  0.00  0.00    +0.000 NA
ATOM     10  N   UNL     1       3.398   4.156  17.357  0.00  0.00    +0.000 N 
ENDROOT
BRANCH   5  11
ATOM     11  N   UNL     1       3.014   7.361  18.160  0.00  0.00    +0.000 N 
ATOM     12  H   UNL     1       3.921   7.792  18.097  0.00  0.00    +0.000 HD
BRANCH  11  13
ATOM     13  C   UNL     1       1.847   8.163  17.729  0.00  0.00    +0.000 C 
BRANCH  13  14
ATOM     14  C   UNL     1       1.624   9.479  18.492  0.00  0.00    +0.000 A 
ATOM     15  C   UNL     1       1.986  10.725  17.973  0.00  0.00    +0.000 A 
ATOM     16  C   UNL     1       1.753  11.915  18.688  0.00  0.00    +0.000 A 
ATOM     17  C   UNL     1       1.120  11.889  19.926  0.00  0.00    +0.000 A 
ATOM     18  C   UNL     1       0.686  10.664  20.442  0.00  0.00    +0.000 A 
ATOM     19  C   UNL     1       0.923   9.478  19.724  0.00  0.00    +0.000 A 
ENDBRANCH  13  14
ENDBRANCH  11  13
ENDBRANCH   5  11
BRANCH  10  20
ATOM     20  C   UNL     1       4.443   4.481  16.412  0.00  0.00    +0.000 C 
BRANCH  20  21
ATOM     21  C   UNL     1       5.721   4.983  17.025  0.00  0.00    +0.000 A 
ATOM     22  C   UNL     1       6.384   6.039  16.391  0.00  0.00    +0.000 A 
ATOM     23  C   UNL     1       7.345   6.772  17.080  0.00  0.00    +0.000 A 
ATOM     24  C   UNL     1       7.653   6.441  18.395  0.00  0.00    +0.000 A 
ATOM     25  F   UNL     1       8.483   7.228  19.090  0.00  0.00    +0.000 F 
ATOM     26  C   UNL     1       7.074   5.343  19.010  0.00  0.00    +0.000 A 
ATOM     27  C   UNL     1       6.118   4.595  18.320  0.00  0.00    +0.000 A 
ENDBRANCH  20  21
ENDBRANCH  10  20
TORSDOF 5
ENDMDL
MODEL 8
REMARK VINA RESULT:      -7.2      3.153      5.211
REMARK  Name = 
REMARK  6 active torsions:
REMARK  status: ('A' for Active; 'I' for Inactive)
REMARK    1  A    between atoms: C_1  and  C_2
REMARK    2  A    between atoms: C_5  and  N_6
REMARK    3  A    between atoms: N_6  and  C_7
REMARK    4  A    between atoms: C_7  and  C_8
REMARK    5  A    between atoms: N_18  and  C_19
REMARK    6  A    between atoms: C_19  and  C_20
REMARK                            x       y       z     vdW  Elec       q    Type
REMARK                         _______ _______ _______ _____ _____    ______ ____
ROOT
ATOM      1  C   UNL     1       8.524   8.213  18.059  0.00  0.00    +0.000 C 
ATOM      2  C   UNL     1       7.659   7.016  18.305  0.00  0.00    +0.000 A 
ATOM      3  N   UNL     1       8.037   6.049  19.156  0.00  0.00    +0.000 NA
ATOM      4  N   UNL     1       7.257   4.882  19.326  0.00  0.00    +0.000 NA
ATOM      5  C   UNL     1       6.078   4.625  18.684  0.00  0.00    +0.000 A 
ATOM      6  C   UNL     1       5.628   5.713  17.892  0.00  0.00    +0.000 A 
ATOM      7  C   UNL     1       6.427   6.851  17.684  0.00  0.00    +0.000 A 
ATOM      8  N   UNL     1       5.843   7.715  16.805  0.00  0.00    +0.000 NA
ATOM      9  N   UNL     1       4.695   7.197  16.442  0.00  0.00    +0.000 NA
ATOM     10  N   UNL     1       4.507   6.065  17.162  0.00  0.00    +0.000 N 
ENDROOT
BRANCH   5  11
ATOM     11  N   UNL     1       5.500   3.356  18.816  0.00  0.00    +0.000 N 
ATOM     12  H   UNL     1       5.325   2.786  18.006  0.00  0.00    +0.000 HD
BRANCH  11  13
ATOM     13  C   UNL     1       4.838   2.964  20.082  0.00  0.00    +0.000 C 
BRANCH  13  14
ATOM     14  C   UNL     1       3.308   2.830  20.021  0.00  0.00    +0.000 A 
ATOM     15  C   UNL     1       2.486   3.033  21.133  0.00  0.00    +0.000 A 
ATOM     16  C   UNL     1       1.086   2.920  21.042  0.00  0.00    +0.000 A 
ATOM     17  C   UNL     1       0.473   2.635  19.826  0.00  0.00    +0.000 A 
ATOM     18  C   UNL     1       1.264   2.492  18.683  0.00  0.00    +0.000 A 
ATOM     19  C   UNL     1       2.662   2.604  18.780  0.00  0.00    +0.000 A 
ENDBRANCH  13  14
ENDBRANCH  11  13
ENDBRANCH   5  11
BRANCH  10  20
ATOM     20  C   UNL     1       3.117   5.711  17.345  0.00  0.00    +0.000 C 
BRANCH  20  21
ATOM     21  C   UNL     1       2.348   6.611  18.273  0.00  0.00    +0.000 A 
ATOM     22  C   UNL     1       2.205   6.213  19.607  0.00  0.00    +0.000 A 
ATOM     23  C   UNL     1       1.833   7.141  20.574  0.00  0.00    +0.000 A 
ATOM     24  C   UNL     1       1.590   8.460  20.206  0.00  0.00    +0.000 A 
ATOM     25  F   UNL     1       1.357   9.371  21.159  0.00  0.00    +0.000 F 
ATOM     26  C   UNL     1       1.637   8.853  18.879  0.00  0.00    +0.000 A 
ATOM     27  C   UNL     1       1.998   7.924  17.901  0.00  0.00    +0.000 A 
ENDBRANCH  20  21
ENDBRANCH  10  20
TORSDOF 5
ENDMDL
MODEL 9
REMARK VINA RESULT:      -7.1      2.053      5.466
REMARK  Name = 
REMARK  6 active torsions:
REMARK  status: ('A' for Active; 'I' for Inactive)
REMARK    1  A    between atoms: C_1  and  C_2
REMARK    2  A    between atoms: C_5  and  N_6
REMARK    3  A    between atoms: N_6  and  C_7
REMARK    4  A    between atoms: C_7  and  C_8
REMARK    5  A    between atoms: N_18  and  C_19
REMARK    6  A    between atoms: C_19  and  C_20
REMARK                            x       y       z     vdW  Elec       q    Type
REMARK                         _______ _______ _______ _____ _____    ______ ____
ROOT
ATOM      1  C   UNL     1       1.793   2.106  21.875  0.00  0.00    +0.000 C 
ATOM      2  C   UNL     1       2.017   3.273  20.964  0.00  0.00    +0.000 A 
ATOM      3  N   UNL     1       1.060   4.193  20.763  0.00  0.00    +0.000 NA
ATOM      4  N   UNL     1       1.245   5.249  19.841  0.00  0.00    +0.000 NA
ATOM      5  C   UNL     1       2.372   5.451  19.094  0.00  0.00    +0.000 A 
ATOM      6  C   UNL     1       3.420   4.550  19.415  0.00  0.00    +0.000 A 
ATOM      7  C   UNL     1       3.220   3.472  20.295  0.00  0.00    +0.000 A 
ATOM      8  N   UNL     1       4.326   2.677  20.369  0.00  0.00    +0.000 NA
ATOM      9  N   UNL     1       5.242   3.198  19.588  0.00  0.00    +0.000 NA
ATOM     10  N   UNL     1       4.755   4.366  19.104  0.00  0.00    +0.000 N 
ENDROOT
BRANCH   5  11
ATOM     11  N   UNL     1       2.353   6.433  18.097  0.00  0.00    +0.000 N 
ATOM     12  H   UNL     1       2.320   6.176  17.125  0.00  0.00    +0.000 HD
BRANCH  11  13
ATOM     13  C   UNL     1       2.711   7.834  18.419  0.00  0.00    +0.000 C 
BRANCH  13  14
ATOM     14  C   UNL     1       1.560   8.716  18.931  0.00  0.00    +0.000 A 
ATOM     15  C   UNL     1       1.222   8.808  20.284  0.00  0.00    +0.000 A 
ATOM     16  C   UNL     1       0.175   9.638  20.724  0.00  0.00    +0.000 A 
ATOM     17  C   UNL     1      -0.538  10.423  19.824  0.00  0.00    +0.000 A 
ATOM     18  C   UNL     1      -0.180  10.402  18.473  0.00  0.00    +0.000 A 
ATOM     19  C   UNL     1       0.867   9.569  18.038  0.00  0.00    +0.000 A 
ENDBRANCH  13  14
ENDBRANCH  11  13
ENDBRANCH   5  11
BRANCH  10  20
ATOM     20  C   UNL     1       5.778   5.324  18.748  0.00  0.00    +0.000 C 
BRANCH  20  21
ATOM     21  C   UNL     1       6.117   5.378  17.284  0.00  0.00    +0.000 A 
ATOM     22  C   UNL     1       7.177   4.589  16.824  0.00  0.00    +0.000 A 
ATOM     23  C   UNL     1       7.306   4.321  15.464  0.00  0.00    +0.000 A 
ATOM     24  C   UNL     1       6.386   4.852  14.566  0.00  0.00    +0.000 A 
ATOM     25  F   UNL     1       6.443   4.486  13.280  0.00  0.00    +0.000 F 
ATOM     26  C   UNL     1       5.385   5.709  14.992  0.00  0.00    +0.000 A 
ATOM     27  C   UNL     1       5.257   5.993  16.353  0.00  0.00    +0.000 A 
ENDBRANCH  20  21
ENDBRANCH  10  20
TORSDOF 5
ENDMDL
