MODEL 1
REMARK VINA RESULT:      -8.5      0.000      0.000
REMARK  Name = 
REMARK  5 active torsions:
REMARK  status: ('A' for Active; 'I' for Inactive)
REMARK    1  A    between atoms: C_1  and  N_2
REMARK    2  A    between atoms: C_9  and  N_10
REMARK    3  A    between atoms: C_11  and  C_13
REMARK    4  A    between atoms: N_15  and  S_16
REMARK    5  A    between atoms: S_16  and  C_17
REMARK                            x       y       z     vdW  Elec       q    Type
REMARK                         _______ _______ _______ _____ _____    ______ ____
ROOT
ATOM      1  N   UNL     1       1.491   8.868  18.839  0.00  0.00    +0.000 N 
ATOM      2  C   UNL     1       1.957   7.731  19.459  0.00  0.00    +0.000 C 
ATOM      3  O   UNL     1       1.679   7.440  20.615  0.00  0.00    +0.000 OA
ATOM      4  H   UNL     1       1.520   8.866  17.828  0.00  0.00    +0.000 HD
ENDROOT
BRANCH   1  13
ATOM      5  C   UNL     1       0.090  13.986  18.519  0.00  0.00    +0.000 C 
ATOM      6  N   UNL     1       0.303  12.565  18.780  0.00  0.00    +0.000 NA
ATOM      7  C   UNL     1      -0.918  11.761  18.552  0.00  0.00    +0.000 C 
ATOM      8  C   UNL     1      -1.990  11.928  19.657  0.00  0.00    +0.000 C 
ATOM      9  O   UNL     1      -1.466  11.654  20.960  0.00  0.00    +0.000 OA
ATOM     10  C   UNL     1      -0.338  12.490  21.227  0.00  0.00    +0.000 C 
ATOM     11  C   UNL     1       0.764  12.308  20.160  0.00  0.00    +0.000 C 
ATOM     12  C   UNL     1       1.347  10.888  20.191  0.00  0.00    +0.000 C 
ATOM     13  C   UNL     1       0.535   9.802  19.460  0.00  0.00    +0.000 C 
ATOM     14  C   UNL     1      -0.465  10.302  18.401  0.00  0.00    +0.000 C 
ENDBRANCH   1  13
BRANCH   2  15
ATOM     15  C   UNL     1       2.797   6.881  18.614  0.00  0.00    +0.000 A 
ATOM     16  C   UNL     1       3.964   7.249  17.959  0.00  0.00    +0.000 A 
ATOM     17  N   UNL     1       4.455   6.146  17.310  0.00  0.00    +0.000 N 
ATOM     18  C   UNL     1       3.647   5.047  17.497  0.00  0.00    +0.000 A 
ATOM     19  C   UNL     1       3.724   3.718  17.035  0.00  0.00    +0.000 A 
ATOM     20  C   UNL     1       2.716   2.828  17.413  0.00  0.00    +0.000 A 
ATOM     21  C   UNL     1       1.664   3.253  18.209  0.00  0.00    +0.000 A 
ATOM     22  F   UNL     1       0.700   2.383  18.540  0.00  0.00    +0.000 F 
ATOM     23  C   UNL     1       1.582   4.566  18.667  0.00  0.00    +0.000 A 
ATOM     24  C   UNL     1       2.593   5.487  18.314  0.00  0.00    +0.000 A 
BRANCH  17  25
ATOM     25  S   UNL     1       5.934   6.136  16.455  0.00  0.00    +0.000 S 
ATOM     26  C   UNL     1       6.888   4.756  17.034  0.00  0.00    +0.000 C 
ATOM     27  O   UNL     1       5.560   5.891  15.075  0.00  0.00    +0.000 OA
ATOM     28  O   UNL     1       6.614   7.359  16.846  0.00  0.00    +0.000 OA
ENDBRANCH  17  25
ENDBRANCH   2  15
TORSDOF 3
ENDMDL
MODEL 2
REMARK VINA RESULT:      -8.4      1.371      1.934
REMARK  Name = 
REMARK  5 active torsions:
REMARK  status: ('A' for Active; 'I' for Inactive)
REMARK    1  A    between atoms: C_1  and  N_2
REMARK    2  A    between atoms: C_9  and  N_10
REMARK    3  A    between atoms: C_11  and  C_13
REMARK    4  A    between atoms: N_15  and  S_16
REMARK    5  A    between atoms: S_16  and  C_17
REMARK                            x       y       z     vdW  Elec       q    Type
REMARK                         _______ _______ _______ _____ _____    ______ ____
ROOT
ATOM      1  N   UNL     1       2.130   8.881  17.557  0.00  0.00    +0.000 N 
ATOM      2  C   UNL     1       2.405   7.906  18.488  0.00  0.00    +0.000 C 
ATOM      3  O   UNL     1       1.987   7.943  19.638  0.00  0.00    +0.000 OA
ATOM      4  H   UNL     1       2.256   8.619  16.588  0.00  0.00    +0.000 HD
ENDROOT
BRANCH   1  13
ATOM      5  C   UNL     1      -0.117  11.388  21.670  0.00  0.00    +0.000 C 
ATOM      6  N   UNL     1       0.382  10.863  20.403  0.00  0.00    +0.000 NA
ATOM      7  C   UNL     1       1.138  11.875  19.632  0.00  0.00    +0.000 C 
ATOM      8  C   UNL     1       0.242  12.953  18.973  0.00  0.00    +0.000 C 
ATOM      9  O   UNL     1      -0.775  12.376  18.147  0.00  0.00    +0.000 OA
ATOM     10  C   UNL     1      -1.569  11.462  18.906  0.00  0.00    +0.000 C 
ATOM     11  C   UNL     1      -0.702  10.351  19.538  0.00  0.00    +0.000 C 
ATOM     12  C   UNL     1      -0.052   9.466  18.465  0.00  0.00    +0.000 C 
ATOM     13  C   UNL     1       1.228  10.018  17.810  0.00  0.00    +0.000 C 
ATOM     14  C   UNL     1       1.976  11.109  18.599  0.00  0.00    +0.000 C 
ENDBRANCH   1  13
BRANCH   2  15
ATOM     15  C   UNL     1       3.225   6.801  17.984  0.00  0.00    +0.000 A 
ATOM     16  C   UNL     1       4.506   6.885  17.458  0.00  0.00    +0.000 A 
ATOM     17  N   UNL     1       4.922   5.619  17.143  0.00  0.00    +0.000 N 
ATOM     18  C   UNL     1       3.954   4.682  17.429  0.00  0.00    +0.000 A 
ATOM     19  C   UNL     1       3.908   3.281  17.278  0.00  0.00    +0.000 A 
ATOM     20  C   UNL     1       2.747   2.612  17.673  0.00  0.00    +0.000 A 
ATOM     21  C   UNL     1       1.669   3.316  18.185  0.00  0.00    +0.000 A 
ATOM     22  F   UNL     1       0.560   2.651  18.538  0.00  0.00    +0.000 F 
ATOM     23  C   UNL     1       1.708   4.699  18.336  0.00  0.00    +0.000 A 
ATOM     24  C   UNL     1       2.872   5.405  17.959  0.00  0.00    +0.000 A 
BRANCH  17  25
ATOM     25  S   UNL     1       6.483   5.258  16.552  0.00  0.00    +0.000 S 
ATOM     26  C   UNL     1       6.297   4.358  15.033  0.00  0.00    +0.000 C 
ATOM     27  O   UNL     1       7.071   6.551  16.252  0.00  0.00    +0.000 OA
ATOM     28  O   UNL     1       7.074   4.372  17.540  0.00  0.00    +0.000 OA
ENDBRANCH  17  25
ENDBRANCH   2  15
TORSDOF 3
ENDMDL
MODEL 3
REMARK VINA RESULT:      -8.2      3.360      8.182
REMARK  Name = 
REMARK  5 active torsions:
REMARK  status: ('A' for Active; 'I' for Inactive)
REMARK    1  A    between atoms: C_1  and  N_2
REMARK    2  A    between atoms: C_9  and  N_10
REMARK    3  A    between atoms: C_11  and  C_13
REMARK    4  A    between atoms: N_15  and  S_16
REMARK    5  A    between atoms: S_16  and  C_17
REMARK                            x       y       z     vdW  Elec       q    Type
REMARK                         _______ _______ _______ _____ _____    ______ ____
ROOT
ATOM      1  N   UNL     1       1.881   7.128  19.606  0.00  0.00    +0.000 N 
ATOM      2  C   UNL     1       2.024   8.319  18.931  0.00  0.00    +0.000 C 
ATOM      3  O   UNL     1       2.894   8.509  18.090  0.00  0.00    +0.000 OA
ATOM      4  H   UNL     1       0.980   6.968  20.037  0.00  0.00    +0.000 HD
ENDROOT
BRANCH   1  13
ATOM      5  C   UNL     1       1.196   1.916  18.824  0.00  0.00    +0.000 C 
ATOM      6  N   UNL     1       1.622   3.300  19.007  0.00  0.00    +0.000 NA
ATOM      7  C   UNL     1       2.336   3.831  17.825  0.00  0.00    +0.000 C 
ATOM      8  C   UNL     1       3.776   3.281  17.669  0.00  0.00    +0.000 C 
ATOM      9  O   UNL     1       4.563   3.491  18.846  0.00  0.00    +0.000 OA
ATOM     10  C   UNL     1       3.924   2.904  19.981  0.00  0.00    +0.000 C 
ATOM     11  C   UNL     1       2.501   3.470  20.183  0.00  0.00    +0.000 C 
ATOM     12  C   UNL     1       2.534   4.968  20.518  0.00  0.00    +0.000 C 
ATOM     13  C   UNL     1       2.689   5.929  19.325  0.00  0.00    +0.000 C 
ATOM     14  C   UNL     1       2.312   5.361  17.943  0.00  0.00    +0.000 C 
ENDBRANCH   1  13
BRANCH   2  15
ATOM     15  C   UNL     1       1.033   9.339  19.282  0.00  0.00    +0.000 A 
ATOM     16  C   UNL     1       0.367  10.189  18.411  0.00  0.00    +0.000 A 
ATOM     17  N   UNL     1      -0.497  10.959  19.144  0.00  0.00    +0.000 N 
ATOM     18  C   UNL     1      -0.426  10.663  20.486  0.00  0.00    +0.000 A 
ATOM     19  C   UNL     1      -1.095  11.178  21.614  0.00  0.00    +0.000 A 
ATOM     20  C   UNL     1      -0.782  10.648  22.868  0.00  0.00    +0.000 A 
ATOM     21  C   UNL     1       0.173   9.652  22.992  0.00  0.00    +0.000 A 
ATOM     22  F   UNL     1       0.468   9.176  24.210  0.00  0.00    +0.000 F 
ATOM     23  C   UNL     1       0.839   9.140  21.882  0.00  0.00    +0.000 A 
ATOM     24  C   UNL     1       0.536   9.644  20.599  0.00  0.00    +0.000 A 
BRANCH  17  25
ATOM     25  S   UNL     1      -1.583  12.079  18.449  0.00  0.00    +0.000 S 
ATOM     26  C   UNL     1      -2.263  11.342  16.984  0.00  0.00    +0.000 C 
ATOM     27  O   UNL     1      -2.645  12.220  19.428  0.00  0.00    +0.000 OA
ATOM     28  O   UNL     1      -0.767  13.214  18.054  0.00  0.00    +0.000 OA
ENDBRANCH  17  25
ENDBRANCH   2  15
TORSDOF 3
ENDMDL
MODEL 4
REMARK VINA RESULT:      -8.1      1.066      1.206
REMARK  Name = 
REMARK  5 active torsions:
REMARK  status: ('A' for Active; 'I' for Inactive)
REMARK    1  A    between atoms: C_1  and  N_2
REMARK    2  A    between atoms: C_9  and  N_10
REMARK    3  A    between atoms: C_11  and  C_13
REMARK    4  A    between atoms: N_15  and  S_16
REMARK    5  A    between atoms: S_16  and  C_17
REMARK                            x       y       z     vdW  Elec       q    Type
REMARK                         _______ _______ _______ _____ _____    ______ ____
ROOT
ATOM      1  N   UNL     1       1.699   8.411  19.155  0.00  0.00    +0.000 N 
ATOM      2  C   UNL     1       1.972   7.235  19.816  0.00  0.00    +0.000 C 
ATOM      3  O   UNL     1       1.509   6.964  20.916  0.00  0.00    +0.000 OA
ATOM      4  H   UNL     1       1.872   8.410  18.159  0.00  0.00    +0.000 HD
ENDROOT
BRANCH   1  13
ATOM      5  C   UNL     1       1.016  13.680  19.032  0.00  0.00    +0.000 C 
ATOM      6  N   UNL     1       0.998  12.230  19.198  0.00  0.00    +0.000 NA
ATOM      7  C   UNL     1      -0.230  11.615  18.648  0.00  0.00    +0.000 C 
ATOM      8  C   UNL     1      -1.489  11.853  19.518  0.00  0.00    +0.000 C 
ATOM      9  O   UNL     1      -1.297  11.424  20.870  0.00  0.00    +0.000 OA
ATOM     10  C   UNL     1      -0.164  12.080  21.441  0.00  0.00    +0.000 C 
ATOM     11  C   UNL     1       1.115  11.822  20.613  0.00  0.00    +0.000 C 
ATOM     12  C   UNL     1       1.505  10.337  20.631  0.00  0.00    +0.000 C 
ATOM     13  C   UNL     1       0.749   9.422  19.650  0.00  0.00    +0.000 C 
ATOM     14  C   UNL     1       0.069  10.121  18.458  0.00  0.00    +0.000 C 
ENDBRANCH   1  13
BRANCH   2  15
ATOM     15  C   UNL     1       2.849   6.317  19.085  0.00  0.00    +0.000 A 
ATOM     16  C   UNL     1       4.131   6.579  18.623  0.00  0.00    +0.000 A 
ATOM     17  N   UNL     1       4.610   5.442  18.026  0.00  0.00    +0.000 N 
ATOM     18  C   UNL     1       3.684   4.424  18.060  0.00  0.00    +0.000 A 
ATOM     19  C   UNL     1       3.705   3.099  17.581  0.00  0.00    +0.000 A 
ATOM     20  C   UNL     1       2.572   2.306  17.779  0.00  0.00    +0.000 A 
ATOM     21  C   UNL     1       1.456   2.821  18.418  0.00  0.00    +0.000 A 
ATOM     22  F   UNL     1       0.375   2.044  18.578  0.00  0.00    +0.000 F 
ATOM     23  C   UNL     1       1.429   4.130  18.893  0.00  0.00    +0.000 A 
ATOM     24  C   UNL     1       2.563   4.953  18.721  0.00  0.00    +0.000 A 
BRANCH  17  25
ATOM     25  S   UNL     1       6.194   5.299  17.404  0.00  0.00    +0.000 S 
ATOM     26  C   UNL     1       6.951   6.903  17.468  0.00  0.00    +0.000 C 
ATOM     27  O   UNL     1       6.881   4.428  18.339  0.00  0.00    +0.000 OA
ATOM     28  O   UNL     1       6.028   4.927  16.009  0.00  0.00    +0.000 OA
ENDBRANCH  17  25
ENDBRANCH   2  15
TORSDOF 3
ENDMDL
MODEL 5
REMARK VINA RESULT:      -8.0      1.434      1.967
REMARK  Name = 
REMARK  5 active torsions:
REMARK  status: ('A' for Active; 'I' for Inactive)
REMARK    1  A    between atoms: C_1  and  N_2
REMARK    2  A    between atoms: C_9  and  N_10
REMARK    3  A    between atoms: C_11  and  C_13
REMARK    4  A    between atoms: N_15  and  S_16
REMARK    5  A    between atoms: S_16  and  C_17
REMARK                            x       y       z     vdW  Elec       q    Type
REMARK                         _______ _______ _______ _____ _____    ______ ____
ROOT
ATOM      1  N   UNL     1       1.796   9.015  17.814  0.00  0.00    +0.000 N 
ATOM      2  C   UNL     1       2.081   8.167  18.859  0.00  0.00    +0.000 C 
ATOM      3  O   UNL     1       1.721   8.380  20.009  0.00  0.00    +0.000 OA
ATOM      4  H   UNL     1       1.865   8.617  16.887  0.00  0.00    +0.000 HD
ENDROOT
BRANCH   1  13
ATOM      5  C   UNL     1      -0.300  12.056  21.637  0.00  0.00    +0.000 C 
ATOM      6  N   UNL     1       0.164  11.373  20.433  0.00  0.00    +0.000 NA
ATOM      7  C   UNL     1       0.960  12.259  19.555  0.00  0.00    +0.000 C 
ATOM      8  C   UNL     1       0.110  13.300  18.785  0.00  0.00    +0.000 C 
ATOM      9  O   UNL     1      -0.939  12.686  18.030  0.00  0.00    +0.000 OA
ATOM     10  C   UNL     1      -1.768  11.898  18.885  0.00  0.00    +0.000 C 
ATOM     11  C   UNL     1      -0.948  10.822  19.632  0.00  0.00    +0.000 C 
ATOM     12  C   UNL     1      -0.349   9.797  18.659  0.00  0.00    +0.000 C 
ATOM     13  C   UNL     1       0.950  10.214  17.945  0.00  0.00    +0.000 C 
ATOM     14  C   UNL     1       1.754  11.347  18.608  0.00  0.00    +0.000 C 
ENDBRANCH   1  13
BRANCH   2  15
ATOM     15  C   UNL     1       2.834   6.969  18.480  0.00  0.00    +0.000 A 
ATOM     16  C   UNL     1       3.867   6.890  17.556  0.00  0.00    +0.000 A 
ATOM     17  N   UNL     1       4.318   5.597  17.530  0.00  0.00    +0.000 N 
ATOM     18  C   UNL     1       3.612   4.796  18.399  0.00  0.00    +0.000 A 
ATOM     19  C   UNL     1       3.695   3.425  18.715  0.00  0.00    +0.000 A 
ATOM     20  C   UNL     1       2.808   2.910  19.662  0.00  0.00    +0.000 A 
ATOM     21  C   UNL     1       1.864   3.729  20.261  0.00  0.00    +0.000 A 
ATOM     22  F   UNL     1       1.011   3.205  21.152  0.00  0.00    +0.000 F 
ATOM     23  C   UNL     1       1.776   5.084  19.952  0.00  0.00    +0.000 A 
ATOM     24  C   UNL     1       2.667   5.639  19.009  0.00  0.00    +0.000 A 
BRANCH  17  25
ATOM     25  S   UNL     1       5.650   5.082  16.593  0.00  0.00    +0.000 S 
ATOM     26  C   UNL     1       6.983   4.705  17.703  0.00  0.00    +0.000 C 
ATOM     27  O   UNL     1       5.208   3.849  15.969  0.00  0.00    +0.000 OA
ATOM     28  O   UNL     1       6.031   6.236  15.796  0.00  0.00    +0.000 OA
ENDBRANCH  17  25
ENDBRANCH   2  15
TORSDOF 3
ENDMDL
MODEL 6
REMARK VINA RESULT:      -8.0      3.279      8.128
REMARK  Name = 
REMARK  5 active torsions:
REMARK  status: ('A' for Active; 'I' for Inactive)
REMARK    1  A    between atoms: C_1  and  N_2
REMARK    2  A    between atoms: C_9  and  N_10
REMARK    3  A    between atoms: C_11  and  C_13
REMARK    4  A    between atoms: N_15  and  S_16
REMARK    5  A    between atoms: S_16  and  C_17
REMARK                            x       y       z     vdW  Elec       q    Type
REMARK                         _______ _______ _______ _____ _____    ______ ____
ROOT
ATOM      1  N   UNL     1       1.850   7.802  19.292  0.00  0.00    +0.000 N 
ATOM      2  C   UNL     1       1.774   8.889  18.451  0.00  0.00    +0.000 C 
ATOM      3  O   UNL     1       2.377   8.953  17.388  0.00  0.00    +0.000 OA
ATOM      4  H   UNL     1       1.105   7.714  19.971  0.00  0.00    +0.000 HD
ENDROOT
BRANCH   1  13
ATOM      5  C   UNL     1       0.996   2.559  19.116  0.00  0.00    +0.000 C 
ATOM      6  N   UNL     1       1.457   3.945  19.091  0.00  0.00    +0.000 NA
ATOM      7  C   UNL     1       1.927   4.358  17.751  0.00  0.00    +0.000 C 
ATOM      8  C   UNL     1       3.305   3.764  17.364  0.00  0.00    +0.000 C 
ATOM      9  O   UNL     1       4.309   4.055  18.341  0.00  0.00    +0.000 OA
ATOM     10  C   UNL     1       3.903   3.579  19.625  0.00  0.00    +0.000 C 
ATOM     11  C   UNL     1       2.551   4.192  20.052  0.00  0.00    +0.000 C 
ATOM     12  C   UNL     1       2.658   5.712  20.243  0.00  0.00    +0.000 C 
ATOM     13  C   UNL     1       2.580   6.566  18.964  0.00  0.00    +0.000 C 
ATOM     14  C   UNL     1       1.935   5.893  17.738  0.00  0.00    +0.000 C 
ENDBRANCH   1  13
BRANCH   2  15
ATOM     15  C   UNL     1       0.892   9.960  18.921  0.00  0.00    +0.000 A 
ATOM     16  C   UNL     1       1.167  10.893  19.910  0.00  0.00    +0.000 A 
ATOM     17  N   UNL     1       0.091  11.735  20.012  0.00  0.00    +0.000 N 
ATOM     18  C   UNL     1      -0.908  11.392  19.129  0.00  0.00    +0.000 A 
ATOM     19  C   UNL     1      -2.180  11.937  18.870  0.00  0.00    +0.000 A 
ATOM     20  C   UNL     1      -2.969  11.335  17.887  0.00  0.00    +0.000 A 
ATOM     21  C   UNL     1      -2.510  10.222  17.200  0.00  0.00    +0.000 A 
ATOM     22  F   UNL     1      -3.296   9.653  16.276  0.00  0.00    +0.000 F 
ATOM     23  C   UNL     1      -1.254   9.678  17.453  0.00  0.00    +0.000 A 
ATOM     24  C   UNL     1      -0.426  10.271  18.431  0.00  0.00    +0.000 A 
BRANCH  17  25
ATOM     25  S   UNL     1       0.051  13.092  21.050  0.00  0.00    +0.000 S 
ATOM     26  C   UNL     1      -1.020  12.705  22.411  0.00  0.00    +0.000 C 
ATOM     27  O   UNL     1       1.407  13.212  21.552  0.00  0.00    +0.000 OA
ATOM     28  O   UNL     1      -0.562  14.155  20.272  0.00  0.00    +0.000 OA
ENDBRANCH  17  25
ENDBRANCH   2  15
TORSDOF 3
ENDMDL
MODEL 7
REMARK VINA RESULT:      -8.0      3.276      8.320
REMARK  Name = 
REMARK  5 active torsions:
REMARK  status: ('A' for Active; 'I' for Inactive)
REMARK    1  A    between atoms: C_1  and  N_2
REMARK    2  A    between atoms: C_9  and  N_10
REMARK    3  A    between atoms: C_11  and  C_13
REMARK    4  A    between atoms: N_15  and  S_16
REMARK    5  A    between atoms: S_16  and  C_17
REMARK                            x       y       z     vdW  Elec       q    Type
REMARK                         _______ _______ _______ _____ _____    ______ ____
ROOT
ATOM      1  N   UNL     1       1.932   7.542  18.928  0.00  0.00    +0.000 N 
ATOM      2  C   UNL     1       1.714   8.770  18.347  0.00  0.00    +0.000 C 
ATOM      3  O   UNL     1       2.259   9.124  17.309  0.00  0.00    +0.000 OA
ATOM      4  H   UNL     1       1.230   7.233  19.589  0.00  0.00    +0.000 HD
ENDROOT
BRANCH   1  13
ATOM      5  C   UNL     1       3.690   2.657  20.065  0.00  0.00    +0.000 C 
ATOM      6  N   UNL     1       3.331   3.973  19.544  0.00  0.00    +0.000 NA
ATOM      7  C   UNL     1       2.610   3.890  18.255  0.00  0.00    +0.000 C 
ATOM      8  C   UNL     1       3.520   3.528  17.054  0.00  0.00    +0.000 C 
ATOM      9  O   UNL     1       4.630   4.423  16.932  0.00  0.00    +0.000 OA
ATOM     10  C   UNL     1       5.386   4.442  18.144  0.00  0.00    +0.000 C 
ATOM     11  C   UNL     1       4.509   4.843  19.350  0.00  0.00    +0.000 C 
ATOM     12  C   UNL     1       3.996   6.285  19.217  0.00  0.00    +0.000 C 
ATOM     13  C   UNL     1       2.761   6.488  18.320  0.00  0.00    +0.000 C 
ATOM     14  C   UNL     1       1.901   5.237  18.057  0.00  0.00    +0.000 C 
ENDBRANCH   1  13
BRANCH   2  15
ATOM     15  C   UNL     1       0.755   9.618  19.060  0.00  0.00    +0.000 A 
ATOM     16  C   UNL     1       0.851  10.064  20.371  0.00  0.00    +0.000 A 
ATOM     17  N   UNL     1      -0.234  10.859  20.631  0.00  0.00    +0.000 N 
ATOM     18  C   UNL     1      -1.066  10.954  19.538  0.00  0.00    +0.000 A 
ATOM     19  C   UNL     1      -2.281  11.633  19.321  0.00  0.00    +0.000 A 
ATOM     20  C   UNL     1      -2.887  11.519  18.068  0.00  0.00    +0.000 A 
ATOM     21  C   UNL     1      -2.309  10.744  17.074  0.00  0.00    +0.000 A 
ATOM     22  F   UNL     1      -2.922  10.636  15.887  0.00  0.00    +0.000 F 
ATOM     23  C   UNL     1      -1.109  10.070  17.284  0.00  0.00    +0.000 A 
ATOM     24  C   UNL     1      -0.463  10.176  18.535  0.00  0.00    +0.000 A 
BRANCH  17  25
ATOM     25  S   UNL     1      -0.461  11.692  22.104  0.00  0.00    +0.000 S 
ATOM     26  C   UNL     1      -2.186  12.084  22.249  0.00  0.00    +0.000 C 
ATOM     27  O   UNL     1      -0.121  10.725  23.131  0.00  0.00    +0.000 OA
ATOM     28  O   UNL     1       0.280  12.934  21.964  0.00  0.00    +0.000 OA
ENDBRANCH  17  25
ENDBRANCH   2  15
TORSDOF 3
ENDMDL
MODEL 8
REMARK VINA RESULT:      -7.8      1.003      1.223
REMARK  Name = 
REMARK  5 active torsions:
REMARK  status: ('A' for Active; 'I' for Inactive)
REMARK    1  A    between atoms: C_1  and  N_2
REMARK    2  A    between atoms: C_9  and  N_10
REMARK    3  A    between atoms: C_11  and  C_13
REMARK    4  A    between atoms: N_15  and  S_16
REMARK    5  A    between atoms: S_16  and  C_17
REMARK                            x       y       z     vdW  Elec       q    Type
REMARK                         _______ _______ _______ _____ _____    ______ ____
ROOT
ATOM      1  N   UNL     1       2.058   8.776  18.886  0.00  0.00    +0.000 N 
ATOM      2  C   UNL     1       2.221   7.534  19.457  0.00  0.00    +0.000 C 
ATOM      3  O   UNL     1       1.841   7.265  20.589  0.00  0.00    +0.000 OA
ATOM      4  H   UNL     1       2.122   8.812  17.877  0.00  0.00    +0.000 HD
ENDROOT
BRANCH   1  13
ATOM      5  C   UNL     1      -2.098  11.945  17.919  0.00  0.00    +0.000 C 
ATOM      6  N   UNL     1      -0.937  11.199  18.394  0.00  0.00    +0.000 NA
ATOM      7  C   UNL     1      -1.191  10.523  19.686  0.00  0.00    +0.000 C 
ATOM      8  C   UNL     1      -1.220  11.488  20.898  0.00  0.00    +0.000 C 
ATOM      9  O   UNL     1      -0.027  12.273  20.989  0.00  0.00    +0.000 OA
ATOM     10  C   UNL     1       0.181  13.000  19.776  0.00  0.00    +0.000 C 
ATOM     11  C   UNL     1       0.257  12.054  18.557  0.00  0.00    +0.000 C 
ATOM     12  C   UNL     1       1.477  11.127  18.640  0.00  0.00    +0.000 C 
ATOM     13  C   UNL     1       1.326   9.879  19.530  0.00  0.00    +0.000 C 
ATOM     14  C   UNL     1      -0.117   9.437  19.837  0.00  0.00    +0.000 C 
ENDBRANCH   1  13
BRANCH   2  15
ATOM     15  C   UNL     1       2.869   6.548  18.590  0.00  0.00    +0.000 A 
ATOM     16  C   UNL     1       3.973   6.753  17.773  0.00  0.00    +0.000 A 
ATOM     17  N   UNL     1       4.277   5.565  17.162  0.00  0.00    +0.000 N 
ATOM     18  C   UNL     1       3.405   4.566  17.532  0.00  0.00    +0.000 A 
ATOM     19  C   UNL     1       3.304   3.207  17.175  0.00  0.00    +0.000 A 
ATOM     20  C   UNL     1       2.276   2.449  17.742  0.00  0.00    +0.000 A 
ATOM     21  C   UNL     1       1.375   3.030  18.620  0.00  0.00    +0.000 A 
ATOM     22  F   UNL     1       0.387   2.285  19.133  0.00  0.00    +0.000 F 
ATOM     23  C   UNL     1       1.469   4.373  18.975  0.00  0.00    +0.000 A 
ATOM     24  C   UNL     1       2.505   5.163  18.431  0.00  0.00    +0.000 A 
BRANCH  17  25
ATOM     25  S   UNL     1       5.629   5.349  16.141  0.00  0.00    +0.000 S 
ATOM     26  C   UNL     1       6.879   4.492  17.065  0.00  0.00    +0.000 C 
ATOM     27  O   UNL     1       5.157   4.474  15.084  0.00  0.00    +0.000 OA
ATOM     28  O   UNL     1       6.112   6.689  15.851  0.00  0.00    +0.000 OA
ENDBRANCH  17  25
ENDBRANCH   2  15
TORSDOF 3
ENDMDL
MODEL 9
REMARK VINA RESULT:      -7.8      1.401      1.430
REMARK  Name = 
REMARK  5 active torsions:
REMARK  status: ('A' for Active; 'I' for Inactive)
REMARK    1  A    between atoms: C_1  and  N_2
REMARK    2  A    between atoms: C_9  and  N_10
REMARK    3  A    between atoms: C_11  and  C_13
REMARK    4  A    between atoms: N_15  and  S_16
REMARK    5  A    between atoms: S_16  and  C_17
REMARK                            x       y       z     vdW  Elec       q    Type
REMARK                         _______ _______ _______ _____ _____    ______ ____
ROOT
ATOM      1  N   UNL     1       1.272   8.847  19.272  0.00  0.00    +0.000 N 
ATOM      2  C   UNL     1       1.689   7.808  20.071  0.00  0.00    +0.000 C 
ATOM      3  O   UNL     1       1.365   7.698  21.246  0.00  0.00    +0.000 OA
ATOM      4  H   UNL     1       1.336   8.693  18.274  0.00  0.00    +0.000 HD
ENDROOT
BRANCH   1  13
ATOM      5  C   UNL     1       0.410  14.053  18.631  0.00  0.00    +0.000 C 
ATOM      6  N   UNL     1       0.449  12.629  18.950  0.00  0.00    +0.000 NA
ATOM      7  C   UNL     1      -0.786  11.926  18.539  0.00  0.00    +0.000 C 
ATOM      8  C   UNL     1      -2.004  12.222  19.450  0.00  0.00    +0.000 C 
ATOM      9  O   UNL     1      -1.725  11.946  20.826  0.00  0.00    +0.000 OA
ATOM     10  C   UNL     1      -0.585  12.690  21.259  0.00  0.00    +0.000 C 
ATOM     11  C   UNL     1       0.655  12.378  20.391  0.00  0.00    +0.000 C 
ATOM     12  C   UNL     1       1.094  10.915  20.544  0.00  0.00    +0.000 C 
ATOM     13  C   UNL     1       0.317   9.880  19.709  0.00  0.00    +0.000 C 
ATOM     14  C   UNL     1      -0.449  10.429  18.492  0.00  0.00    +0.000 C 
ENDBRANCH   1  13
BRANCH   2  15
ATOM     15  C   UNL     1       2.539   6.826  19.394  0.00  0.00    +0.000 A 
ATOM     16  C   UNL     1       3.324   7.037  18.269  0.00  0.00    +0.000 A 
ATOM     17  N   UNL     1       3.986   5.871  17.986  0.00  0.00    +0.000 N 
ATOM     18  C   UNL     1       3.663   4.875  18.881  0.00  0.00    +0.000 A 
ATOM     19  C   UNL     1       4.068   3.530  18.999  0.00  0.00    +0.000 A 
ATOM     20  C   UNL     1       3.537   2.770  20.043  0.00  0.00    +0.000 A 
ATOM     21  C   UNL     1       2.625   3.325  20.926  0.00  0.00    +0.000 A 
ATOM     22  F   UNL     1       2.117   2.567  21.907  0.00  0.00    +0.000 F 
ATOM     23  C   UNL     1       2.220   4.653  20.814  0.00  0.00    +0.000 A 
ATOM     24  C   UNL     1       2.749   5.453  19.777  0.00  0.00    +0.000 A 
BRANCH  17  25
ATOM     25  S   UNL     1       5.133   5.718  16.731  0.00  0.00    +0.000 S 
ATOM     26  C   UNL     1       6.737   5.560  17.474  0.00  0.00    +0.000 C 
ATOM     27  O   UNL     1       4.802   4.465  16.079  0.00  0.00    +0.000 OA
ATOM     28  O   UNL     1       5.085   6.979  16.009  0.00  0.00    +0.000 OA
ENDBRANCH  17  25
ENDBRANCH   2  15
TORSDOF 3
ENDMDL
