MODEL 1
REMARK VINA RESULT:      -7.9      0.000      0.000
REMARK  Name = 
REMARK  6 active torsions:
REMARK  status: ('A' for Active; 'I' for Inactive)
REMARK    1  A    between atoms: C_1  and  C_2
REMARK    2  A    between atoms: C_6  and  C_7
REMARK    3  A    between atoms: N_18  and  C_19
REMARK    4  A    between atoms: C_22  and  O_23
REMARK    5  A    between atoms: O_23  and  S_24
REMARK    6  A    between atoms: S_24  and  N_25
REMARK                            x       y       z     vdW  Elec       q    Type
REMARK                         _______ _______ _______ _____ _____    ______ ____
ROOT
ATOM      1  C   UNL     1      -4.185  13.573  21.943  0.00  0.00    +0.000 A 
ATOM      2  C   UNL     1      -4.519  13.497  23.278  0.00  0.00    +0.000 A 
ATOM      3  C   UNL     1      -3.708  12.716  24.055  0.00  0.00    +0.000 A 
ATOM      4  N   UNL     1      -2.642  12.059  23.575  0.00  0.00    +0.000 NA
ATOM      5  C   UNL     1      -2.356  12.185  22.270  0.00  0.00    +0.000 A 
ATOM      6  N   UNL     1      -1.272  11.511  21.771  0.00  0.00    +0.000 N 
ATOM      7  C   UNL     1      -0.474  10.640  22.633  0.00  0.00    +0.000 C 
ATOM      8  C   UNL     1      -0.433   9.221  22.048  0.00  0.00    +0.000 C 
ATOM      9  N   UNL     1       0.004   9.240  20.642  0.00  0.00    +0.000 N 
ATOM     10  C   UNL     1       1.074   8.446  20.291  0.00  0.00    +0.000 C 
ATOM     11  O   UNL     1       1.610   7.725  21.132  0.00  0.00    +0.000 OA
ATOM     12  N   UNL     1       1.508   8.525  18.985  0.00  0.00    +0.000 N 
ATOM     13  C   UNL     1      -0.840  10.092  19.788  0.00  0.00    +0.000 C 
ATOM     14  C   UNL     1      -0.935  11.531  20.347  0.00  0.00    +0.000 C 
ATOM     15  N   UNL     1      -3.100  12.934  21.443  0.00  0.00    +0.000 NA
ATOM     16  H   UNL     1       1.265   9.360  18.479  0.00  0.00    +0.000 HD
ENDROOT
BRANCH   1  22
ATOM     17  C   UNL     1      -7.765  13.604  18.422  0.00  0.00    +0.000 C 
ATOM     18  C   UNL     1      -6.752  14.356  19.234  0.00  0.00    +0.000 A 
ATOM     19  C   UNL     1      -6.545  15.724  19.051  0.00  0.00    +0.000 A 
ATOM     20  C   UNL     1      -5.585  16.392  19.811  0.00  0.00    +0.000 A 
ATOM     21  C   UNL     1      -4.824  15.694  20.753  0.00  0.00    +0.000 A 
ATOM     22  C   UNL     1      -5.004  14.316  20.963  0.00  0.00    +0.000 A 
ATOM     23  C   UNL     1      -5.981  13.667  20.183  0.00  0.00    +0.000 A 
ENDBRANCH   1  22
BRANCH  12  24
ATOM     24  C   UNL     1       2.528   7.726  18.410  0.00  0.00    +0.000 A 
ATOM     25  C   UNL     1       3.497   8.233  17.538  0.00  0.00    +0.000 A 
ATOM     26  C   UNL     1       4.460   7.397  16.966  0.00  0.00    +0.000 A 
ATOM     27  C   UNL     1       4.492   6.042  17.280  0.00  0.00    +0.000 A 
ATOM     28  C   UNL     1       3.542   5.521  18.158  0.00  0.00    +0.000 A 
ATOM     29  C   UNL     1       2.573   6.363  18.729  0.00  0.00    +0.000 A 
BRANCH  27  30
ATOM     30  O   UNL     1       5.452   5.306  16.635  0.00  0.00    +0.000 OA
BRANCH  30  31
ATOM     31  S   UNL     1       6.967   5.188  17.217  0.00  0.00    +0.000 S 
ATOM     32  O   UNL     1       7.781   4.447  16.284  0.00  0.00    +0.000 OA
ATOM     33  O   UNL     1       7.369   6.469  17.755  0.00  0.00    +0.000 OA
BRANCH  31  34
ATOM     34  N   UNL     1       6.768   4.186  18.551  0.00  0.00    +0.000 NA
ATOM     35  H   UNL     1       7.398   3.388  18.515  0.00  0.00    +0.000 HD
ATOM     36  H   UNL     1       5.787   3.962  18.701  0.00  0.00    +0.000 HD
ENDBRANCH  31  34
ENDBRANCH  30  31
ENDBRANCH  27  30
ENDBRANCH  12  24
TORSDOF 5
ENDMDL
MODEL 2
REMARK VINA RESULT:      -7.9      0.907      1.675
REMARK  Name = 
REMARK  6 active torsions:
REMARK  status: ('A' for Active; 'I' for Inactive)
REMARK    1  A    between atoms: C_1  and  C_2
REMARK    2  A    between atoms: C_6  and  C_7
REMARK    3  A    between atoms: N_18  and  C_19
REMARK    4  A    between atoms: C_22  and  O_23
REMARK    5  A    between atoms: O_23  and  S_24
REMARK    6  A    between atoms: S_24  and  N_25
REMARK                            x       y       z     vdW  Elec       q    Type
REMARK                         _______ _______ _______ _____ _____    ______ ____
ROOT
ATOM      1  C   UNL     1      -4.417  13.728  21.402  0.00  0.00    +0.000 A 
ATOM      2  C   UNL     1      -4.740  13.904  22.731  0.00  0.00    +0.000 A 
ATOM      3  C   UNL     1      -3.903  13.311  23.635  0.00  0.00    +0.000 A 
ATOM      4  N   UNL     1      -2.821  12.603  23.279  0.00  0.00    +0.000 NA
ATOM      5  C   UNL     1      -2.547  12.481  21.971  0.00  0.00    +0.000 A 
ATOM      6  N   UNL     1      -1.447  11.753  21.599  0.00  0.00    +0.000 N 
ATOM      7  C   UNL     1      -0.618  11.088  22.604  0.00  0.00    +0.000 C 
ATOM      8  C   UNL     1      -0.540   9.584  22.305  0.00  0.00    +0.000 C 
ATOM      9  N   UNL     1      -0.113   9.342  20.917  0.00  0.00    +0.000 N 
ATOM     10  C   UNL     1       0.978   8.524  20.713  0.00  0.00    +0.000 C 
ATOM     11  O   UNL     1       1.541   7.996  21.672  0.00  0.00    +0.000 OA
ATOM     12  N   UNL     1       1.402   8.361  19.412  0.00  0.00    +0.000 N 
ATOM     13  C   UNL     1      -0.986   9.988  19.924  0.00  0.00    +0.000 C 
ATOM     14  C   UNL     1      -1.119  11.506  20.194  0.00  0.00    +0.000 C 
ATOM     15  N   UNL     1      -3.317  13.035  21.023  0.00  0.00    +0.000 NA
ATOM     16  H   UNL     1       1.131   9.074  18.757  0.00  0.00    +0.000 HD
ENDROOT
BRANCH   1  22
ATOM     17  C   UNL     1      -6.529  17.611  19.020  0.00  0.00    +0.000 C 
ATOM     18  C   UNL     1      -6.312  16.131  19.127  0.00  0.00    +0.000 A 
ATOM     19  C   UNL     1      -6.924  15.241  18.242  0.00  0.00    +0.000 A 
ATOM     20  C   UNL     1      -6.714  13.869  18.377  0.00  0.00    +0.000 A 
ATOM     21  C   UNL     1      -5.896  13.380  19.399  0.00  0.00    +0.000 A 
ATOM     22  C   UNL     1      -5.264  14.245  20.307  0.00  0.00    +0.000 A 
ATOM     23  C   UNL     1      -5.493  15.627  20.148  0.00  0.00    +0.000 A 
ENDBRANCH   1  22
BRANCH  12  24
ATOM     24  C   UNL     1       2.440   7.493  18.990  0.00  0.00    +0.000 A 
ATOM     25  C   UNL     1       2.776   6.316  19.667  0.00  0.00    +0.000 A 
ATOM     26  C   UNL     1       3.833   5.511  19.234  0.00  0.00    +0.000 A 
ATOM     27  C   UNL     1       4.556   5.852  18.095  0.00  0.00    +0.000 A 
ATOM     28  C   UNL     1       4.227   7.015  17.400  0.00  0.00    +0.000 A 
ATOM     29  C   UNL     1       3.166   7.824  17.839  0.00  0.00    +0.000 A 
BRANCH  27  30
ATOM     30  O   UNL     1       5.596   5.016  17.780  0.00  0.00    +0.000 OA
BRANCH  30  31
ATOM     31  S   UNL     1       7.144   5.493  17.926  0.00  0.00    +0.000 S 
ATOM     32  O   UNL     1       7.270   6.855  17.466  0.00  0.00    +0.000 OA
ATOM     33  O   UNL     1       7.658   5.051  19.204  0.00  0.00    +0.000 OA
BRANCH  31  34
ATOM     34  N   UNL     1       7.926   4.547  16.779  0.00  0.00    +0.000 NA
ATOM     35  H   UNL     1       8.743   5.019  16.399  0.00  0.00    +0.000 HD
ATOM     36  H   UNL     1       7.271   4.186  16.089  0.00  0.00    +0.000 HD
ENDBRANCH  31  34
ENDBRANCH  30  31
ENDBRANCH  27  30
ENDBRANCH  12  24
TORSDOF 5
ENDMDL
MODEL 3
REMARK VINA RESULT:      -7.8      0.802      1.485
REMARK  Name = 
REMARK  6 active torsions:
REMARK  status: ('A' for Active; 'I' for Inactive)
REMARK    1  A    between atoms: C_1  and  C_2
REMARK    2  A    between atoms: C_6  and  C_7
REMARK    3  A    between atoms: N_18  and  C_19
REMARK    4  A    between atoms: C_22  and  O_23
REMARK    5  A    between atoms: O_23  and  S_24
REMARK    6  A    between atoms: S_24  and  N_25
REMARK                            x       y       z     vdW  Elec       q    Type
REMARK                         _______ _______ _______ _____ _____    ______ ____
ROOT
ATOM      1  C   UNL     1      -4.425  13.544  21.953  0.00  0.00    +0.000 A 
ATOM      2  C   UNL     1      -4.747  13.573  23.293  0.00  0.00    +0.000 A 
ATOM      3  C   UNL     1      -3.905  12.889  24.126  0.00  0.00    +0.000 A 
ATOM      4  N   UNL     1      -2.819  12.232  23.695  0.00  0.00    +0.000 NA
ATOM      5  C   UNL     1      -2.546  12.255  22.381  0.00  0.00    +0.000 A 
ATOM      6  N   UNL     1      -1.442  11.579  21.930  0.00  0.00    +0.000 N 
ATOM      7  C   UNL     1      -0.608  10.813  22.856  0.00  0.00    +0.000 C 
ATOM      8  C   UNL     1      -0.521   9.351  22.395  0.00  0.00    +0.000 C 
ATOM      9  N   UNL     1      -0.094   9.265  20.989  0.00  0.00    +0.000 N 
ATOM     10  C   UNL     1       1.001   8.481  20.696  0.00  0.00    +0.000 C 
ATOM     11  O   UNL     1       1.569   7.854  21.591  0.00  0.00    +0.000 OA
ATOM     12  N   UNL     1       1.424   8.463  19.385  0.00  0.00    +0.000 N 
ATOM     13  C   UNL     1      -0.973  10.010  20.073  0.00  0.00    +0.000 C 
ATOM     14  C   UNL     1      -1.115  11.488  20.507  0.00  0.00    +0.000 C 
ATOM     15  N   UNL     1      -3.321  12.903  21.499  0.00  0.00    +0.000 NA
ATOM     16  H   UNL     1       1.148   9.242  18.811  0.00  0.00    +0.000 HD
ENDROOT
BRANCH   1  22
ATOM     17  C   UNL     1      -5.538  17.505  19.074  0.00  0.00    +0.000 C 
ATOM     18  C   UNL     1      -5.843  16.101  19.505  0.00  0.00    +0.000 A 
ATOM     19  C   UNL     1      -6.931  15.401  18.982  0.00  0.00    +0.000 A 
ATOM     20  C   UNL     1      -7.198  14.102  19.413  0.00  0.00    +0.000 A 
ATOM     21  C   UNL     1      -6.380  13.498  20.373  0.00  0.00    +0.000 A 
ATOM     22  C   UNL     1      -5.276  14.172  20.922  0.00  0.00    +0.000 A 
ATOM     23  C   UNL     1      -5.030  15.483  20.467  0.00  0.00    +0.000 A 
ENDBRANCH   1  22
BRANCH  12  24
ATOM     24  C   UNL     1       2.468   7.653  18.870  0.00  0.00    +0.000 A 
ATOM     25  C   UNL     1       3.185   7.973  17.714  0.00  0.00    +0.000 A 
ATOM     26  C   UNL     1       4.181   7.124  17.224  0.00  0.00    +0.000 A 
ATOM     27  C   UNL     1       4.501   5.951  17.900  0.00  0.00    +0.000 A 
ATOM     28  C   UNL     1       3.805   5.621  19.063  0.00  0.00    +0.000 A 
ATOM     29  C   UNL     1       2.802   6.475  19.551  0.00  0.00    +0.000 A 
BRANCH  27  30
ATOM     30  O   UNL     1       5.464   5.171  17.315  0.00  0.00    +0.000 OA
BRANCH  30  31
ATOM     31  S   UNL     1       7.042   5.558  17.404  0.00  0.00    +0.000 S 
ATOM     32  O   UNL     1       7.174   6.920  17.863  0.00  0.00    +0.000 OA
ATOM     33  O   UNL     1       7.767   4.460  18.004  0.00  0.00    +0.000 OA
BRANCH  31  34
ATOM     34  N   UNL     1       7.506   5.570  15.789  0.00  0.00    +0.000 NA
ATOM     35  H   UNL     1       8.514   5.484  15.690  0.00  0.00    +0.000 HD
ATOM     36  H   UNL     1       7.082   6.349  15.289  0.00  0.00    +0.000 HD
ENDBRANCH  31  34
ENDBRANCH  30  31
ENDBRANCH  27  30
ENDBRANCH  12  24
TORSDOF 5
ENDMDL
MODEL 4
REMARK VINA RESULT:      -7.8      0.951      1.501
REMARK  Name = 
REMARK  6 active torsions:
REMARK  status: ('A' for Active; 'I' for Inactive)
REMARK    1  A    between atoms: C_1  and  C_2
REMARK    2  A    between atoms: C_6  and  C_7
REMARK    3  A    between atoms: N_18  and  C_19
REMARK    4  A    between atoms: C_22  and  O_23
REMARK    5  A    between atoms: O_23  and  S_24
REMARK    6  A    between atoms: S_24  and  N_25
REMARK                            x       y       z     vdW  Elec       q    Type
REMARK                         _______ _______ _______ _____ _____    ______ ____
ROOT
ATOM      1  C   UNL     1      -4.658  13.563  20.846  0.00  0.00    +0.000 A 
ATOM      2  C   UNL     1      -4.825  13.980  22.149  0.00  0.00    +0.000 A 
ATOM      3  C   UNL     1      -3.813  13.664  23.014  0.00  0.00    +0.000 A 
ATOM      4  N   UNL     1      -2.711  12.997  22.642  0.00  0.00    +0.000 NA
ATOM      5  C   UNL     1      -2.596  12.633  21.356  0.00  0.00    +0.000 A 
ATOM      6  N   UNL     1      -1.476  11.945  20.969  0.00  0.00    +0.000 N 
ATOM      7  C   UNL     1      -0.451  11.579  21.947  0.00  0.00    +0.000 C 
ATOM      8  C   UNL     1      -0.235  10.058  21.934  0.00  0.00    +0.000 C 
ATOM      9  N   UNL     1       0.034   9.574  20.571  0.00  0.00    +0.000 N 
ATOM     10  C   UNL     1       1.178   8.832  20.366  0.00  0.00    +0.000 C 
ATOM     11  O   UNL     1       1.918   8.566  21.313  0.00  0.00    +0.000 OA
ATOM     12  N   UNL     1       1.446   8.441  19.072  0.00  0.00    +0.000 N 
ATOM     13  C   UNL     1      -1.031   9.920  19.615  0.00  0.00    +0.000 C 
ATOM     14  C   UNL     1      -1.305  11.442  19.605  0.00  0.00    +0.000 C 
ATOM     15  N   UNL     1      -3.542  12.907  20.446  0.00  0.00    +0.000 NA
ATOM     16  H   UNL     1       1.011   8.977  18.340  0.00  0.00    +0.000 HD
ENDROOT
BRANCH   1  22
ATOM     17  C   UNL     1      -7.837  16.609  18.432  0.00  0.00    +0.000 C 
ATOM     18  C   UNL     1      -7.261  15.236  18.619  0.00  0.00    +0.000 A 
ATOM     19  C   UNL     1      -7.714  14.150  17.868  0.00  0.00    +0.000 A 
ATOM     20  C   UNL     1      -7.170  12.883  18.075  0.00  0.00    +0.000 A 
ATOM     21  C   UNL     1      -6.174  12.695  19.038  0.00  0.00    +0.000 A 
ATOM     22  C   UNL     1      -5.694  13.764  19.812  0.00  0.00    +0.000 A 
ATOM     23  C   UNL     1      -6.261  15.033  19.581  0.00  0.00    +0.000 A 
ENDBRANCH   1  22
BRANCH  12  24
ATOM     24  C   UNL     1       2.516   7.601  18.673  0.00  0.00    +0.000 A 
ATOM     25  C   UNL     1       3.348   7.887  17.586  0.00  0.00    +0.000 A 
ATOM     26  C   UNL     1       4.368   7.008  17.208  0.00  0.00    +0.000 A 
ATOM     27  C   UNL     1       4.596   5.842  17.932  0.00  0.00    +0.000 A 
ATOM     28  C   UNL     1       3.785   5.548  19.027  0.00  0.00    +0.000 A 
ATOM     29  C   UNL     1       2.759   6.431  19.403  0.00  0.00    +0.000 A 
BRANCH  27  30
ATOM     30  O   UNL     1       5.594   5.033  17.455  0.00  0.00    +0.000 OA
BRANCH  30  31
ATOM     31  S   UNL     1       7.157   5.480  17.524  0.00  0.00    +0.000 S 
ATOM     32  O   UNL     1       7.994   4.329  17.282  0.00  0.00    +0.000 OA
ATOM     33  O   UNL     1       7.326   6.729  16.815  0.00  0.00    +0.000 OA
BRANCH  31  34
ATOM     34  N   UNL     1       7.355   5.858  19.149  0.00  0.00    +0.000 NA
ATOM     35  H   UNL     1       8.147   5.364  19.554  0.00  0.00    +0.000 HD
ATOM     36  H   UNL     1       6.479   5.770  19.658  0.00  0.00    +0.000 HD
ENDBRANCH  31  34
ENDBRANCH  30  31
ENDBRANCH  27  30
ENDBRANCH  12  24
TORSDOF 5
ENDMDL
MODEL 5
REMARK VINA RESULT:      -7.8      4.747     12.038
REMARK  Name = 
REMARK  6 active torsions:
REMARK  status: ('A' for Active; 'I' for Inactive)
REMARK    1  A    between atoms: C_1  and  C_2
REMARK    2  A    between atoms: C_6  and  C_7
REMARK    3  A    between atoms: N_18  and  C_19
REMARK    4  A    between atoms: C_22  and  O_23
REMARK    5  A    between atoms: O_23  and  S_24
REMARK    6  A    between atoms: S_24  and  N_25
REMARK                            x       y       z     vdW  Elec       q    Type
REMARK                         _______ _______ _______ _____ _____    ______ ____
ROOT
ATOM      1  C   UNL     1       4.656   3.865  17.131  0.00  0.00    +0.000 A 
ATOM      2  C   UNL     1       4.769   2.678  17.821  0.00  0.00    +0.000 A 
ATOM      3  C   UNL     1       3.956   2.539  18.913  0.00  0.00    +0.000 A 
ATOM      4  N   UNL     1       3.086   3.480  19.305  0.00  0.00    +0.000 NA
ATOM      5  C   UNL     1       3.007   4.609  18.582  0.00  0.00    +0.000 A 
ATOM      6  N   UNL     1       2.125   5.579  18.981  0.00  0.00    +0.000 N 
ATOM      7  C   UNL     1       1.322   5.406  20.190  0.00  0.00    +0.000 C 
ATOM      8  C   UNL     1       1.576   6.571  21.158  0.00  0.00    +0.000 C 
ATOM      9  N   UNL     1       1.381   7.867  20.488  0.00  0.00    +0.000 N 
ATOM     10  C   UNL     1       0.504   8.763  21.062  0.00  0.00    +0.000 C 
ATOM     11  O   UNL     1      -0.060   8.482  22.119  0.00  0.00    +0.000 OA
ATOM     12  N   UNL     1       0.287   9.944  20.387  0.00  0.00    +0.000 N 
ATOM     13  C   UNL     1       2.230   8.033  19.297  0.00  0.00    +0.000 C 
ATOM     14  C   UNL     1       2.031   6.870  18.297  0.00  0.00    +0.000 C 
ATOM     15  N   UNL     1       3.768   4.820  17.499  0.00  0.00    +0.000 NA
ATOM     16  H   UNL     1       0.494   9.945  19.402  0.00  0.00    +0.000 HD
ENDROOT
BRANCH   1  22
ATOM     17  C   UNL     1       5.734   3.376  12.252  0.00  0.00    +0.000 C 
ATOM     18  C   UNL     1       6.067   3.966  13.590  0.00  0.00    +0.000 A 
ATOM     19  C   UNL     1       7.187   4.779  13.768  0.00  0.00    +0.000 A 
ATOM     20  C   UNL     1       7.479   5.300  15.028  0.00  0.00    +0.000 A 
ATOM     21  C   UNL     1       6.653   5.008  16.117  0.00  0.00    +0.000 A 
ATOM     22  C   UNL     1       5.517   4.194  15.976  0.00  0.00    +0.000 A 
ATOM     23  C   UNL     1       5.246   3.681  14.692  0.00  0.00    +0.000 A 
ENDBRANCH   1  22
BRANCH  12  24
ATOM     24  C   UNL     1      -0.502  11.024  20.856  0.00  0.00    +0.000 A 
ATOM     25  C   UNL     1      -0.466  11.480  22.178  0.00  0.00    +0.000 A 
ATOM     26  C   UNL     1      -1.290  12.525  22.603  0.00  0.00    +0.000 A 
ATOM     27  C   UNL     1      -2.145  13.157  21.705  0.00  0.00    +0.000 A 
ATOM     28  C   UNL     1      -2.185  12.725  20.380  0.00  0.00    +0.000 A 
ATOM     29  C   UNL     1      -1.357  11.672  19.956  0.00  0.00    +0.000 A 
BRANCH  27  30
ATOM     30  O   UNL     1      -2.937  14.143  22.233  0.00  0.00    +0.000 OA
BRANCH  30  31
ATOM     31  S   UNL     1      -4.367  13.802  22.932  0.00  0.00    +0.000 S 
ATOM     32  O   UNL     1      -5.322  14.829  22.591  0.00  0.00    +0.000 OA
ATOM     33  O   UNL     1      -4.648  12.392  22.773  0.00  0.00    +0.000 OA
BRANCH  31  34
ATOM     34  N   UNL     1      -4.032  14.010  24.565  0.00  0.00    +0.000 NA
ATOM     35  H   UNL     1      -3.679  13.153  24.986  0.00  0.00    +0.000 HD
ATOM     36  H   UNL     1      -4.814  14.445  25.050  0.00  0.00    +0.000 HD
ENDBRANCH  31  34
ENDBRANCH  30  31
ENDBRANCH  27  30
ENDBRANCH  12  24
TORSDOF 5
ENDMDL
MODEL 6
REMARK VINA RESULT:      -7.7      5.585     12.141
REMARK  Name = 
REMARK  6 active torsions:
REMARK  status: ('A' for Active; 'I' for Inactive)
REMARK    1  A    between atoms: C_1  and  C_2
REMARK    2  A    between atoms: C_6  and  C_7
REMARK    3  A    between atoms: N_18  and  C_19
REMARK    4  A    between atoms: C_22  and  O_23
REMARK    5  A    between atoms: O_23  and  S_24
REMARK    6  A    between atoms: S_24  and  N_25
REMARK                            x       y       z     vdW  Elec       q    Type
REMARK                         _______ _______ _______ _____ _____    ______ ____
ROOT
ATOM      1  C   UNL     1       2.609   6.214  19.113  0.00  0.00    +0.000 A 
ATOM      2  C   UNL     1       3.189   6.352  17.870  0.00  0.00    +0.000 A 
ATOM      3  C   UNL     1       3.102   7.594  17.303  0.00  0.00    +0.000 A 
ATOM      4  N   UNL     1       2.503   8.634  17.901  0.00  0.00    +0.000 NA
ATOM      5  C   UNL     1       1.972   8.443  19.119  0.00  0.00    +0.000 A 
ATOM      6  N   UNL     1       1.351   9.499  19.734  0.00  0.00    +0.000 N 
ATOM      7  C   UNL     1       1.232  10.791  19.058  0.00  0.00    +0.000 C 
ATOM      8  C   UNL     1      -0.245  11.200  18.967  0.00  0.00    +0.000 C 
ATOM      9  N   UNL     1      -0.890  11.151  20.289  0.00  0.00    +0.000 N 
ATOM     10  C   UNL     1      -1.535  12.286  20.732  0.00  0.00    +0.000 C 
ATOM     11  O   UNL     1      -1.588  13.285  20.014  0.00  0.00    +0.000 OA
ATOM     12  N   UNL     1      -2.077  12.243  21.998  0.00  0.00    +0.000 N 
ATOM     13  C   UNL     1      -0.792   9.830  20.931  0.00  0.00    +0.000 C 
ATOM     14  C   UNL     1       0.679   9.359  21.026  0.00  0.00    +0.000 C 
ATOM     15  N   UNL     1       2.017   7.257  19.742  0.00  0.00    +0.000 NA
ATOM     16  H   UNL     1      -1.698  11.556  22.628  0.00  0.00    +0.000 HD
ENDROOT
BRANCH   1  22
ATOM     17  C   UNL     1       4.709   1.788  20.212  0.00  0.00    +0.000 C 
ATOM     18  C   UNL     1       3.563   2.743  20.370  0.00  0.00    +0.000 A 
ATOM     19  C   UNL     1       2.443   2.414  21.134  0.00  0.00    +0.000 A 
ATOM     20  C   UNL     1       1.387   3.317  21.250  0.00  0.00    +0.000 A 
ATOM     21  C   UNL     1       1.445   4.553  20.598  0.00  0.00    +0.000 A 
ATOM     22  C   UNL     1       2.556   4.918  19.821  0.00  0.00    +0.000 A 
ATOM     23  C   UNL     1       3.609   3.987  19.722  0.00  0.00    +0.000 A 
ENDBRANCH   1  22
BRANCH  12  24
ATOM     24  C   UNL     1      -2.854  13.269  22.594  0.00  0.00    +0.000 A 
ATOM     25  C   UNL     1      -2.303  14.292  23.370  0.00  0.00    +0.000 A 
ATOM     26  C   UNL     1      -3.114  15.261  23.968  0.00  0.00    +0.000 A 
ATOM     27  C   UNL     1      -4.492  15.242  23.774  0.00  0.00    +0.000 A 
ATOM     28  C   UNL     1      -5.058  14.236  22.991  0.00  0.00    +0.000 A 
ATOM     29  C   UNL     1      -4.240  13.263  22.394  0.00  0.00    +0.000 A 
BRANCH  27  30
ATOM     30  O   UNL     1      -5.198  16.213  24.435  0.00  0.00    +0.000 OA
BRANCH  30  31
ATOM     31  S   UNL     1      -5.928  17.427  23.636  0.00  0.00    +0.000 S 
ATOM     32  O   UNL     1      -5.038  17.932  22.618  0.00  0.00    +0.000 OA
ATOM     33  O   UNL     1      -7.299  17.057  23.360  0.00  0.00    +0.000 OA
BRANCH  31  34
ATOM     34  N   UNL     1      -6.017  18.631  24.805  0.00  0.00    +0.000 NA
ATOM     35  H   UNL     1      -6.792  19.266  24.629  0.00  0.00    +0.000 HD
ATOM     36  H   UNL     1      -5.113  19.074  24.949  0.00  0.00    +0.000 HD
ENDBRANCH  31  34
ENDBRANCH  30  31
ENDBRANCH  27  30
ENDBRANCH  12  24
TORSDOF 5
ENDMDL
MODEL 7
REMARK VINA RESULT:      -7.7      5.515     12.082
REMARK  Name = 
REMARK  6 active torsions:
REMARK  status: ('A' for Active; 'I' for Inactive)
REMARK    1  A    between atoms: C_1  and  C_2
REMARK    2  A    between atoms: C_6  and  C_7
REMARK    3  A    between atoms: N_18  and  C_19
REMARK    4  A    between atoms: C_22  and  O_23
REMARK    5  A    between atoms: O_23  and  S_24
REMARK    6  A    between atoms: S_24  and  N_25
REMARK                            x       y       z     vdW  Elec       q    Type
REMARK                         _______ _______ _______ _____ _____    ______ ____
ROOT
ATOM      1  C   UNL     1       2.620   6.429  19.009  0.00  0.00    +0.000 A 
ATOM      2  C   UNL     1       3.282   6.669  17.825  0.00  0.00    +0.000 A 
ATOM      3  C   UNL     1       3.206   7.948  17.344  0.00  0.00    +0.000 A 
ATOM      4  N   UNL     1       2.543   8.930  17.971  0.00  0.00    +0.000 NA
ATOM      5  C   UNL     1       1.932   8.640  19.131  0.00  0.00    +0.000 A 
ATOM      6  N   UNL     1       1.246   9.637  19.775  0.00  0.00    +0.000 N 
ATOM      7  C   UNL     1       1.145  10.972  19.187  0.00  0.00    +0.000 C 
ATOM      8  C   UNL     1      -0.332  11.360  19.020  0.00  0.00    +0.000 C 
ATOM      9  N   UNL     1      -1.066  11.203  20.286  0.00  0.00    +0.000 N 
ATOM     10  C   UNL     1      -1.767  12.290  20.762  0.00  0.00    +0.000 C 
ATOM     11  O   UNL     1      -1.793  13.338  20.117  0.00  0.00    +0.000 OA
ATOM     12  N   UNL     1      -2.395  12.144  21.980  0.00  0.00    +0.000 N 
ATOM     13  C   UNL     1      -0.983   9.840  20.836  0.00  0.00    +0.000 C 
ATOM     14  C   UNL     1       0.488   9.389  21.002  0.00  0.00    +0.000 C 
ATOM     15  N   UNL     1       1.962   7.413  19.669  0.00  0.00    +0.000 NA
ATOM     16  H   UNL     1      -2.045  11.419  22.584  0.00  0.00    +0.000 HD
ENDROOT
BRANCH   1  22
ATOM     17  C   UNL     1       3.546   1.501  18.748  0.00  0.00    +0.000 C 
ATOM     18  C   UNL     1       2.988   2.667  19.509  0.00  0.00    +0.000 A 
ATOM     19  C   UNL     1       2.371   2.497  20.750  0.00  0.00    +0.000 A 
ATOM     20  C   UNL     1       1.848   3.598  21.426  0.00  0.00    +0.000 A 
ATOM     21  C   UNL     1       1.935   4.875  20.863  0.00  0.00    +0.000 A 
ATOM     22  C   UNL     1       2.548   5.084  19.617  0.00  0.00    +0.000 A 
ATOM     23  C   UNL     1       3.068   3.954  18.955  0.00  0.00    +0.000 A 
ENDBRANCH   1  22
BRANCH  12  24
ATOM     24  C   UNL     1      -3.236  13.109  22.591  0.00  0.00    +0.000 A 
ATOM     25  C   UNL     1      -4.562  13.323  22.202  0.00  0.00    +0.000 A 
ATOM     26  C   UNL     1      -5.341  14.312  22.810  0.00  0.00    +0.000 A 
ATOM     27  C   UNL     1      -4.817  15.085  23.841  0.00  0.00    +0.000 A 
ATOM     28  C   UNL     1      -3.500  14.877  24.251  0.00  0.00    +0.000 A 
ATOM     29  C   UNL     1      -2.719  13.883  23.637  0.00  0.00    +0.000 A 
BRANCH  27  30
ATOM     30  O   UNL     1      -5.650  16.052  24.341  0.00  0.00    +0.000 OA
BRANCH  30  31
ATOM     31  S   UNL     1      -5.234  17.624  24.326  0.00  0.00    +0.000 S 
ATOM     32  O   UNL     1      -4.733  17.998  25.627  0.00  0.00    +0.000 OA
ATOM     33  O   UNL     1      -4.519  17.915  23.103  0.00  0.00    +0.000 OA
BRANCH  31  34
ATOM     34  N   UNL     1      -6.720  18.393  24.168  0.00  0.00    +0.000 NA
ATOM     35  H   UNL     1      -6.925  18.611  23.195  0.00  0.00    +0.000 HD
ATOM     36  H   UNL     1      -6.804  19.171  24.817  0.00  0.00    +0.000 HD
ENDBRANCH  31  34
ENDBRANCH  30  31
ENDBRANCH  27  30
ENDBRANCH  12  24
TORSDOF 5
ENDMDL
MODEL 8
REMARK VINA RESULT:      -7.6      4.618     11.969
REMARK  Name = 
REMARK  6 active torsions:
REMARK  status: ('A' for Active; 'I' for Inactive)
REMARK    1  A    between atoms: C_1  and  C_2
REMARK    2  A    between atoms: C_6  and  C_7
REMARK    3  A    between atoms: N_18  and  C_19
REMARK    4  A    between atoms: C_22  and  O_23
REMARK    5  A    between atoms: O_23  and  S_24
REMARK    6  A    between atoms: S_24  and  N_25
REMARK                            x       y       z     vdW  Elec       q    Type
REMARK                         _______ _______ _______ _____ _____    ______ ____
ROOT
ATOM      1  C   UNL     1       4.938   4.246  17.297  0.00  0.00    +0.000 A 
ATOM      2  C   UNL     1       5.261   3.253  18.197  0.00  0.00    +0.000 A 
ATOM      3  C   UNL     1       4.553   3.252  19.368  0.00  0.00    +0.000 A 
ATOM      4  N   UNL     1       3.592   4.145  19.645  0.00  0.00    +0.000 NA
ATOM      5  C   UNL     1       3.309   5.077  18.721  0.00  0.00    +0.000 A 
ATOM      6  N   UNL     1       2.333   5.998  19.000  0.00  0.00    +0.000 N 
ATOM      7  C   UNL     1       1.647   5.990  20.292  0.00  0.00    +0.000 C 
ATOM      8  C   UNL     1       1.805   7.355  20.976  0.00  0.00    +0.000 C 
ATOM      9  N   UNL     1       1.389   8.447  20.081  0.00  0.00    +0.000 N 
ATOM     10  C   UNL     1       0.440   9.332  20.546  0.00  0.00    +0.000 C 
ATOM     11  O   UNL     1      -0.006   9.217  21.687  0.00  0.00    +0.000 OA
ATOM     12  N   UNL     1       0.017  10.310  19.671  0.00  0.00    +0.000 N 
ATOM     13  C   UNL     1       2.122   8.457  18.805  0.00  0.00    +0.000 C 
ATOM     14  C   UNL     1       2.015   7.093  18.083  0.00  0.00    +0.000 C 
ATOM     15  N   UNL     1       3.956   5.144  17.549  0.00  0.00    +0.000 NA
ATOM     16  H   UNL     1       0.153  10.127  18.691  0.00  0.00    +0.000 HD
ENDROOT
BRANCH   1  22
ATOM     17  C   UNL     1       5.320   3.358  12.369  0.00  0.00    +0.000 C 
ATOM     18  C   UNL     1       5.873   3.998  13.608  0.00  0.00    +0.000 A 
ATOM     19  C   UNL     1       7.071   4.715  13.583  0.00  0.00    +0.000 A 
ATOM     20  C   UNL     1       7.567   5.285  14.755  0.00  0.00    +0.000 A 
ATOM     21  C   UNL     1       6.871   5.138  15.958  0.00  0.00    +0.000 A 
ATOM     22  C   UNL     1       5.663   4.422  16.021  0.00  0.00    +0.000 A 
ATOM     23  C   UNL     1       5.185   3.857  14.823  0.00  0.00    +0.000 A 
ENDBRANCH   1  22
BRANCH  12  24
ATOM     24  C   UNL     1      -0.878  11.363  19.988  0.00  0.00    +0.000 A 
ATOM     25  C   UNL     1      -0.613  12.321  20.971  0.00  0.00    +0.000 A 
ATOM     26  C   UNL     1      -1.543  13.320  21.274  0.00  0.00    +0.000 A 
ATOM     27  C   UNL     1      -2.744  13.398  20.576  0.00  0.00    +0.000 A 
ATOM     28  C   UNL     1      -3.020  12.458  19.583  0.00  0.00    +0.000 A 
ATOM     29  C   UNL     1      -2.084  11.454  19.282  0.00  0.00    +0.000 A 
BRANCH  27  30
ATOM     30  O   UNL     1      -3.601  14.390  20.977  0.00  0.00    +0.000 OA
BRANCH  30  31
ATOM     31  S   UNL     1      -4.574  14.202  22.268  0.00  0.00    +0.000 S 
ATOM     32  O   UNL     1      -3.871  14.613  23.459  0.00  0.00    +0.000 OA
ATOM     33  O   UNL     1      -5.898  14.681  21.938  0.00  0.00    +0.000 OA
BRANCH  31  34
ATOM     34  N   UNL     1      -4.718  12.531  22.374  0.00  0.00    +0.000 NA
ATOM     35  H   UNL     1      -3.860  12.063  22.089  0.00  0.00    +0.000 HD
ATOM     36  H   UNL     1      -5.566  12.204  21.918  0.00  0.00    +0.000 HD
ENDBRANCH  31  34
ENDBRANCH  30  31
ENDBRANCH  27  30
ENDBRANCH  12  24
TORSDOF 5
ENDMDL
MODEL 9
REMARK VINA RESULT:      -7.6      7.417     12.289
REMARK  Name = 
REMARK  6 active torsions:
REMARK  status: ('A' for Active; 'I' for Inactive)
REMARK    1  A    between atoms: C_1  and  C_2
REMARK    2  A    between atoms: C_6  and  C_7
REMARK    3  A    between atoms: N_18  and  C_19
REMARK    4  A    between atoms: C_22  and  O_23
REMARK    5  A    between atoms: O_23  and  S_24
REMARK    6  A    between atoms: S_24  and  N_25
REMARK                            x       y       z     vdW  Elec       q    Type
REMARK                         _______ _______ _______ _____ _____    ______ ____
ROOT
ATOM      1  C   UNL     1       8.281  15.423  18.512  0.00  0.00    +0.000 A 
ATOM      2  C   UNL     1       8.610  16.725  18.201  0.00  0.00    +0.000 A 
ATOM      3  C   UNL     1       7.666  17.669  18.501  0.00  0.00    +0.000 A 
ATOM      4  N   UNL     1       6.488  17.374  19.071  0.00  0.00    +0.000 NA
ATOM      5  C   UNL     1       6.232  16.091  19.367  0.00  0.00    +0.000 A 
ATOM      6  N   UNL     1       5.028  15.781  19.944  0.00  0.00    +0.000 N 
ATOM      7  C   UNL     1       4.029  16.820  20.188  0.00  0.00    +0.000 C 
ATOM      8  C   UNL     1       2.713  16.457  19.485  0.00  0.00    +0.000 C 
ATOM      9  N   UNL     1       2.273  15.102  19.854  0.00  0.00    +0.000 N 
ATOM     10  C   UNL     1       0.998  14.954  20.358  0.00  0.00    +0.000 C 
ATOM     11  O   UNL     1       0.256  15.932  20.456  0.00  0.00    +0.000 OA
ATOM     12  N   UNL     1       0.627  13.689  20.757  0.00  0.00    +0.000 N 
ATOM     13  C   UNL     1       3.280  14.069  19.561  0.00  0.00    +0.000 C 
ATOM     14  C   UNL     1       4.636  14.400  20.228  0.00  0.00    +0.000 C 
ATOM     15  N   UNL     1       7.106  15.107  19.107  0.00  0.00    +0.000 NA
ATOM     16  H   UNL     1       1.372  13.047  20.974  0.00  0.00    +0.000 HD
ENDROOT
BRANCH   1  22
ATOM     17  C   UNL     1       9.100  10.470  18.376  0.00  0.00    +0.000 C 
ATOM     18  C   UNL     1       9.589  11.863  18.110  0.00  0.00    +0.000 A 
ATOM     19  C   UNL     1      10.866  12.100  17.600  0.00  0.00    +0.000 A 
ATOM     20  C   UNL     1      11.298  13.407  17.378  0.00  0.00    +0.000 A 
ATOM     21  C   UNL     1      10.456  14.484  17.668  0.00  0.00    +0.000 A 
ATOM     22  C   UNL     1       9.164  14.284  18.183  0.00  0.00    +0.000 A 
ATOM     23  C   UNL     1       8.753  12.954  18.397  0.00  0.00    +0.000 A 
ENDBRANCH   1  22
BRANCH  12  24
ATOM     24  C   UNL     1      -0.663  13.317  21.213  0.00  0.00    +0.000 A 
ATOM     25  C   UNL     1      -1.842  13.694  20.561  0.00  0.00    +0.000 A 
ATOM     26  C   UNL     1      -3.093  13.335  21.070  0.00  0.00    +0.000 A 
ATOM     27  C   UNL     1      -3.189  12.563  22.223  0.00  0.00    +0.000 A 
ATOM     28  C   UNL     1      -2.024  12.167  22.879  0.00  0.00    +0.000 A 
ATOM     29  C   UNL     1      -0.768  12.532  22.368  0.00  0.00    +0.000 A 
BRANCH  27  30
ATOM     30  O   UNL     1      -4.463  12.300  22.657  0.00  0.00    +0.000 OA
BRANCH  30  31
ATOM     31  S   UNL     1      -5.025  12.905  24.058  0.00  0.00    +0.000 S 
ATOM     32  O   UNL     1      -4.433  12.188  25.161  0.00  0.00    +0.000 OA
ATOM     33  O   UNL     1      -5.033  14.350  23.982  0.00  0.00    +0.000 OA
BRANCH  31  34
ATOM     34  N   UNL     1      -6.642  12.449  24.028  0.00  0.00    +0.000 NA
ATOM     35  H   UNL     1      -6.804  11.611  24.583  0.00  0.00    +0.000 HD
ATOM     36  H   UNL     1      -6.999  12.417  23.076  0.00  0.00    +0.000 HD
ENDBRANCH  31  34
ENDBRANCH  30  31
ENDBRANCH  27  30
ENDBRANCH  12  24
TORSDOF 5
ENDMDL
