MODEL 1
REMARK VINA RESULT:      -8.0      0.000      0.000
REMARK  Name = 
REMARK  2 active torsions:
REMARK  status: ('A' for Active; 'I' for Inactive)
REMARK    1  A    between atoms: C_1  and  O_2
REMARK    2  A    between atoms: O_2  and  C_3
REMARK                            x       y       z     vdW  Elec       q    Type
REMARK                         _______ _______ _______ _____ _____    ______ ____
ROOT
ATOM      1  C   UNL     1       6.876   5.812  17.190  0.00  0.00    +0.000 A 
ATOM      2  N   UNL     1       7.495   5.779  15.996  0.00  0.00    +0.000 NA
ATOM      3  C   UNL     1       6.945   5.081  15.007  0.00  0.00    +0.000 A 
ATOM      4  C   UNL     1       7.595   5.160  13.784  0.00  0.00    +0.000 A 
ATOM      5  C   UNL     1       7.118   4.509  12.653  0.00  0.00    +0.000 A 
ATOM      6  C   UNL     1       5.979   3.734  12.755  0.00  0.00    +0.000 A 
ATOM      7  C   UNL     1       5.322   3.631  13.986  0.00  0.00    +0.000 A 
ATOM      8  C   UNL     1       5.765   4.322  15.155  0.00  0.00    +0.000 A 
ATOM      9  C   UNL     1       5.142   4.345  16.458  0.00  0.00    +0.000 A 
ATOM     10  C   UNL     1       3.873   3.586  16.712  0.00  0.00    +0.000 A 
ATOM     11  O   UNL     1       3.248   3.076  15.785  0.00  0.00    +0.000 OA
ATOM     12  C   UNL     1       3.285   3.396  18.061  0.00  0.00    +0.000 A 
ATOM     13  C   UNL     1       2.226   2.478  18.202  0.00  0.00    +0.000 A 
ATOM     14  C   UNL     1       1.609   2.276  19.438  0.00  0.00    +0.000 A 
ATOM     15  C   UNL     1       2.050   2.992  20.544  0.00  0.00    +0.000 A 
ATOM     16 CL   UNL     1       1.296   2.762  22.071  0.00  0.00    +0.000 Cl
ATOM     17  C   UNL     1       3.096   3.903  20.414  0.00  0.00    +0.000 A 
ATOM     18  C   UNL     1       3.721   4.112  19.172  0.00  0.00    +0.000 A 
ATOM     19  S   UNL     1       4.999   5.318  19.109  0.00  0.00    +0.000 S 
ATOM     20  C   UNL     1       5.702   5.114  17.490  0.00  0.00    +0.000 A 
ENDROOT
BRANCH   1  22
ATOM     21  C   UNL     1       7.797   7.921  17.710  0.00  0.00    +0.000 C 
ATOM     22  O   UNL     1       7.427   6.623  18.166  0.00  0.00    +0.000 OA
ENDBRANCH   1  22
TORSDOF 1
ENDMDL
MODEL 2
REMARK VINA RESULT:      -7.5      4.850      6.010
REMARK  Name = 
REMARK  2 active torsions:
REMARK  status: ('A' for Active; 'I' for Inactive)
REMARK    1  A    between atoms: C_1  and  O_2
REMARK    2  A    between atoms: O_2  and  C_3
REMARK                            x       y       z     vdW  Elec       q    Type
REMARK                         _______ _______ _______ _____ _____    ______ ____
ROOT
ATOM      1  C   UNL     1       2.752   5.057  20.166  0.00  0.00    +0.000 A 
ATOM      2  N   UNL     1       3.526   4.257  19.410  0.00  0.00    +0.000 NA
ATOM      3  C   UNL     1       4.030   4.737  18.277  0.00  0.00    +0.000 A 
ATOM      4  C   UNL     1       4.885   3.884  17.593  0.00  0.00    +0.000 A 
ATOM      5  C   UNL     1       5.511   4.260  16.411  0.00  0.00    +0.000 A 
ATOM      6  C   UNL     1       5.251   5.510  15.883  0.00  0.00    +0.000 A 
ATOM      7  C   UNL     1       4.379   6.375  16.553  0.00  0.00    +0.000 A 
ATOM      8  C   UNL     1       3.753   6.031  17.791  0.00  0.00    +0.000 A 
ATOM      9  C   UNL     1       2.889   6.855  18.603  0.00  0.00    +0.000 A 
ATOM     10  C   UNL     1       2.550   8.255  18.183  0.00  0.00    +0.000 A 
ATOM     11  O   UNL     1       3.131   8.787  17.240  0.00  0.00    +0.000 OA
ATOM     12  C   UNL     1       1.519   9.087  18.851  0.00  0.00    +0.000 A 
ATOM     13  C   UNL     1       1.128  10.288  18.229  0.00  0.00    +0.000 A 
ATOM     14  C   UNL     1       0.185  11.131  18.821  0.00  0.00    +0.000 A 
ATOM     15  C   UNL     1      -0.374  10.775  20.041  0.00  0.00    +0.000 A 
ATOM     16 CL   UNL     1      -1.529  11.805  20.789  0.00  0.00    +0.000 Cl
ATOM     17  C   UNL     1       0.006   9.589  20.665  0.00  0.00    +0.000 A 
ATOM     18  C   UNL     1       0.956   8.736  20.074  0.00  0.00    +0.000 A 
ATOM     19  S   UNL     1       1.399   7.288  20.968  0.00  0.00    +0.000 S 
ATOM     20  C   UNL     1       2.390   6.362  19.819  0.00  0.00    +0.000 A 
ENDROOT
BRANCH   1  22
ATOM     21  C   UNL     1       1.644   3.306  21.294  0.00  0.00    +0.000 C 
ATOM     22  O   UNL     1       2.322   4.556  21.382  0.00  0.00    +0.000 OA
ENDBRANCH   1  22
TORSDOF 1
ENDMDL
MODEL 3
REMARK VINA RESULT:      -7.5      3.595      4.696
REMARK  Name = 
REMARK  2 active torsions:
REMARK  status: ('A' for Active; 'I' for Inactive)
REMARK    1  A    between atoms: C_1  and  O_2
REMARK    2  A    between atoms: O_2  and  C_3
REMARK                            x       y       z     vdW  Elec       q    Type
REMARK                         _______ _______ _______ _____ _____    ______ ____
ROOT
ATOM      1  C   UNL     1       3.675   3.558  18.959  0.00  0.00    +0.000 A 
ATOM      2  N   UNL     1       4.381   3.112  17.904  0.00  0.00    +0.000 NA
ATOM      3  C   UNL     1       4.749   3.979  16.966  0.00  0.00    +0.000 A 
ATOM      4  C   UNL     1       5.544   3.464  15.953  0.00  0.00    +0.000 A 
ATOM      5  C   UNL     1       6.030   4.259  14.922  0.00  0.00    +0.000 A 
ATOM      6  C   UNL     1       5.687   5.597  14.887  0.00  0.00    +0.000 A 
ATOM      7  C   UNL     1       4.873   6.127  15.893  0.00  0.00    +0.000 A 
ATOM      8  C   UNL     1       4.393   5.344  16.987  0.00  0.00    +0.000 A 
ATOM      9  C   UNL     1       3.602   5.788  18.113  0.00  0.00    +0.000 A 
ATOM     10  C   UNL     1       3.189   7.224  18.238  0.00  0.00    +0.000 A 
ATOM     11  O   UNL     1       3.653   8.080  17.488  0.00  0.00    +0.000 OA
ATOM     12  C   UNL     1       2.218   7.715  19.246  0.00  0.00    +0.000 A 
ATOM     13  C   UNL     1       1.735   9.032  19.119  0.00  0.00    +0.000 A 
ATOM     14  C   UNL     1       0.843   9.564  20.052  0.00  0.00    +0.000 A 
ATOM     15  C   UNL     1       0.426   8.780  21.119  0.00  0.00    +0.000 A 
ATOM     16 CL   UNL     1      -0.664   9.422  22.282  0.00  0.00    +0.000 Cl
ATOM     17  C   UNL     1       0.898   7.476  21.254  0.00  0.00    +0.000 A 
ATOM     18  C   UNL     1       1.797   6.934  20.318  0.00  0.00    +0.000 A 
ATOM     19  S   UNL     1       2.366   5.295  20.608  0.00  0.00    +0.000 S 
ATOM     20  C   UNL     1       3.249   4.879  19.122  0.00  0.00    +0.000 A 
ENDROOT
BRANCH   1  22
ATOM     21  C   UNL     1       4.530   1.959  20.469  0.00  0.00    +0.000 C 
ATOM     22  O   UNL     1       3.390   2.646  19.960  0.00  0.00    +0.000 OA
ENDBRANCH   1  22
TORSDOF 1
ENDMDL
MODEL 4
REMARK VINA RESULT:      -7.0      4.726      6.674
REMARK  Name = 
REMARK  2 active torsions:
REMARK  status: ('A' for Active; 'I' for Inactive)
REMARK    1  A    between atoms: C_1  and  O_2
REMARK    2  A    between atoms: O_2  and  C_3
REMARK                            x       y       z     vdW  Elec       q    Type
REMARK                         _______ _______ _______ _____ _____    ______ ____
ROOT
ATOM      1  C   UNL     1       3.994   5.627  17.782  0.00  0.00    +0.000 A 
ATOM      2  N   UNL     1       4.251   4.416  18.309  0.00  0.00    +0.000 NA
ATOM      3  C   UNL     1       3.630   4.058  19.428  0.00  0.00    +0.000 A 
ATOM      4  C   UNL     1       3.881   2.766  19.866  0.00  0.00    +0.000 A 
ATOM      5  C   UNL     1       3.279   2.243  21.004  0.00  0.00    +0.000 A 
ATOM      6  C   UNL     1       2.427   3.044  21.740  0.00  0.00    +0.000 A 
ATOM      7  C   UNL     1       2.177   4.354  21.320  0.00  0.00    +0.000 A 
ATOM      8  C   UNL     1       2.750   4.905  20.133  0.00  0.00    +0.000 A 
ATOM      9  C   UNL     1       2.521   6.214  19.565  0.00  0.00    +0.000 A 
ATOM     10  C   UNL     1       1.585   7.182  20.228  0.00  0.00    +0.000 A 
ATOM     11  O   UNL     1       0.868   6.826  21.160  0.00  0.00    +0.000 OA
ATOM     12  C   UNL     1       1.452   8.603  19.825  0.00  0.00    +0.000 A 
ATOM     13  C   UNL     1       0.719   9.466  20.662  0.00  0.00    +0.000 A 
ATOM     14  C   UNL     1       0.531  10.808  20.324  0.00  0.00    +0.000 A 
ATOM     15  C   UNL     1       1.077  11.295  19.144  0.00  0.00    +0.000 A 
ATOM     16 CL   UNL     1       0.847  12.942  18.708  0.00  0.00    +0.000 Cl
ATOM     17  C   UNL     1       1.803  10.449  18.308  0.00  0.00    +0.000 A 
ATOM     18  C   UNL     1       1.996   9.097  18.643  0.00  0.00    +0.000 A 
ATOM     19  S   UNL     1       2.887   8.106  17.496  0.00  0.00    +0.000 S 
ATOM     20  C   UNL     1       3.145   6.575  18.361  0.00  0.00    +0.000 A 
ENDROOT
BRANCH   1  22
ATOM     21  C   UNL     1       5.198   4.815  15.923  0.00  0.00    +0.000 C 
ATOM     22  O   UNL     1       4.585   5.928  16.568  0.00  0.00    +0.000 OA
ENDBRANCH   1  22
TORSDOF 1
ENDMDL
MODEL 5
REMARK VINA RESULT:      -6.8      3.571      6.379
REMARK  Name = 
REMARK  2 active torsions:
REMARK  status: ('A' for Active; 'I' for Inactive)
REMARK    1  A    between atoms: C_1  and  O_2
REMARK    2  A    between atoms: O_2  and  C_3
REMARK                            x       y       z     vdW  Elec       q    Type
REMARK                         _______ _______ _______ _____ _____    ______ ____
ROOT
ATOM      1  C   UNL     1       2.885   6.778  18.568  0.00  0.00    +0.000 A 
ATOM      2  N   UNL     1       2.007   6.276  19.456  0.00  0.00    +0.000 NA
ATOM      3  C   UNL     1       1.937   4.958  19.614  0.00  0.00    +0.000 A 
ATOM      4  C   UNL     1       1.071   4.519  20.605  0.00  0.00    +0.000 A 
ATOM      5  C   UNL     1       0.916   3.171  20.904  0.00  0.00    +0.000 A 
ATOM      6  C   UNL     1       1.624   2.236  20.173  0.00  0.00    +0.000 A 
ATOM      7  C   UNL     1       2.488   2.663  19.160  0.00  0.00    +0.000 A 
ATOM      8  C   UNL     1       2.698   4.044  18.857  0.00  0.00    +0.000 A 
ATOM      9  C   UNL     1       3.605   4.608  17.884  0.00  0.00    +0.000 A 
ATOM     10  C   UNL     1       4.473   3.720  17.043  0.00  0.00    +0.000 A 
ATOM     11  O   UNL     1       4.561   2.517  17.280  0.00  0.00    +0.000 OA
ATOM     12  C   UNL     1       5.275   4.205  15.893  0.00  0.00    +0.000 A 
ATOM     13  C   UNL     1       5.864   3.249  15.043  0.00  0.00    +0.000 A 
ATOM     14  C   UNL     1       6.656   3.640  13.960  0.00  0.00    +0.000 A 
ATOM     15  C   UNL     1       6.861   4.992  13.721  0.00  0.00    +0.000 A 
ATOM     16 CL   UNL     1       7.840   5.491  12.400  0.00  0.00    +0.000 Cl
ATOM     17  C   UNL     1       6.283   5.945  14.557  0.00  0.00    +0.000 A 
ATOM     18  C   UNL     1       5.485   5.559  15.649  0.00  0.00    +0.000 A 
ATOM     19  S   UNL     1       4.842   6.840  16.667  0.00  0.00    +0.000 S 
ATOM     20  C   UNL     1       3.708   6.001  17.747  0.00  0.00    +0.000 A 
ENDROOT
BRANCH   1  22
ATOM     21  C   UNL     1       1.864   8.807  17.930  0.00  0.00    +0.000 C 
ATOM     22  O   UNL     1       2.997   8.155  18.498  0.00  0.00    +0.000 OA
ENDBRANCH   1  22
TORSDOF 1
ENDMDL
MODEL 6
REMARK VINA RESULT:      -6.4      6.859      8.433
REMARK  Name = 
REMARK  2 active torsions:
REMARK  status: ('A' for Active; 'I' for Inactive)
REMARK    1  A    between atoms: C_1  and  O_2
REMARK    2  A    between atoms: O_2  and  C_3
REMARK                            x       y       z     vdW  Elec       q    Type
REMARK                         _______ _______ _______ _____ _____    ______ ____
ROOT
ATOM      1  C   UNL     1       0.505  10.866  21.797  0.00  0.00    +0.000 A 
ATOM      2  N   UNL     1       0.533  12.191  21.563  0.00  0.00    +0.000 NA
ATOM      3  C   UNL     1       0.973  12.625  20.387  0.00  0.00    +0.000 A 
ATOM      4  C   UNL     1       0.895  13.996  20.187  0.00  0.00    +0.000 A 
ATOM      5  C   UNL     1       1.289  14.591  18.994  0.00  0.00    +0.000 A 
ATOM      6  C   UNL     1       1.803  13.797  17.987  0.00  0.00    +0.000 A 
ATOM      7  C   UNL     1       1.903  12.415  18.180  0.00  0.00    +0.000 A 
ATOM      8  C   UNL     1       1.468  11.772  19.379  0.00  0.00    +0.000 A 
ATOM      9  C   UNL     1       1.462  10.356  19.671  0.00  0.00    +0.000 A 
ATOM     10  C   UNL     1       1.949   9.365  18.657  0.00  0.00    +0.000 A 
ATOM     11  O   UNL     1       2.198   9.712  17.504  0.00  0.00    +0.000 OA
ATOM     12  C   UNL     1       2.162   7.926  18.951  0.00  0.00    +0.000 A 
ATOM     13  C   UNL     1       2.837   7.144  17.993  0.00  0.00    +0.000 A 
ATOM     14  C   UNL     1       3.043   5.778  18.196  0.00  0.00    +0.000 A 
ATOM     15  C   UNL     1       2.575   5.185  19.361  0.00  0.00    +0.000 A 
ATOM     16 CL   UNL     1       2.811   3.503  19.622  0.00  0.00    +0.000 Cl
ATOM     17  C   UNL     1       1.906   5.950  20.314  0.00  0.00    +0.000 A 
ATOM     18  C   UNL     1       1.695   7.326  20.116  0.00  0.00    +0.000 A 
ATOM     19  S   UNL     1       0.799   8.188  21.360  0.00  0.00    +0.000 S 
ATOM     20  C   UNL     1       0.960   9.896  20.898  0.00  0.00    +0.000 A 
ENDROOT
BRANCH   1  22
ATOM     21  C   UNL     1      -1.354  10.951  23.247  0.00  0.00    +0.000 C 
ATOM     22  O   UNL     1      -0.045  10.446  22.995  0.00  0.00    +0.000 OA
ENDBRANCH   1  22
TORSDOF 1
ENDMDL
MODEL 7
REMARK VINA RESULT:      -6.3     10.890     12.600
REMARK  Name = 
REMARK  2 active torsions:
REMARK  status: ('A' for Active; 'I' for Inactive)
REMARK    1  A    between atoms: C_1  and  O_2
REMARK    2  A    between atoms: O_2  and  C_3
REMARK                            x       y       z     vdW  Elec       q    Type
REMARK                         _______ _______ _______ _____ _____    ______ ____
ROOT
ATOM      1  C   UNL     1      -0.105  12.572  21.458  0.00  0.00    +0.000 A 
ATOM      2  N   UNL     1      -0.250  13.285  22.590  0.00  0.00    +0.000 NA
ATOM      3  C   UNL     1      -1.469  13.679  22.947  0.00  0.00    +0.000 A 
ATOM      4  C   UNL     1      -1.552  14.336  24.166  0.00  0.00    +0.000 A 
ATOM      5  C   UNL     1      -2.764  14.779  24.684  0.00  0.00    +0.000 A 
ATOM      6  C   UNL     1      -3.917  14.585  23.948  0.00  0.00    +0.000 A 
ATOM      7  C   UNL     1      -3.847  13.938  22.710  0.00  0.00    +0.000 A 
ATOM      8  C   UNL     1      -2.622  13.437  22.173  0.00  0.00    +0.000 A 
ATOM      9  C   UNL     1      -2.431  12.702  20.943  0.00  0.00    +0.000 A 
ATOM     10  C   UNL     1      -3.597  12.376  20.058  0.00  0.00    +0.000 A 
ATOM     11  O   UNL     1      -4.750  12.570  20.438  0.00  0.00    +0.000 OA
ATOM     12  C   UNL     1      -3.461  11.808  18.695  0.00  0.00    +0.000 A 
ATOM     13  C   UNL     1      -4.607  11.760  17.876  0.00  0.00    +0.000 A 
ATOM     14  C   UNL     1      -4.552  11.209  16.594  0.00  0.00    +0.000 A 
ATOM     15  C   UNL     1      -3.348  10.703  16.122  0.00  0.00    +0.000 A 
ATOM     16 CL   UNL     1      -3.265  10.013  14.550  0.00  0.00    +0.000 Cl
ATOM     17  C   UNL     1      -2.210  10.745  16.924  0.00  0.00    +0.000 A 
ATOM     18  C   UNL     1      -2.258  11.298  18.217  0.00  0.00    +0.000 A 
ATOM     19  S   UNL     1      -0.776  11.258  19.162  0.00  0.00    +0.000 S 
ATOM     20  C   UNL     1      -1.150  12.251  20.587  0.00  0.00    +0.000 A 
ENDROOT
BRANCH   1  22
ATOM     21  C   UNL     1       2.056  13.089  20.663  0.00  0.00    +0.000 C 
ATOM     22  O   UNL     1       1.162  12.099  21.167  0.00  0.00    +0.000 OA
ENDBRANCH   1  22
TORSDOF 1
ENDMDL
MODEL 8
REMARK VINA RESULT:      -6.3      4.585      7.285
REMARK  Name = 
REMARK  2 active torsions:
REMARK  status: ('A' for Active; 'I' for Inactive)
REMARK    1  A    between atoms: C_1  and  O_2
REMARK    2  A    between atoms: O_2  and  C_3
REMARK                            x       y       z     vdW  Elec       q    Type
REMARK                         _______ _______ _______ _____ _____    ______ ____
ROOT
ATOM      1  C   UNL     1       1.979   5.541  20.672  0.00  0.00    +0.000 A 
ATOM      2  N   UNL     1       1.297   6.458  21.384  0.00  0.00    +0.000 NA
ATOM      3  C   UNL     1       1.157   7.682  20.886  0.00  0.00    +0.000 A 
ATOM      4  C   UNL     1       0.372   8.547  21.634  0.00  0.00    +0.000 A 
ATOM      5  C   UNL     1       0.111   9.849  21.223  0.00  0.00    +0.000 A 
ATOM      6  C   UNL     1       0.676  10.307  20.048  0.00  0.00    +0.000 A 
ATOM      7  C   UNL     1       1.483   9.451  19.291  0.00  0.00    +0.000 A 
ATOM      8  C   UNL     1       1.734   8.096  19.667  0.00  0.00    +0.000 A 
ATOM      9  C   UNL     1       2.494   7.103  18.942  0.00  0.00    +0.000 A 
ATOM     10  C   UNL     1       3.131   7.438  17.627  0.00  0.00    +0.000 A 
ATOM     11  O   UNL     1       2.880   8.498  17.057  0.00  0.00    +0.000 OA
ATOM     12  C   UNL     1       4.085   6.546  16.925  0.00  0.00    +0.000 A 
ATOM     13  C   UNL     1       4.791   7.063  15.820  0.00  0.00    +0.000 A 
ATOM     14  C   UNL     1       5.681   6.265  15.098  0.00  0.00    +0.000 A 
ATOM     15  C   UNL     1       5.871   4.943  15.478  0.00  0.00    +0.000 A 
ATOM     16 CL   UNL     1       6.956   3.944  14.594  0.00  0.00    +0.000 Cl
ATOM     17  C   UNL     1       5.178   4.422  16.568  0.00  0.00    +0.000 A 
ATOM     18  C   UNL     1       4.280   5.220  17.300  0.00  0.00    +0.000 A 
ATOM     19  S   UNL     1       3.422   4.451  18.628  0.00  0.00    +0.000 S 
ATOM     20  C   UNL     1       2.606   5.799  19.449  0.00  0.00    +0.000 A 
ENDROOT
BRANCH   1  22
ATOM     21  C   UNL     1       0.945   3.422  20.758  0.00  0.00    +0.000 C 
ATOM     22  O   UNL     1       2.024   4.254  21.176  0.00  0.00    +0.000 OA
ENDBRANCH   1  22
TORSDOF 1
ENDMDL
MODEL 9
REMARK VINA RESULT:      -6.3      9.971     10.696
REMARK  Name = 
REMARK  2 active torsions:
REMARK  status: ('A' for Active; 'I' for Inactive)
REMARK    1  A    between atoms: C_1  and  O_2
REMARK    2  A    between atoms: O_2  and  C_3
REMARK                            x       y       z     vdW  Elec       q    Type
REMARK                         _______ _______ _______ _____ _____    ______ ____
ROOT
ATOM      1  C   UNL     1       8.309  15.247  19.241  0.00  0.00    +0.000 A 
ATOM      2  N   UNL     1       9.248  15.094  18.290  0.00  0.00    +0.000 NA
ATOM      3  C   UNL     1      10.003  14.000  18.304  0.00  0.00    +0.000 A 
ATOM      4  C   UNL     1      10.891  13.871  17.246  0.00  0.00    +0.000 A 
ATOM      5  C   UNL     1      11.722  12.766  17.111  0.00  0.00    +0.000 A 
ATOM      6  C   UNL     1      11.685  11.778  18.077  0.00  0.00    +0.000 A 
ATOM      7  C   UNL     1      10.806  11.902  19.158  0.00  0.00    +0.000 A 
ATOM      8  C   UNL     1       9.912  13.006  19.300  0.00  0.00    +0.000 A 
ATOM      9  C   UNL     1       8.921  13.215  20.332  0.00  0.00    +0.000 A 
ATOM     10  C   UNL     1       8.732  12.206  21.425  0.00  0.00    +0.000 A 
ATOM     11  O   UNL     1       9.286  11.110  21.374  0.00  0.00    +0.000 OA
ATOM     12  C   UNL     1       7.885  12.439  22.621  0.00  0.00    +0.000 A 
ATOM     13  C   UNL     1       7.968  11.519  23.684  0.00  0.00    +0.000 A 
ATOM     14  C   UNL     1       7.175  11.665  24.825  0.00  0.00    +0.000 A 
ATOM     15  C   UNL     1       6.295  12.735  24.909  0.00  0.00    +0.000 A 
ATOM     16 CL   UNL     1       5.305  12.925  26.301  0.00  0.00    +0.000 Cl
ATOM     17  C   UNL     1       6.206  13.651  23.862  0.00  0.00    +0.000 A 
ATOM     18  C   UNL     1       7.000  13.509  22.711  0.00  0.00    +0.000 A 
ATOM     19  S   UNL     1       6.775  14.693  21.430  0.00  0.00    +0.000 S 
ATOM     20  C   UNL     1       8.097  14.350  20.293  0.00  0.00    +0.000 A 
ENDROOT
BRANCH   1  22
ATOM     21  C   UNL     1       8.107  17.506  18.588  0.00  0.00    +0.000 C 
ATOM     22  O   UNL     1       7.481  16.351  19.141  0.00  0.00    +0.000 OA
ENDBRANCH   1  22
TORSDOF 1
ENDMDL
