MODEL 1
REMARK VINA RESULT:      -8.9      0.000      0.000
REMARK  Name = 
REMARK  4 active torsions:
REMARK  status: ('A' for Active; 'I' for Inactive)
REMARK    1  A    between atoms: N_1  and  C_2
REMARK    2  A    between atoms: C_5  and  N_6
REMARK    3  A    between atoms: N_6  and  C_7
REMARK    4  A    between atoms: C_13  and  C_14
REMARK                            x       y       z     vdW  Elec       q    Type
REMARK                         _______ _______ _______ _____ _____    ______ ____
ROOT
ATOM      1  C   UNL     1       3.530   5.415  18.405  0.00  0.00    +0.000 A 
ATOM      2  C   UNL     1       3.274   4.540  19.390  0.00  0.00    +0.000 A 
ATOM      3  C   UNL     1       2.415   4.969  20.512  0.00  0.00    +0.000 A 
ATOM      4 CL   UNL     1       2.060   3.842  21.774  0.00  0.00    +0.000 Cl
ATOM      5  N   UNL     1       1.888   6.139  20.659  0.00  0.00    +0.000 NA
ATOM      6  N   UNL     1       2.204   7.004  19.653  0.00  0.00    +0.000 N 
ATOM      7  C   UNL     1       1.799   8.328  19.566  0.00  0.00    +0.000 A 
ATOM      8  C   UNL     1       2.324   8.753  18.355  0.00  0.00    +0.000 A 
ATOM      9  N   UNL     1       3.049   7.769  17.727  0.00  0.00    +0.000 NA
ATOM     10  C   UNL     1       2.976   6.729  18.534  0.00  0.00    +0.000 A 
ENDROOT
BRANCH   7  11
ATOM     11  C   UNL     1       0.986   9.042  20.565  0.00  0.00    +0.000 A 
ATOM     12  C   UNL     1       1.061   8.710  21.928  0.00  0.00    +0.000 A 
ATOM     13  C   UNL     1       0.291   9.353  22.906  0.00  0.00    +0.000 A 
ATOM     14  C   UNL     1      -0.553  10.371  22.471  0.00  0.00    +0.000 A 
ATOM     15  N   UNL     1      -1.421  11.186  23.150  0.00  0.00    +0.000 N 
ATOM     16  N   UNL     1      -2.067  12.070  22.370  0.00  0.00    +0.000 NA
ATOM     17  C   UNL     1      -1.597  11.803  21.148  0.00  0.00    +0.000 A 
ATOM     18  C   UNL     1      -0.650  10.754  21.139  0.00  0.00    +0.000 A 
ATOM     19  C   UNL     1       0.128  10.086  20.170  0.00  0.00    +0.000 A 
ATOM     20  H   UNL     1      -1.614  11.189  24.145  0.00  0.00    +0.000 HD
ENDBRANCH   7  11
BRANCH   1  21
ATOM     21  N   UNL     1       4.331   5.089  17.307  0.00  0.00    +0.000 N 
ATOM     22  H   UNL     1       4.774   4.183  17.487  0.00  0.00    +0.000 HD
BRANCH  21  26
ATOM     23  C   UNL     1       7.064   4.529  14.847  0.00  0.00    +0.000 C 
ATOM     24  C   UNL     1       7.231   4.451  16.369  0.00  0.00    +0.000 C 
ATOM     25  C   UNL     1       6.713   5.698  17.091  0.00  0.00    +0.000 C 
ATOM     26  C   UNL     1       5.269   6.053  16.710  0.00  0.00    +0.000 C 
ATOM     27  C   UNL     1       5.074   6.102  15.191  0.00  0.00    +0.000 C 
ATOM     28  C   UNL     1       5.616   4.866  14.471  0.00  0.00    +0.000 C 
BRANCH  23  29
ATOM     29  N   UNL     1       7.988   5.504  14.265  0.00  0.00    +0.000 NA
ATOM     30  H   UNL     1       8.377   5.131  13.399  0.00  0.00    +0.000 HD
ATOM     31  H   UNL     1       8.781   5.676  14.879  0.00  0.00    +0.000 HD
ENDBRANCH  23  29
ENDBRANCH  21  26
ENDBRANCH   1  21
TORSDOF 4
ENDMDL
MODEL 2
REMARK VINA RESULT:      -8.4      1.167      1.634
REMARK  Name = 
REMARK  4 active torsions:
REMARK  status: ('A' for Active; 'I' for Inactive)
REMARK    1  A    between atoms: N_1  and  C_2
REMARK    2  A    between atoms: C_5  and  N_6
REMARK    3  A    between atoms: N_6  and  C_7
REMARK    4  A    between atoms: C_13  and  C_14
REMARK                            x       y       z     vdW  Elec       q    Type
REMARK                         _______ _______ _______ _____ _____    ______ ____
ROOT
ATOM      1  C   UNL     1       3.012   5.270  18.094  0.00  0.00    +0.000 A 
ATOM      2  C   UNL     1       2.574   4.362  18.979  0.00  0.00    +0.000 A 
ATOM      3  C   UNL     1       1.741   4.819  20.110  0.00  0.00    +0.000 A 
ATOM      4 CL   UNL     1       1.152   3.653  21.242  0.00  0.00    +0.000 Cl
ATOM      5  N   UNL     1       1.400   6.040  20.354  0.00  0.00    +0.000 NA
ATOM      6  N   UNL     1       1.897   6.931  19.449  0.00  0.00    +0.000 N 
ATOM      7  C   UNL     1       1.711   8.306  19.480  0.00  0.00    +0.000 A 
ATOM      8  C   UNL     1       2.354   8.750  18.334  0.00  0.00    +0.000 A 
ATOM      9  N   UNL     1       2.942   7.724  17.636  0.00  0.00    +0.000 NA
ATOM     10  C   UNL     1       2.667   6.639  18.333  0.00  0.00    +0.000 A 
ENDROOT
BRANCH   7  11
ATOM     11  C   UNL     1       0.975   9.047  20.518  0.00  0.00    +0.000 A 
ATOM     12  C   UNL     1       1.130   8.731  21.878  0.00  0.00    +0.000 A 
ATOM     13  C   UNL     1       0.434   9.400  22.894  0.00  0.00    +0.000 A 
ATOM     14  C   UNL     1      -0.417  10.428  22.498  0.00  0.00    +0.000 A 
ATOM     15  N   UNL     1      -1.227  11.267  23.219  0.00  0.00    +0.000 N 
ATOM     16  N   UNL     1      -1.906  12.153  22.469  0.00  0.00    +0.000 NA
ATOM     17  C   UNL     1      -1.518  11.862  21.224  0.00  0.00    +0.000 A 
ATOM     18  C   UNL     1      -0.592  10.796  21.170  0.00  0.00    +0.000 A 
ATOM     19  C   UNL     1       0.112  10.101  20.163  0.00  0.00    +0.000 A 
ATOM     20  H   UNL     1      -1.357  11.286  24.224  0.00  0.00    +0.000 HD
ENDBRANCH   7  11
BRANCH   1  21
ATOM     21  N   UNL     1       3.801   4.921  16.995  0.00  0.00    +0.000 N 
ATOM     22  H   UNL     1       3.192   4.810  16.179  0.00  0.00    +0.000 HD
BRANCH  21  26
ATOM     23  C   UNL     1       7.454   5.179  17.647  0.00  0.00    +0.000 C 
ATOM     24  C   UNL     1       6.810   5.242  16.258  0.00  0.00    +0.000 C 
ATOM     25  C   UNL     1       5.879   4.059  15.977  0.00  0.00    +0.000 C 
ATOM     26  C   UNL     1       4.820   3.860  17.071  0.00  0.00    +0.000 C 
ATOM     27  C   UNL     1       5.441   3.829  18.471  0.00  0.00    +0.000 C 
ATOM     28  C   UNL     1       6.391   4.999  18.737  0.00  0.00    +0.000 C 
BRANCH  23  29
ATOM     29  N   UNL     1       8.452   4.110  17.718  0.00  0.00    +0.000 NA
ATOM     30  H   UNL     1       8.120   3.373  18.338  0.00  0.00    +0.000 HD
ATOM     31  H   UNL     1       9.326   4.444  18.118  0.00  0.00    +0.000 HD
ENDBRANCH  23  29
ENDBRANCH  21  26
ENDBRANCH   1  21
TORSDOF 4
ENDMDL
MODEL 3
REMARK VINA RESULT:      -8.2      3.327      5.043
REMARK  Name = 
REMARK  4 active torsions:
REMARK  status: ('A' for Active; 'I' for Inactive)
REMARK    1  A    between atoms: N_1  and  C_2
REMARK    2  A    between atoms: C_5  and  N_6
REMARK    3  A    between atoms: N_6  and  C_7
REMARK    4  A    between atoms: C_13  and  C_14
REMARK                            x       y       z     vdW  Elec       q    Type
REMARK                         _______ _______ _______ _____ _____    ______ ____
ROOT
ATOM      1  C   UNL     1       1.759   7.420  20.396  0.00  0.00    +0.000 A 
ATOM      2  C   UNL     1       1.243   7.696  21.604  0.00  0.00    +0.000 A 
ATOM      3  C   UNL     1       0.713   9.052  21.853  0.00  0.00    +0.000 A 
ATOM      4 CL   UNL     1       0.024   9.411  23.397  0.00  0.00    +0.000 Cl
ATOM      5  N   UNL     1       0.715  10.032  21.013  0.00  0.00    +0.000 NA
ATOM      6  N   UNL     1       1.280   9.715  19.813  0.00  0.00    +0.000 N 
ATOM      7  C   UNL     1       1.438  10.578  18.739  0.00  0.00    +0.000 A 
ATOM      8  C   UNL     1       2.002   9.779  17.755  0.00  0.00    +0.000 A 
ATOM      9  N   UNL     1       2.221   8.495  18.190  0.00  0.00    +0.000 NA
ATOM     10  C   UNL     1       1.793   8.482  19.437  0.00  0.00    +0.000 A 
ENDROOT
BRANCH   7  11
ATOM     11  C   UNL     1       1.056  12.000  18.719  0.00  0.00    +0.000 A 
ATOM     12  C   UNL     1      -0.294  12.385  18.681  0.00  0.00    +0.000 A 
ATOM     13  C   UNL     1      -0.698  13.727  18.643  0.00  0.00    +0.000 A 
ATOM     14  C   UNL     1       0.311  14.685  18.669  0.00  0.00    +0.000 A 
ATOM     15  N   UNL     1       0.265  16.055  18.646  0.00  0.00    +0.000 N 
ATOM     16  N   UNL     1       1.473  16.645  18.692  0.00  0.00    +0.000 NA
ATOM     17  C   UNL     1       2.318  15.612  18.740  0.00  0.00    +0.000 A 
ATOM     18  C   UNL     1       1.661  14.361  18.727  0.00  0.00    +0.000 A 
ATOM     19  C   UNL     1       2.044  13.003  18.755  0.00  0.00    +0.000 A 
ATOM     20  H   UNL     1      -0.558  16.644  18.601  0.00  0.00    +0.000 HD
ENDBRANCH   7  11
BRANCH   1  21
ATOM     21  N   UNL     1       2.279   6.162  20.078  0.00  0.00    +0.000 N 
ATOM     22  H   UNL     1       3.157   6.293  19.565  0.00  0.00    +0.000 HD
BRANCH  21  26
ATOM     23  C   UNL     1       3.162   2.648  19.237  0.00  0.00    +0.000 C 
ATOM     24  C   UNL     1       3.318   3.838  18.283  0.00  0.00    +0.000 C 
ATOM     25  C   UNL     1       2.032   4.657  18.136  0.00  0.00    +0.000 C 
ATOM     26  C   UNL     1       1.448   5.100  19.485  0.00  0.00    +0.000 C 
ATOM     27  C   UNL     1       1.317   3.930  20.464  0.00  0.00    +0.000 C 
ATOM     28  C   UNL     1       2.596   3.099  20.589  0.00  0.00    +0.000 C 
BRANCH  23  29
ATOM     29  N   UNL     1       2.320   1.606  18.646  0.00  0.00    +0.000 NA
ATOM     30  H   UNL     1       1.644   1.280  19.337  0.00  0.00    +0.000 HD
ATOM     31  H   UNL     1       2.869   0.791  18.381  0.00  0.00    +0.000 HD
ENDBRANCH  23  29
ENDBRANCH  21  26
ENDBRANCH   1  21
TORSDOF 4
ENDMDL
MODEL 4
REMARK VINA RESULT:      -8.1      0.594      1.318
REMARK  Name = 
REMARK  4 active torsions:
REMARK  status: ('A' for Active; 'I' for Inactive)
REMARK    1  A    between atoms: N_1  and  C_2
REMARK    2  A    between atoms: C_5  and  N_6
REMARK    3  A    between atoms: N_6  and  C_7
REMARK    4  A    between atoms: C_13  and  C_14
REMARK                            x       y       z     vdW  Elec       q    Type
REMARK                         _______ _______ _______ _____ _____    ______ ____
ROOT
ATOM      1  C   UNL     1       3.755   5.506  18.281  0.00  0.00    +0.000 A 
ATOM      2  C   UNL     1       3.390   4.724  19.310  0.00  0.00    +0.000 A 
ATOM      3  C   UNL     1       2.403   5.243  20.278  0.00  0.00    +0.000 A 
ATOM      4 CL   UNL     1       1.909   4.234  21.592  0.00  0.00    +0.000 Cl
ATOM      5  N   UNL     1       1.856   6.412  20.249  0.00  0.00    +0.000 NA
ATOM      6  N   UNL     1       2.283   7.183  19.208  0.00  0.00    +0.000 N 
ATOM      7  C   UNL     1       1.883   8.485  18.948  0.00  0.00    +0.000 A 
ATOM      8  C   UNL     1       2.544   8.803  17.770  0.00  0.00    +0.000 A 
ATOM      9  N   UNL     1       3.343   7.777  17.329  0.00  0.00    +0.000 NA
ATOM     10  C   UNL     1       3.182   6.816  18.217  0.00  0.00    +0.000 A 
ENDROOT
BRANCH   7  11
ATOM     11  C   UNL     1       0.955   9.277  19.772  0.00  0.00    +0.000 A 
ATOM     12  C   UNL     1       0.110  10.237  19.189  0.00  0.00    +0.000 A 
ATOM     13  C   UNL     1      -0.773  11.023  19.941  0.00  0.00    +0.000 A 
ATOM     14  C   UNL     1      -0.800  10.797  21.315  0.00  0.00    +0.000 A 
ATOM     15  N   UNL     1      -1.532  11.377  22.318  0.00  0.00    +0.000 N 
ATOM     16  N   UNL     1      -1.279  10.877  23.541  0.00  0.00    +0.000 NA
ATOM     17  C   UNL     1      -0.347   9.949  23.306  0.00  0.00    +0.000 A 
ATOM     18  C   UNL     1      -0.001   9.848  21.940  0.00  0.00    +0.000 A 
ATOM     19  C   UNL     1       0.888   9.074  21.164  0.00  0.00    +0.000 A 
ATOM     20  H   UNL     1      -2.219  12.116  22.232  0.00  0.00    +0.000 HD
ENDBRANCH   7  11
BRANCH   1  21
ATOM     21  N   UNL     1       4.680   5.090  17.320  0.00  0.00    +0.000 N 
ATOM     22  H   UNL     1       5.208   4.298  17.699  0.00  0.00    +0.000 HD
BRANCH  21  26
ATOM     23  C   UNL     1       7.166   4.476  14.623  0.00  0.00    +0.000 C 
ATOM     24  C   UNL     1       7.480   4.440  16.123  0.00  0.00    +0.000 C 
ATOM     25  C   UNL     1       7.026   5.705  16.858  0.00  0.00    +0.000 C 
ATOM     26  C   UNL     1       5.550   6.042  16.609  0.00  0.00    +0.000 C 
ATOM     27  C   UNL     1       5.208   6.049  15.115  0.00  0.00    +0.000 C 
ATOM     28  C   UNL     1       5.687   4.795  14.380  0.00  0.00    +0.000 C 
BRANCH  23  29
ATOM     29  N   UNL     1       8.024   5.438  13.927  0.00  0.00    +0.000 NA
ATOM     30  H   UNL     1       8.076   6.301  14.467  0.00  0.00    +0.000 HD
ATOM     31  H   UNL     1       7.636   5.694  13.023  0.00  0.00    +0.000 HD
ENDBRANCH  23  29
ENDBRANCH  21  26
ENDBRANCH   1  21
TORSDOF 4
ENDMDL
MODEL 5
REMARK VINA RESULT:      -8.1      3.446      9.819
REMARK  Name = 
REMARK  4 active torsions:
REMARK  status: ('A' for Active; 'I' for Inactive)
REMARK    1  A    between atoms: N_1  and  C_2
REMARK    2  A    between atoms: C_5  and  N_6
REMARK    3  A    between atoms: N_6  and  C_7
REMARK    4  A    between atoms: C_13  and  C_14
REMARK                            x       y       z     vdW  Elec       q    Type
REMARK                         _______ _______ _______ _____ _____    ______ ____
ROOT
ATOM      1  C   UNL     1      -2.151  12.386  19.552  0.00  0.00    +0.000 A 
ATOM      2  C   UNL     1      -2.844  11.824  18.548  0.00  0.00    +0.000 A 
ATOM      3  C   UNL     1      -2.325  10.583  17.938  0.00  0.00    +0.000 A 
ATOM      4 CL   UNL     1      -3.222   9.839  16.661  0.00  0.00    +0.000 Cl
ATOM      5  N   UNL     1      -1.231   9.979  18.263  0.00  0.00    +0.000 NA
ATOM      6  N   UNL     1      -0.545  10.605  19.262  0.00  0.00    +0.000 N 
ATOM      7  C   UNL     1       0.669  10.192  19.791  0.00  0.00    +0.000 A 
ATOM      8  C   UNL     1       0.918  11.112  20.799  0.00  0.00    +0.000 A 
ATOM      9  N   UNL     1      -0.062  12.071  20.882  0.00  0.00    +0.000 NA
ATOM     10  C   UNL     1      -0.925  11.755  19.937  0.00  0.00    +0.000 A 
ENDROOT
BRANCH   7  11
ATOM     11  C   UNL     1       1.448   9.026  19.341  0.00  0.00    +0.000 A 
ATOM     12  C   UNL     1       2.100   9.029  18.097  0.00  0.00    +0.000 A 
ATOM     13  C   UNL     1       2.835   7.933  17.625  0.00  0.00    +0.000 A 
ATOM     14  C   UNL     1       2.916   6.825  18.464  0.00  0.00    +0.000 A 
ATOM     15  N   UNL     1       3.542   5.615  18.314  0.00  0.00    +0.000 N 
ATOM     16  N   UNL     1       3.397   4.788  19.365  0.00  0.00    +0.000 NA
ATOM     17  C   UNL     1       2.645   5.498  20.212  0.00  0.00    +0.000 A 
ATOM     18  C   UNL     1       2.309   6.776  19.712  0.00  0.00    +0.000 A 
ATOM     19  C   UNL     1       1.565   7.888  20.163  0.00  0.00    +0.000 A 
ATOM     20  H   UNL     1       4.084   5.295  17.521  0.00  0.00    +0.000 HD
ENDBRANCH   7  11
BRANCH   1  21
ATOM     21  N   UNL     1      -2.574  13.557  20.185  0.00  0.00    +0.000 N 
ATOM     22  H   UNL     1      -1.788  13.939  20.720  0.00  0.00    +0.000 HD
BRANCH  21  26
ATOM     23  C   UNL     1      -3.167  14.419  23.755  0.00  0.00    +0.000 C 
ATOM     24  C   UNL     1      -2.900  13.002  23.232  0.00  0.00    +0.000 C 
ATOM     25  C   UNL     1      -3.832  12.604  22.084  0.00  0.00    +0.000 C 
ATOM     26  C   UNL     1      -3.838  13.626  20.938  0.00  0.00    +0.000 C 
ATOM     27  C   UNL     1      -4.069  15.053  21.444  0.00  0.00    +0.000 C 
ATOM     28  C   UNL     1      -3.154  15.437  22.609  0.00  0.00    +0.000 C 
BRANCH  23  29
ATOM     29  N   UNL     1      -4.434  14.481  24.486  0.00  0.00    +0.000 NA
ATOM     30  H   UNL     1      -4.251  14.474  25.489  0.00  0.00    +0.000 HD
ATOM     31  H   UNL     1      -5.011  13.664  24.299  0.00  0.00    +0.000 HD
ENDBRANCH  23  29
ENDBRANCH  21  26
ENDBRANCH   1  21
TORSDOF 4
ENDMDL
MODEL 6
REMARK VINA RESULT:      -8.1      3.269      9.842
REMARK  Name = 
REMARK  4 active torsions:
REMARK  status: ('A' for Active; 'I' for Inactive)
REMARK    1  A    between atoms: N_1  and  C_2
REMARK    2  A    between atoms: C_5  and  N_6
REMARK    3  A    between atoms: N_6  and  C_7
REMARK    4  A    between atoms: C_13  and  C_14
REMARK                            x       y       z     vdW  Elec       q    Type
REMARK                         _______ _______ _______ _____ _____    ______ ____
ROOT
ATOM      1  C   UNL     1      -1.028  11.580  21.124  0.00  0.00    +0.000 A 
ATOM      2  C   UNL     1      -1.542  11.639  19.885  0.00  0.00    +0.000 A 
ATOM      3  C   UNL     1      -1.145  10.609  18.904  0.00  0.00    +0.000 A 
ATOM      4 CL   UNL     1      -1.820  10.663  17.314  0.00  0.00    +0.000 Cl
ATOM      5  N   UNL     1      -0.313   9.644  19.114  0.00  0.00    +0.000 NA
ATOM      6  N   UNL     1       0.209   9.645  20.374  0.00  0.00    +0.000 N 
ATOM      7  C   UNL     1       1.142   8.743  20.864  0.00  0.00    +0.000 A 
ATOM      8  C   UNL     1       1.306   9.127  22.187  0.00  0.00    +0.000 A 
ATOM      9  N   UNL     1       0.550  10.228  22.507  0.00  0.00    +0.000 NA
ATOM     10  C   UNL     1      -0.091  10.533  21.397  0.00  0.00    +0.000 A 
ENDROOT
BRANCH   7  11
ATOM     11  C   UNL     1       1.759   7.648  20.098  0.00  0.00    +0.000 A 
ATOM     12  C   UNL     1       2.355   7.887  18.848  0.00  0.00    +0.000 A 
ATOM     13  C   UNL     1       2.936   6.868  18.080  0.00  0.00    +0.000 A 
ATOM     14  C   UNL     1       2.921   5.587  18.624  0.00  0.00    +0.000 A 
ATOM     15  N   UNL     1       3.395   4.392  18.149  0.00  0.00    +0.000 N 
ATOM     16  N   UNL     1       3.198   3.354  18.981  0.00  0.00    +0.000 NA
ATOM     17  C   UNL     1       2.571   3.910  20.022  0.00  0.00    +0.000 A 
ATOM     18  C   UNL     1       2.366   5.299  19.864  0.00  0.00    +0.000 A 
ATOM     19  C   UNL     1       1.777   6.338  20.616  0.00  0.00    +0.000 A 
ATOM     20  H   UNL     1       3.862   4.220  17.267  0.00  0.00    +0.000 HD
ENDBRANCH   7  11
BRANCH   1  21
ATOM     21  N   UNL     1      -1.354  12.513  22.112  0.00  0.00    +0.000 N 
ATOM     22  H   UNL     1      -1.349  12.040  23.020  0.00  0.00    +0.000 HD
BRANCH  21  26
ATOM     23  C   UNL     1      -3.448  14.107  24.741  0.00  0.00    +0.000 C 
ATOM     24  C   UNL     1      -3.738  12.744  24.102  0.00  0.00    +0.000 C 
ATOM     25  C   UNL     1      -3.763  12.795  22.572  0.00  0.00    +0.000 C 
ATOM     26  C   UNL     1      -2.499  13.429  21.974  0.00  0.00    +0.000 C 
ATOM     27  C   UNL     1      -2.172  14.777  22.625  0.00  0.00    +0.000 C 
ATOM     28  C   UNL     1      -2.174  14.727  24.154  0.00  0.00    +0.000 C 
BRANCH  23  29
ATOM     29  N   UNL     1      -4.585  15.016  24.583  0.00  0.00    +0.000 NA
ATOM     30  H   UNL     1      -5.452  14.515  24.771  0.00  0.00    +0.000 HD
ATOM     31  H   UNL     1      -4.657  15.358  23.628  0.00  0.00    +0.000 HD
ENDBRANCH  23  29
ENDBRANCH  21  26
ENDBRANCH   1  21
TORSDOF 4
ENDMDL
MODEL 7
REMARK VINA RESULT:      -8.0      3.424      9.588
REMARK  Name = 
REMARK  4 active torsions:
REMARK  status: ('A' for Active; 'I' for Inactive)
REMARK    1  A    between atoms: N_1  and  C_2
REMARK    2  A    between atoms: C_5  and  N_6
REMARK    3  A    between atoms: N_6  and  C_7
REMARK    4  A    between atoms: C_13  and  C_14
REMARK                            x       y       z     vdW  Elec       q    Type
REMARK                         _______ _______ _______ _____ _____    ______ ____
ROOT
ATOM      1  C   UNL     1      -0.766  11.779  20.760  0.00  0.00    +0.000 A 
ATOM      2  C   UNL     1      -1.361  11.694  19.560  0.00  0.00    +0.000 A 
ATOM      3  C   UNL     1      -1.105  10.504  18.724  0.00  0.00    +0.000 A 
ATOM      4 CL   UNL     1      -1.885  10.376  17.187  0.00  0.00    +0.000 Cl
ATOM      5  N   UNL     1      -0.327   9.519  19.028  0.00  0.00    +0.000 NA
ATOM      6  N   UNL     1       0.282   9.665  20.240  0.00  0.00    +0.000 N 
ATOM      7  C   UNL     1       1.184   8.775  20.804  0.00  0.00    +0.000 A 
ATOM      8  C   UNL     1       1.467   9.335  22.042  0.00  0.00    +0.000 A 
ATOM      9  N   UNL     1       0.811  10.526  22.236  0.00  0.00    +0.000 NA
ATOM     10  C   UNL     1       0.115  10.713  21.132  0.00  0.00    +0.000 A 
ENDROOT
BRANCH   7  11
ATOM     11  C   UNL     1       1.670   7.535  20.178  0.00  0.00    +0.000 A 
ATOM     12  C   UNL     1       2.367   7.567  18.957  0.00  0.00    +0.000 A 
ATOM     13  C   UNL     1       2.829   6.408  18.320  0.00  0.00    +0.000 A 
ATOM     14  C   UNL     1       2.589   5.199  18.966  0.00  0.00    +0.000 A 
ATOM     15  N   UNL     1       2.901   3.908  18.627  0.00  0.00    +0.000 N 
ATOM     16  N   UNL     1       2.501   2.992  19.526  0.00  0.00    +0.000 NA
ATOM     17  C   UNL     1       1.907   3.728  20.470  0.00  0.00    +0.000 A 
ATOM     18  C   UNL     1       1.925   5.111  20.184  0.00  0.00    +0.000 A 
ATOM     19  C   UNL     1       1.459   6.290  20.802  0.00  0.00    +0.000 A 
ATOM     20  H   UNL     1       3.387   3.589  17.797  0.00  0.00    +0.000 HD
ENDBRANCH   7  11
BRANCH   1  21
ATOM     21  N   UNL     1      -0.958  12.869  21.613  0.00  0.00    +0.000 N 
ATOM     22  H   UNL     1      -0.168  13.511  21.502  0.00  0.00    +0.000 HD
BRANCH  21  26
ATOM     23  C   UNL     1      -3.876  14.236  23.471  0.00  0.00    +0.000 C 
ATOM     24  C   UNL     1      -2.522  14.942  23.332  0.00  0.00    +0.000 C 
ATOM     25  C   UNL     1      -1.342  14.056  23.743  0.00  0.00    +0.000 C 
ATOM     26  C   UNL     1      -1.336  12.699  23.026  0.00  0.00    +0.000 C 
ATOM     27  C   UNL     1      -2.692  11.993  23.124  0.00  0.00    +0.000 C 
ATOM     28  C   UNL     1      -3.870  12.889  22.738  0.00  0.00    +0.000 C 
BRANCH  23  29
ATOM     29  N   UNL     1      -4.234  14.055  24.880  0.00  0.00    +0.000 NA
ATOM     30  H   UNL     1      -4.928  14.752  25.148  0.00  0.00    +0.000 HD
ATOM     31  H   UNL     1      -3.433  14.206  25.488  0.00  0.00    +0.000 HD
ENDBRANCH  23  29
ENDBRANCH  21  26
ENDBRANCH   1  21
TORSDOF 4
ENDMDL
MODEL 8
REMARK VINA RESULT:      -8.0      3.208      8.203
REMARK  Name = 
REMARK  4 active torsions:
REMARK  status: ('A' for Active; 'I' for Inactive)
REMARK    1  A    between atoms: N_1  and  C_2
REMARK    2  A    between atoms: C_5  and  N_6
REMARK    3  A    between atoms: N_6  and  C_7
REMARK    4  A    between atoms: C_13  and  C_14
REMARK                            x       y       z     vdW  Elec       q    Type
REMARK                         _______ _______ _______ _____ _____    ______ ____
ROOT
ATOM      1  C   UNL     1       0.693  11.002  19.949  0.00  0.00    +0.000 A 
ATOM      2  C   UNL     1       0.283  10.851  21.219  0.00  0.00    +0.000 A 
ATOM      3  C   UNL     1       0.531   9.560  21.893  0.00  0.00    +0.000 A 
ATOM      4 CL   UNL     1       0.029   9.364  23.535  0.00  0.00    +0.000 Cl
ATOM      5  N   UNL     1       1.096   8.526  21.365  0.00  0.00    +0.000 NA
ATOM      6  N   UNL     1       1.463   8.715  20.065  0.00  0.00    +0.000 N 
ATOM      7  C   UNL     1       2.065   7.769  19.248  0.00  0.00    +0.000 A 
ATOM      8  C   UNL     1       2.284   8.452  18.061  0.00  0.00    +0.000 A 
ATOM      9  N   UNL     1       1.818   9.743  18.110  0.00  0.00    +0.000 NA
ATOM     10  C   UNL     1       1.314   9.876  19.321  0.00  0.00    +0.000 A 
ENDROOT
BRANCH   7  11
ATOM     11  C   UNL     1       2.380   6.383  19.631  0.00  0.00    +0.000 A 
ATOM     12  C   UNL     1       1.520   5.652  20.469  0.00  0.00    +0.000 A 
ATOM     13  C   UNL     1       1.793   4.338  20.871  0.00  0.00    +0.000 A 
ATOM     14  C   UNL     1       2.961   3.762  20.379  0.00  0.00    +0.000 A 
ATOM     15  N   UNL     1       3.514   2.522  20.569  0.00  0.00    +0.000 N 
ATOM     16  N   UNL     1       4.669   2.329  19.909  0.00  0.00    +0.000 NA
ATOM     17  C   UNL     1       4.862   3.493  19.281  0.00  0.00    +0.000 A 
ATOM     18  C   UNL     1       3.835   4.431  19.531  0.00  0.00    +0.000 A 
ATOM     19  C   UNL     1       3.545   5.757  19.148  0.00  0.00    +0.000 A 
ATOM     20  H   UNL     1       3.150   1.764  21.135  0.00  0.00    +0.000 HD
ENDBRANCH   7  11
BRANCH   1  21
ATOM     21  N   UNL     1       0.500  12.191  19.241  0.00  0.00    +0.000 N 
ATOM     22  H   UNL     1       0.013  11.973  18.366  0.00  0.00    +0.000 HD
BRANCH  21  26
ATOM     23  C   UNL     1       0.978  15.559  20.744  0.00  0.00    +0.000 C 
ATOM     24  C   UNL     1       0.218  15.286  19.441  0.00  0.00    +0.000 C 
ATOM     25  C   UNL     1       1.032  14.464  18.437  0.00  0.00    +0.000 C 
ATOM     26  C   UNL     1       1.586  13.165  19.038  0.00  0.00    +0.000 C 
ATOM     27  C   UNL     1       2.320  13.413  20.360  0.00  0.00    +0.000 C 
ATOM     28  C   UNL     1       1.513  14.257  21.350  0.00  0.00    +0.000 C 
BRANCH  23  29
ATOM     29  N   UNL     1       2.066  16.515  20.529  0.00  0.00    +0.000 NA
ATOM     30  H   UNL     1       2.962  16.054  20.689  0.00  0.00    +0.000 HD
ATOM     31  H   UNL     1       2.021  17.284  21.194  0.00  0.00    +0.000 HD
ENDBRANCH  23  29
ENDBRANCH  21  26
ENDBRANCH   1  21
TORSDOF 4
ENDMDL
MODEL 9
REMARK VINA RESULT:      -8.0      2.850      9.757
REMARK  Name = 
REMARK  4 active torsions:
REMARK  status: ('A' for Active; 'I' for Inactive)
REMARK    1  A    between atoms: N_1  and  C_2
REMARK    2  A    between atoms: C_5  and  N_6
REMARK    3  A    between atoms: N_6  and  C_7
REMARK    4  A    between atoms: C_13  and  C_14
REMARK                            x       y       z     vdW  Elec       q    Type
REMARK                         _______ _______ _______ _____ _____    ______ ____
ROOT
ATOM      1  C   UNL     1      -1.044  11.631  20.995  0.00  0.00    +0.000 A 
ATOM      2  C   UNL     1      -1.529  11.617  19.743  0.00  0.00    +0.000 A 
ATOM      3  C   UNL     1      -1.134  10.516  18.842  0.00  0.00    +0.000 A 
ATOM      4 CL   UNL     1      -1.772  10.477  17.236  0.00  0.00    +0.000 Cl
ATOM      5  N   UNL     1      -0.330   9.549  19.136  0.00  0.00    +0.000 NA
ATOM      6  N   UNL     1       0.164   9.623  20.405  0.00  0.00    +0.000 N 
ATOM      7  C   UNL     1       1.064   8.735  20.976  0.00  0.00    +0.000 A 
ATOM      8  C   UNL     1       1.208   9.203  22.274  0.00  0.00    +0.000 A 
ATOM      9  N   UNL     1       0.471  10.340  22.502  0.00  0.00    +0.000 NA
ATOM     10  C   UNL     1      -0.138  10.583  21.359  0.00  0.00    +0.000 A 
ENDROOT
BRANCH   7  11
ATOM     11  C   UNL     1       1.672   7.578  20.299  0.00  0.00    +0.000 A 
ATOM     12  C   UNL     1       1.468   6.272  20.777  0.00  0.00    +0.000 A 
ATOM     13  C   UNL     1       2.044   5.147  20.173  0.00  0.00    +0.000 A 
ATOM     14  C   UNL     1       2.824   5.372  19.042  0.00  0.00    +0.000 A 
ATOM     15  N   UNL     1       3.515   4.514  18.228  0.00  0.00    +0.000 N 
ATOM     16  N   UNL     1       4.156   5.118  17.212  0.00  0.00    +0.000 NA
ATOM     17  C   UNL     1       3.867   6.410  17.391  0.00  0.00    +0.000 A 
ATOM     18  C   UNL     1       3.042   6.639  18.515  0.00  0.00    +0.000 A 
ATOM     19  C   UNL     1       2.460   7.759  19.146  0.00  0.00    +0.000 A 
ATOM     20  H   UNL     1       3.586   3.507  18.311  0.00  0.00    +0.000 HD
ENDBRANCH   7  11
BRANCH   1  21
ATOM     21  N   UNL     1      -1.369  12.635  21.910  0.00  0.00    +0.000 N 
ATOM     22  H   UNL     1      -1.223  12.271  22.857  0.00  0.00    +0.000 HD
BRANCH  21  26
ATOM     23  C   UNL     1      -3.535  14.021  24.598  0.00  0.00    +0.000 C 
ATOM     24  C   UNL     1      -3.692  12.625  23.984  0.00  0.00    +0.000 C 
ATOM     25  C   UNL     1      -3.777  12.650  22.455  0.00  0.00    +0.000 C 
ATOM     26  C   UNL     1      -2.615  13.414  21.805  0.00  0.00    +0.000 C 
ATOM     27  C   UNL     1      -2.420  14.799  22.429  0.00  0.00    +0.000 C 
ATOM     28  C   UNL     1      -2.362  14.772  23.957  0.00  0.00    +0.000 C 
BRANCH  23  29
ATOM     29  N   UNL     1      -4.773  14.794  24.472  0.00  0.00    +0.000 NA
ATOM     30  H   UNL     1      -5.562  14.159  24.355  0.00  0.00    +0.000 HD
ATOM     31  H   UNL     1      -4.759  15.384  23.644  0.00  0.00    +0.000 HD
ENDBRANCH  23  29
ENDBRANCH  21  26
ENDBRANCH   1  21
TORSDOF 4
ENDMDL
