MODEL 1
REMARK VINA RESULT:      -6.7      0.000      0.000
REMARK  Name = 
REMARK  13 active torsions:
REMARK  status: ('A' for Active; 'I' for Inactive)
REMARK    1  A    between atoms: C_1  and  O_2
REMARK    2  A    between atoms: O_2  and  C_3
REMARK    3  A    between atoms: C_7  and  C_8
REMARK    4  A    between atoms: C_8  and  C_9
REMARK    5  A    between atoms: C_9  and  C_10
REMARK    6  A    between atoms: C_15  and  O_16
REMARK    7  A    between atoms: O_16  and  C_17
REMARK    8  A    between atoms: C_17  and  C_18
REMARK    9  A    between atoms: C_18  and  C_19
REMARK   10  A    between atoms: C_19  and  C_20
REMARK   11  A    between atoms: C_20  and  N_21
REMARK   12  A    between atoms: N_21  and  C_22
REMARK   13  A    between atoms: N_21  and  C_23
REMARK                            x       y       z     vdW  Elec       q    Type
REMARK                         _______ _______ _______ _____ _____    ______ ____
ROOT
ATOM      1  C   UNL     1       2.848   4.557  19.029  0.00  0.00    +0.000 A 
ATOM      2  C   UNL     1       1.607   4.341  19.672  0.00  0.00    +0.000 A 
ATOM      3  C   UNL     1       0.957   3.114  19.599  0.00  0.00    +0.000 A 
ATOM      4  C   UNL     1       1.519   2.074  18.877  0.00  0.00    +0.000 A 
ATOM      5  C   UNL     1       2.721   2.262  18.206  0.00  0.00    +0.000 A 
ATOM      6  C   UNL     1       3.417   3.499  18.252  0.00  0.00    +0.000 A 
ENDROOT
BRANCH   1   7
ATOM      7  C   UNL     1       3.477   5.931  19.182  0.00  0.00    +0.000 C 
BRANCH   7   8
ATOM      8  C   UNL     1       2.875   6.952  18.181  0.00  0.00    +0.000 C 
BRANCH   8  13
ATOM      9  C   UNL     1       1.045   8.994  20.870  0.00  0.00    +0.000 A 
ATOM     10  C   UNL     1       0.713  10.149  20.136  0.00  0.00    +0.000 A 
ATOM     11  C   UNL     1       1.080  10.259  18.794  0.00  0.00    +0.000 A 
ATOM     12  C   UNL     1       1.777   9.225  18.164  0.00  0.00    +0.000 A 
ATOM     13  C   UNL     1       2.114   8.065  18.870  0.00  0.00    +0.000 A 
ATOM     14  C   UNL     1       1.747   7.957  20.233  0.00  0.00    +0.000 A 
BRANCH   9  16
ATOM     15  C   UNL     1      -0.274   9.550  22.847  0.00  0.00    +0.000 C 
ATOM     16  O   UNL     1       0.710   8.846  22.181  0.00  0.00    +0.000 OA
ENDBRANCH   9  16
ENDBRANCH   8  13
ENDBRANCH   7   8
ENDBRANCH   1   7
BRANCH   6  17
ATOM     17  O   UNL     1       4.584   3.671  17.543  0.00  0.00    +0.000 OA
BRANCH  17  18
ATOM     18  C   UNL     1       4.590   3.819  16.154  0.00  0.00    +0.000 C 
BRANCH  18  19
ATOM     19  C   UNL     1       5.151   5.150  15.631  0.00  0.00    +0.000 C 
BRANCH  19  20
ATOM     20  C   UNL     1       6.424   5.480  16.450  0.00  0.00    +0.000 C 
BRANCH  20  21
ATOM     21  C   UNL     1       6.446   6.874  17.104  0.00  0.00    +0.000 C 
BRANCH  21  22
ATOM     22  N   UNL     1       7.784   7.302  17.576  0.00  0.00    +0.000 NA
ATOM     23  C   UNL     1       7.869   8.761  17.780  0.00  0.00    +0.000 C 
ATOM     24  C   UNL     1       8.082   6.625  18.851  0.00  0.00    +0.000 C 
ENDBRANCH  21  22
ENDBRANCH  20  21
ENDBRANCH  19  20
ENDBRANCH  18  19
ENDBRANCH  17  18
ENDBRANCH   6  17
TORSDOF 10
ENDMDL
MODEL 2
REMARK VINA RESULT:      -6.7      2.428      6.291
REMARK  Name = 
REMARK  13 active torsions:
REMARK  status: ('A' for Active; 'I' for Inactive)
REMARK    1  A    between atoms: C_1  and  O_2
REMARK    2  A    between atoms: O_2  and  C_3
REMARK    3  A    between atoms: C_7  and  C_8
REMARK    4  A    between atoms: C_8  and  C_9
REMARK    5  A    between atoms: C_9  and  C_10
REMARK    6  A    between atoms: C_15  and  O_16
REMARK    7  A    between atoms: O_16  and  C_17
REMARK    8  A    between atoms: C_17  and  C_18
REMARK    9  A    between atoms: C_18  and  C_19
REMARK   10  A    between atoms: C_19  and  C_20
REMARK   11  A    between atoms: C_20  and  N_21
REMARK   12  A    between atoms: N_21  and  C_22
REMARK   13  A    between atoms: N_21  and  C_23
REMARK                            x       y       z     vdW  Elec       q    Type
REMARK                         _______ _______ _______ _____ _____    ______ ____
ROOT
ATOM      1  C   UNL     1       2.767   6.645  18.426  0.00  0.00    +0.000 A 
ATOM      2  C   UNL     1       2.326   7.799  17.739  0.00  0.00    +0.000 A 
ATOM      3  C   UNL     1       1.700   8.845  18.407  0.00  0.00    +0.000 A 
ATOM      4  C   UNL     1       1.487   8.766  19.774  0.00  0.00    +0.000 A 
ATOM      5  C   UNL     1       1.879   7.631  20.474  0.00  0.00    +0.000 A 
ATOM      6  C   UNL     1       2.520   6.540  19.831  0.00  0.00    +0.000 A 
ENDROOT
BRANCH   1   7
ATOM      7  C   UNL     1       3.450   5.567  17.602  0.00  0.00    +0.000 C 
BRANCH   7   8
ATOM      8  C   UNL     1       4.562   6.157  16.694  0.00  0.00    +0.000 C 
BRANCH   8  13
ATOM      9  C   UNL     1       7.802   7.805  17.933  0.00  0.00    +0.000 A 
ATOM     10  C   UNL     1       8.253   6.831  18.847  0.00  0.00    +0.000 A 
ATOM     11  C   UNL     1       7.514   5.666  19.054  0.00  0.00    +0.000 A 
ATOM     12  C   UNL     1       6.324   5.449  18.357  0.00  0.00    +0.000 A 
ATOM     13  C   UNL     1       5.857   6.398  17.440  0.00  0.00    +0.000 A 
ATOM     14  C   UNL     1       6.603   7.583  17.235  0.00  0.00    +0.000 A 
BRANCH   9  16
ATOM     15  C   UNL     1       8.785   9.921  18.646  0.00  0.00    +0.000 C 
ATOM     16  O   UNL     1       8.488   8.957  17.703  0.00  0.00    +0.000 OA
ENDBRANCH   9  16
ENDBRANCH   8  13
ENDBRANCH   7   8
ENDBRANCH   1   7
BRANCH   6  17
ATOM     17  O   UNL     1       2.858   5.411  20.542  0.00  0.00    +0.000 OA
BRANCH  17  18
ATOM     18  C   UNL     1       1.892   4.581  21.115  0.00  0.00    +0.000 C 
BRANCH  18  19
ATOM     19  C   UNL     1       0.681   4.260  20.224  0.00  0.00    +0.000 C 
BRANCH  19  20
ATOM     20  C   UNL     1       1.072   3.076  19.304  0.00  0.00    +0.000 C 
BRANCH  20  21
ATOM     21  C   UNL     1       2.048   2.057  19.919  0.00  0.00    +0.000 C 
BRANCH  21  22
ATOM     22  N   UNL     1       3.184   1.697  19.037  0.00  0.00    +0.000 NA
ATOM     23  C   UNL     1       2.935   2.050  17.625  0.00  0.00    +0.000 C 
ATOM     24  C   UNL     1       4.393   2.404  19.497  0.00  0.00    +0.000 C 
ENDBRANCH  21  22
ENDBRANCH  20  21
ENDBRANCH  19  20
ENDBRANCH  18  19
ENDBRANCH  17  18
ENDBRANCH   6  17
TORSDOF 10
ENDMDL
MODEL 3
REMARK VINA RESULT:      -6.6      2.291      4.482
REMARK  Name = 
REMARK  13 active torsions:
REMARK  status: ('A' for Active; 'I' for Inactive)
REMARK    1  A    between atoms: C_1  and  O_2
REMARK    2  A    between atoms: O_2  and  C_3
REMARK    3  A    between atoms: C_7  and  C_8
REMARK    4  A    between atoms: C_8  and  C_9
REMARK    5  A    between atoms: C_9  and  C_10
REMARK    6  A    between atoms: C_15  and  O_16
REMARK    7  A    between atoms: O_16  and  C_17
REMARK    8  A    between atoms: C_17  and  C_18
REMARK    9  A    between atoms: C_18  and  C_19
REMARK   10  A    between atoms: C_19  and  C_20
REMARK   11  A    between atoms: C_20  and  N_21
REMARK   12  A    between atoms: N_21  and  C_22
REMARK   13  A    between atoms: N_21  and  C_23
REMARK                            x       y       z     vdW  Elec       q    Type
REMARK                         _______ _______ _______ _____ _____    ______ ____
ROOT
ATOM      1  C   UNL     1       4.732   5.774  17.459  0.00  0.00    +0.000 A 
ATOM      2  C   UNL     1       4.951   6.271  16.154  0.00  0.00    +0.000 A 
ATOM      3  C   UNL     1       5.921   5.724  15.322  0.00  0.00    +0.000 A 
ATOM      4  C   UNL     1       6.706   4.674  15.772  0.00  0.00    +0.000 A 
ATOM      5  C   UNL     1       6.540   4.182  17.060  0.00  0.00    +0.000 A 
ATOM      6  C   UNL     1       5.562   4.713  17.943  0.00  0.00    +0.000 A 
ENDROOT
BRANCH   1   7
ATOM      7  C   UNL     1       3.639   6.437  18.280  0.00  0.00    +0.000 C 
BRANCH   7   8
ATOM      8  C   UNL     1       3.088   7.707  17.580  0.00  0.00    +0.000 C 
BRANCH   8  13
ATOM      9  C   UNL     1       1.035   8.894  20.601  0.00  0.00    +0.000 A 
ATOM     10  C   UNL     1       0.184   9.832  19.983  0.00  0.00    +0.000 A 
ATOM     11  C   UNL     1       0.281  10.071  18.611  0.00  0.00    +0.000 A 
ATOM     12  C   UNL     1       1.218   9.383  17.837  0.00  0.00    +0.000 A 
ATOM     13  C   UNL     1       2.070   8.444  18.427  0.00  0.00    +0.000 A 
ATOM     14  C   UNL     1       1.977   8.206  19.818  0.00  0.00    +0.000 A 
BRANCH   9  16
ATOM     15  C   UNL     1       0.221   9.323  22.862  0.00  0.00    +0.000 C 
ATOM     16  O   UNL     1       0.978   8.632  21.936  0.00  0.00    +0.000 OA
ENDBRANCH   9  16
ENDBRANCH   8  13
ENDBRANCH   7   8
ENDBRANCH   1   7
BRANCH   6  17
ATOM     17  O   UNL     1       5.449   4.236  19.229  0.00  0.00    +0.000 OA
BRANCH  17  18
ATOM     18  C   UNL     1       4.537   3.234  19.567  0.00  0.00    +0.000 C 
BRANCH  18  19
ATOM     19  C   UNL     1       3.785   2.595  18.388  0.00  0.00    +0.000 C 
BRANCH  19  20
ATOM     20  C   UNL     1       2.442   2.042  18.928  0.00  0.00    +0.000 C 
BRANCH  20  21
ATOM     21  C   UNL     1       1.292   3.063  19.007  0.00  0.00    +0.000 C 
BRANCH  21  22
ATOM     22  N   UNL     1       0.920   3.452  20.388  0.00  0.00    +0.000 NA
ATOM     23  C   UNL     1       1.493   2.546  21.402  0.00  0.00    +0.000 C 
ATOM     24  C   UNL     1       1.400   4.821  20.647  0.00  0.00    +0.000 C 
ENDBRANCH  21  22
ENDBRANCH  20  21
ENDBRANCH  19  20
ENDBRANCH  18  19
ENDBRANCH  17  18
ENDBRANCH   6  17
TORSDOF 10
ENDMDL
MODEL 4
REMARK VINA RESULT:      -6.6      1.651      2.605
REMARK  Name = 
REMARK  13 active torsions:
REMARK  status: ('A' for Active; 'I' for Inactive)
REMARK    1  A    between atoms: C_1  and  O_2
REMARK    2  A    between atoms: O_2  and  C_3
REMARK    3  A    between atoms: C_7  and  C_8
REMARK    4  A    between atoms: C_8  and  C_9
REMARK    5  A    between atoms: C_9  and  C_10
REMARK    6  A    between atoms: C_15  and  O_16
REMARK    7  A    between atoms: O_16  and  C_17
REMARK    8  A    between atoms: C_17  and  C_18
REMARK    9  A    between atoms: C_18  and  C_19
REMARK   10  A    between atoms: C_19  and  C_20
REMARK   11  A    between atoms: C_20  and  N_21
REMARK   12  A    between atoms: N_21  and  C_22
REMARK   13  A    between atoms: N_21  and  C_23
REMARK                            x       y       z     vdW  Elec       q    Type
REMARK                         _______ _______ _______ _____ _____    ______ ____
ROOT
ATOM      1  C   UNL     1       2.208   4.537  19.117  0.00  0.00    +0.000 A 
ATOM      2  C   UNL     1       1.060   4.274  19.899  0.00  0.00    +0.000 A 
ATOM      3  C   UNL     1       1.068   3.304  20.895  0.00  0.00    +0.000 A 
ATOM      4  C   UNL     1       2.215   2.564  21.132  0.00  0.00    +0.000 A 
ATOM      5  C   UNL     1       3.351   2.774  20.360  0.00  0.00    +0.000 A 
ATOM      6  C   UNL     1       3.385   3.753  19.331  0.00  0.00    +0.000 A 
ENDROOT
BRANCH   1   7
ATOM      7  C   UNL     1       2.094   5.625  18.063  0.00  0.00    +0.000 C 
BRANCH   7   8
ATOM      8  C   UNL     1       2.847   6.914  18.487  0.00  0.00    +0.000 C 
BRANCH   8  13
ATOM      9  C   UNL     1       0.498   9.846  19.288  0.00  0.00    +0.000 A 
ATOM     10  C   UNL     1       0.316   9.660  20.672  0.00  0.00    +0.000 A 
ATOM     11  C   UNL     1       0.944   8.600  21.328  0.00  0.00    +0.000 A 
ATOM     12  C   UNL     1       1.762   7.716  20.621  0.00  0.00    +0.000 A 
ATOM     13  C   UNL     1       1.963   7.882  19.246  0.00  0.00    +0.000 A 
ATOM     14  C   UNL     1       1.321   8.953  18.581  0.00  0.00    +0.000 A 
BRANCH   9  16
ATOM     15  C   UNL     1      -1.338  10.812  18.003  0.00  0.00    +0.000 C 
ATOM     16  O   UNL     1      -0.097  10.863  18.608  0.00  0.00    +0.000 OA
ENDBRANCH   9  16
ENDBRANCH   8  13
ENDBRANCH   7   8
ENDBRANCH   1   7
BRANCH   6  17
ATOM     17  O   UNL     1       4.510   3.909  18.554  0.00  0.00    +0.000 OA
BRANCH  17  18
ATOM     18  C   UNL     1       5.789   3.985  19.111  0.00  0.00    +0.000 C 
BRANCH  18  19
ATOM     19  C   UNL     1       6.366   5.402  19.258  0.00  0.00    +0.000 C 
BRANCH  19  20
ATOM     20  C   UNL     1       7.447   5.587  18.163  0.00  0.00    +0.000 C 
BRANCH  20  21
ATOM     21  C   UNL     1       7.153   6.683  17.123  0.00  0.00    +0.000 C 
BRANCH  21  22
ATOM     22  N   UNL     1       6.674   6.168  15.818  0.00  0.00    +0.000 NA
ATOM     23  C   UNL     1       7.117   4.783  15.562  0.00  0.00    +0.000 C 
ATOM     24  C   UNL     1       5.201   6.207  15.798  0.00  0.00    +0.000 C 
ENDBRANCH  21  22
ENDBRANCH  20  21
ENDBRANCH  19  20
ENDBRANCH  18  19
ENDBRANCH  17  18
ENDBRANCH   6  17
TORSDOF 10
ENDMDL
MODEL 5
REMARK VINA RESULT:      -6.6      1.070      1.232
REMARK  Name = 
REMARK  13 active torsions:
REMARK  status: ('A' for Active; 'I' for Inactive)
REMARK    1  A    between atoms: C_1  and  O_2
REMARK    2  A    between atoms: O_2  and  C_3
REMARK    3  A    between atoms: C_7  and  C_8
REMARK    4  A    between atoms: C_8  and  C_9
REMARK    5  A    between atoms: C_9  and  C_10
REMARK    6  A    between atoms: C_15  and  O_16
REMARK    7  A    between atoms: O_16  and  C_17
REMARK    8  A    between atoms: C_17  and  C_18
REMARK    9  A    between atoms: C_18  and  C_19
REMARK   10  A    between atoms: C_19  and  C_20
REMARK   11  A    between atoms: C_20  and  N_21
REMARK   12  A    between atoms: N_21  and  C_22
REMARK   13  A    between atoms: N_21  and  C_23
REMARK                            x       y       z     vdW  Elec       q    Type
REMARK                         _______ _______ _______ _____ _____    ______ ____
ROOT
ATOM      1  C   UNL     1       2.451   4.797  18.765  0.00  0.00    +0.000 A 
ATOM      2  C   UNL     1       2.003   4.778  20.107  0.00  0.00    +0.000 A 
ATOM      3  C   UNL     1       2.331   3.736  20.966  0.00  0.00    +0.000 A 
ATOM      4  C   UNL     1       3.104   2.680  20.510  0.00  0.00    +0.000 A 
ATOM      5  C   UNL     1       3.534   2.651  19.189  0.00  0.00    +0.000 A 
ATOM      6  C   UNL     1       3.220   3.694  18.278  0.00  0.00    +0.000 A 
ENDROOT
BRANCH   1   7
ATOM      7  C   UNL     1       2.045   5.989  17.916  0.00  0.00    +0.000 C 
BRANCH   7   8
ATOM      8  C   UNL     1       2.814   7.273  18.325  0.00  0.00    +0.000 C 
BRANCH   8  13
ATOM      9  C   UNL     1       0.820   9.290  20.915  0.00  0.00    +0.000 A 
ATOM     10  C   UNL     1       0.246  10.276  20.088  0.00  0.00    +0.000 A 
ATOM     11  C   UNL     1       0.507  10.282  18.717  0.00  0.00    +0.000 A 
ATOM     12  C   UNL     1       1.335   9.311  18.150  0.00  0.00    +0.000 A 
ATOM     13  C   UNL     1       1.912   8.319  18.949  0.00  0.00    +0.000 A 
ATOM     14  C   UNL     1       1.654   8.316  20.340  0.00  0.00    +0.000 A 
BRANCH   9  16
ATOM     15  C   UNL     1      -0.500   9.778  22.909  0.00  0.00    +0.000 C 
ATOM     16  O   UNL     1       0.597   9.249  22.257  0.00  0.00    +0.000 OA
ENDBRANCH   9  16
ENDBRANCH   8  13
ENDBRANCH   7   8
ENDBRANCH   1   7
BRANCH   6  17
ATOM     17  O   UNL     1       3.622   3.617  16.964  0.00  0.00    +0.000 OA
BRANCH  17  18
ATOM     18  C   UNL     1       4.971   3.661  16.601  0.00  0.00    +0.000 C 
BRANCH  18  19
ATOM     19  C   UNL     1       5.385   4.860  15.732  0.00  0.00    +0.000 C 
BRANCH  19  20
ATOM     20  C   UNL     1       6.908   5.074  15.919  0.00  0.00    +0.000 C 
BRANCH  20  21
ATOM     21  C   UNL     1       7.481   4.602  17.268  0.00  0.00    +0.000 C 
BRANCH  21  22
ATOM     22  N   UNL     1       7.621   5.677  18.278  0.00  0.00    +0.000 NA
ATOM     23  C   UNL     1       7.445   7.022  17.696  0.00  0.00    +0.000 C 
ATOM     24  C   UNL     1       6.611   5.479  19.333  0.00  0.00    +0.000 C 
ENDBRANCH  21  22
ENDBRANCH  20  21
ENDBRANCH  19  20
ENDBRANCH  18  19
ENDBRANCH  17  18
ENDBRANCH   6  17
TORSDOF 10
ENDMDL
MODEL 6
REMARK VINA RESULT:      -6.6      2.180      6.933
REMARK  Name = 
REMARK  13 active torsions:
REMARK  status: ('A' for Active; 'I' for Inactive)
REMARK    1  A    between atoms: C_1  and  O_2
REMARK    2  A    between atoms: O_2  and  C_3
REMARK    3  A    between atoms: C_7  and  C_8
REMARK    4  A    between atoms: C_8  and  C_9
REMARK    5  A    between atoms: C_9  and  C_10
REMARK    6  A    between atoms: C_15  and  O_16
REMARK    7  A    between atoms: O_16  and  C_17
REMARK    8  A    between atoms: C_17  and  C_18
REMARK    9  A    between atoms: C_18  and  C_19
REMARK   10  A    between atoms: C_19  and  C_20
REMARK   11  A    between atoms: C_20  and  N_21
REMARK   12  A    between atoms: N_21  and  C_22
REMARK   13  A    between atoms: N_21  and  C_23
REMARK                            x       y       z     vdW  Elec       q    Type
REMARK                         _______ _______ _______ _____ _____    ______ ____
ROOT
ATOM      1  C   UNL     1       2.326   7.787  18.485  0.00  0.00    +0.000 A 
ATOM      2  C   UNL     1       1.827   9.044  18.071  0.00  0.00    +0.000 A 
ATOM      3  C   UNL     1       1.151   9.881  18.950  0.00  0.00    +0.000 A 
ATOM      4  C   UNL     1       0.944   9.486  20.262  0.00  0.00    +0.000 A 
ATOM      5  C   UNL     1       1.392   8.244  20.694  0.00  0.00    +0.000 A 
ATOM      6  C   UNL     1       2.085   7.357  19.829  0.00  0.00    +0.000 A 
ENDROOT
BRANCH   1   7
ATOM      7  C   UNL     1       3.060   6.955  17.447  0.00  0.00    +0.000 C 
BRANCH   7   8
ATOM      8  C   UNL     1       4.474   7.523  17.154  0.00  0.00    +0.000 C 
BRANCH   8  13
ATOM      9  C   UNL     1       6.526   4.511  15.942  0.00  0.00    +0.000 A 
ATOM     10  C   UNL     1       7.512   4.450  16.947  0.00  0.00    +0.000 A 
ATOM     11  C   UNL     1       7.507   5.373  17.994  0.00  0.00    +0.000 A 
ATOM     12  C   UNL     1       6.524   6.363  18.060  0.00  0.00    +0.000 A 
ATOM     13  C   UNL     1       5.531   6.442  17.077  0.00  0.00    +0.000 A 
ATOM     14  C   UNL     1       5.540   5.510  16.012  0.00  0.00    +0.000 A 
BRANCH   9  16
ATOM     15  C   UNL     1       6.015   3.903  13.635  0.00  0.00    +0.000 C 
ATOM     16  O   UNL     1       6.495   3.635  14.902  0.00  0.00    +0.000 OA
ENDBRANCH   9  16
ENDBRANCH   8  13
ENDBRANCH   7   8
ENDBRANCH   1   7
BRANCH   6  17
ATOM     17  O   UNL     1       2.479   6.115  20.272  0.00  0.00    +0.000 OA
BRANCH  17  18
ATOM     18  C   UNL     1       1.556   5.151  20.685  0.00  0.00    +0.000 C 
BRANCH  18  19
ATOM     19  C   UNL     1       2.155   3.898  21.344  0.00  0.00    +0.000 C 
BRANCH  19  20
ATOM     20  C   UNL     1       1.375   2.668  20.815  0.00  0.00    +0.000 C 
BRANCH  20  21
ATOM     21  C   UNL     1       1.444   2.447  19.293  0.00  0.00    +0.000 C 
BRANCH  21  22
ATOM     22  N   UNL     1       2.785   2.678  18.706  0.00  0.00    +0.000 NA
ATOM     23  C   UNL     1       3.554   1.428  18.551  0.00  0.00    +0.000 C 
ATOM     24  C   UNL     1       2.628   3.308  17.383  0.00  0.00    +0.000 C 
ENDBRANCH  21  22
ENDBRANCH  20  21
ENDBRANCH  19  20
ENDBRANCH  18  19
ENDBRANCH  17  18
ENDBRANCH   6  17
TORSDOF 10
ENDMDL
MODEL 7
REMARK VINA RESULT:      -6.5      2.036      4.467
REMARK  Name = 
REMARK  13 active torsions:
REMARK  status: ('A' for Active; 'I' for Inactive)
REMARK    1  A    between atoms: C_1  and  O_2
REMARK    2  A    between atoms: O_2  and  C_3
REMARK    3  A    between atoms: C_7  and  C_8
REMARK    4  A    between atoms: C_8  and  C_9
REMARK    5  A    between atoms: C_9  and  C_10
REMARK    6  A    between atoms: C_15  and  O_16
REMARK    7  A    between atoms: O_16  and  C_17
REMARK    8  A    between atoms: C_17  and  C_18
REMARK    9  A    between atoms: C_18  and  C_19
REMARK   10  A    between atoms: C_19  and  C_20
REMARK   11  A    between atoms: C_20  and  N_21
REMARK   12  A    between atoms: N_21  and  C_22
REMARK   13  A    between atoms: N_21  and  C_23
REMARK                            x       y       z     vdW  Elec       q    Type
REMARK                         _______ _______ _______ _____ _____    ______ ____
ROOT
ATOM      1  C   UNL     1       4.723   5.917  17.369  0.00  0.00    +0.000 A 
ATOM      2  C   UNL     1       5.901   6.699  17.326  0.00  0.00    +0.000 A 
ATOM      3  C   UNL     1       7.036   6.263  16.652  0.00  0.00    +0.000 A 
ATOM      4  C   UNL     1       7.032   5.033  16.013  0.00  0.00    +0.000 A 
ATOM      5  C   UNL     1       5.903   4.226  16.063  0.00  0.00    +0.000 A 
ATOM      6  C   UNL     1       4.723   4.632  16.742  0.00  0.00    +0.000 A 
ENDROOT
BRANCH   1   7
ATOM      7  C   UNL     1       3.537   6.493  18.123  0.00  0.00    +0.000 C 
BRANCH   7   8
ATOM      8  C   UNL     1       2.986   7.771  17.435  0.00  0.00    +0.000 C 
BRANCH   8  13
ATOM      9  C   UNL     1       1.062   8.965  20.537  0.00  0.00    +0.000 A 
ATOM     10  C   UNL     1       0.386  10.082  20.007  0.00  0.00    +0.000 A 
ATOM     11  C   UNL     1       0.557  10.437  18.668  0.00  0.00    +0.000 A 
ATOM     12  C   UNL     1       1.396   9.689  17.840  0.00  0.00    +0.000 A 
ATOM     13  C   UNL     1       2.074   8.573  18.340  0.00  0.00    +0.000 A 
ATOM     14  C   UNL     1       1.906   8.216  19.699  0.00  0.00    +0.000 A 
BRANCH   9  16
ATOM     15  C   UNL     1       0.316   9.321  22.833  0.00  0.00    +0.000 C 
ATOM     16  O   UNL     1       0.928   8.586  21.837  0.00  0.00    +0.000 OA
ENDBRANCH   9  16
ENDBRANCH   8  13
ENDBRANCH   7   8
ENDBRANCH   1   7
BRANCH   6  17
ATOM     17  O   UNL     1       3.634   3.793  16.812  0.00  0.00    +0.000 OA
BRANCH  17  18
ATOM     18  C   UNL     1       3.685   2.571  17.487  0.00  0.00    +0.000 C 
BRANCH  18  19
ATOM     19  C   UNL     1       2.365   2.110  18.126  0.00  0.00    +0.000 C 
BRANCH  19  20
ATOM     20  C   UNL     1       1.647   3.365  18.683  0.00  0.00    +0.000 C 
BRANCH  20  21
ATOM     21  C   UNL     1       0.791   3.133  19.941  0.00  0.00    +0.000 C 
BRANCH  21  22
ATOM     22  N   UNL     1       1.412   3.617  21.197  0.00  0.00    +0.000 NA
ATOM     23  C   UNL     1       2.335   2.627  21.787  0.00  0.00    +0.000 C 
ATOM     24  C   UNL     1       2.160   4.856  20.916  0.00  0.00    +0.000 C 
ENDBRANCH  21  22
ENDBRANCH  20  21
ENDBRANCH  19  20
ENDBRANCH  18  19
ENDBRANCH  17  18
ENDBRANCH   6  17
TORSDOF 10
ENDMDL
MODEL 8
REMARK VINA RESULT:      -6.5      2.900      5.362
REMARK  Name = 
REMARK  13 active torsions:
REMARK  status: ('A' for Active; 'I' for Inactive)
REMARK    1  A    between atoms: C_1  and  O_2
REMARK    2  A    between atoms: O_2  and  C_3
REMARK    3  A    between atoms: C_7  and  C_8
REMARK    4  A    between atoms: C_8  and  C_9
REMARK    5  A    between atoms: C_9  and  C_10
REMARK    6  A    between atoms: C_15  and  O_16
REMARK    7  A    between atoms: O_16  and  C_17
REMARK    8  A    between atoms: C_17  and  C_18
REMARK    9  A    between atoms: C_18  and  C_19
REMARK   10  A    between atoms: C_19  and  C_20
REMARK   11  A    between atoms: C_20  and  N_21
REMARK   12  A    between atoms: N_21  and  C_22
REMARK   13  A    between atoms: N_21  and  C_23
REMARK                            x       y       z     vdW  Elec       q    Type
REMARK                         _______ _______ _______ _____ _____    ______ ____
ROOT
ATOM      1  C   UNL     1       5.341   6.243  16.832  0.00  0.00    +0.000 A 
ATOM      2  C   UNL     1       4.917   5.795  15.559  0.00  0.00    +0.000 A 
ATOM      3  C   UNL     1       5.645   4.853  14.843  0.00  0.00    +0.000 A 
ATOM      4  C   UNL     1       6.820   4.339  15.369  0.00  0.00    +0.000 A 
ATOM      5  C   UNL     1       7.282   4.781  16.602  0.00  0.00    +0.000 A 
ATOM      6  C   UNL     1       6.570   5.744  17.366  0.00  0.00    +0.000 A 
ENDROOT
BRANCH   1   7
ATOM      7  C   UNL     1       4.464   7.266  17.534  0.00  0.00    +0.000 C 
BRANCH   7   8
ATOM      8  C   UNL     1       2.969   6.852  17.510  0.00  0.00    +0.000 C 
BRANCH   8  13
ATOM      9  C   UNL     1       2.379   3.413  19.114  0.00  0.00    +0.000 A 
ATOM     10  C   UNL     1       2.052   3.795  20.431  0.00  0.00    +0.000 A 
ATOM     11  C   UNL     1       2.028   5.145  20.785  0.00  0.00    +0.000 A 
ATOM     12  C   UNL     1       2.323   6.130  19.840  0.00  0.00    +0.000 A 
ATOM     13  C   UNL     1       2.644   5.777  18.526  0.00  0.00    +0.000 A 
ATOM     14  C   UNL     1       2.675   4.408  18.168  0.00  0.00    +0.000 A 
BRANCH   9  16
ATOM     15  C   UNL     1       3.562   1.365  18.515  0.00  0.00    +0.000 C 
ATOM     16  O   UNL     1       2.418   2.109  18.726  0.00  0.00    +0.000 OA
ENDBRANCH   9  16
ENDBRANCH   8  13
ENDBRANCH   7   8
ENDBRANCH   1   7
BRANCH   6  17
ATOM     17  O   UNL     1       7.074   6.195  18.565  0.00  0.00    +0.000 OA
BRANCH  17  18
ATOM     18  C   UNL     1       8.183   7.042  18.628  0.00  0.00    +0.000 C 
BRANCH  18  19
ATOM     19  C   UNL     1       8.053   8.364  17.855  0.00  0.00    +0.000 C 
BRANCH  19  20
ATOM     20  C   UNL     1       8.732   9.473  18.698  0.00  0.00    +0.000 C 
BRANCH  20  21
ATOM     21  C   UNL     1       8.822  10.854  18.024  0.00  0.00    +0.000 C 
BRANCH  21  22
ATOM     22  N   UNL     1       9.837  11.756  18.620  0.00  0.00    +0.000 NA
ATOM     23  C   UNL     1      10.437  11.195  19.847  0.00  0.00    +0.000 C 
ATOM     24  C   UNL     1      10.906  11.994  17.634  0.00  0.00    +0.000 C 
ENDBRANCH  21  22
ENDBRANCH  20  21
ENDBRANCH  19  20
ENDBRANCH  18  19
ENDBRANCH  17  18
ENDBRANCH   6  17
TORSDOF 10
ENDMDL
MODEL 9
REMARK VINA RESULT:      -6.4      2.127      6.381
REMARK  Name = 
REMARK  13 active torsions:
REMARK  status: ('A' for Active; 'I' for Inactive)
REMARK    1  A    between atoms: C_1  and  O_2
REMARK    2  A    between atoms: O_2  and  C_3
REMARK    3  A    between atoms: C_7  and  C_8
REMARK    4  A    between atoms: C_8  and  C_9
REMARK    5  A    between atoms: C_9  and  C_10
REMARK    6  A    between atoms: C_15  and  O_16
REMARK    7  A    between atoms: O_16  and  C_17
REMARK    8  A    between atoms: C_17  and  C_18
REMARK    9  A    between atoms: C_18  and  C_19
REMARK   10  A    between atoms: C_19  and  C_20
REMARK   11  A    between atoms: C_20  and  N_21
REMARK   12  A    between atoms: N_21  and  C_22
REMARK   13  A    between atoms: N_21  and  C_23
REMARK                            x       y       z     vdW  Elec       q    Type
REMARK                         _______ _______ _______ _____ _____    ______ ____
ROOT
ATOM      1  C   UNL     1       2.217   7.512  18.635  0.00  0.00    +0.000 A 
ATOM      2  C   UNL     1       1.628   8.747  18.278  0.00  0.00    +0.000 A 
ATOM      3  C   UNL     1       1.014   9.558  19.226  0.00  0.00    +0.000 A 
ATOM      4  C   UNL     1       0.961   9.157  20.551  0.00  0.00    +0.000 A 
ATOM      5  C   UNL     1       1.502   7.934  20.930  0.00  0.00    +0.000 A 
ATOM      6  C   UNL     1       2.136   7.074  19.995  0.00  0.00    +0.000 A 
ENDROOT
BRANCH   1   7
ATOM      7  C   UNL     1       2.871   6.709  17.524  0.00  0.00    +0.000 C 
BRANCH   7   8
ATOM      8  C   UNL     1       4.173   7.386  17.018  0.00  0.00    +0.000 C 
BRANCH   8  13
ATOM      9  C   UNL     1       7.186   5.063  17.546  0.00  0.00    +0.000 A 
ATOM     10  C   UNL     1       7.330   4.529  16.250  0.00  0.00    +0.000 A 
ATOM     11  C   UNL     1       6.462   4.918  15.229  0.00  0.00    +0.000 A 
ATOM     12  C   UNL     1       5.445   5.841  15.479  0.00  0.00    +0.000 A 
ATOM     13  C   UNL     1       5.284   6.390  16.755  0.00  0.00    +0.000 A 
ATOM     14  C   UNL     1       6.159   5.991  17.792  0.00  0.00    +0.000 A 
BRANCH   9  16
ATOM     15  C   UNL     1       8.161   5.402  19.757  0.00  0.00    +0.000 C 
ATOM     16  O   UNL     1       8.007   4.709  18.572  0.00  0.00    +0.000 OA
ENDBRANCH   9  16
ENDBRANCH   8  13
ENDBRANCH   7   8
ENDBRANCH   1   7
BRANCH   6  17
ATOM     17  O   UNL     1       2.624   5.850  20.391  0.00  0.00    +0.000 OA
BRANCH  17  18
ATOM     18  C   UNL     1       1.857   4.958  21.144  0.00  0.00    +0.000 C 
BRANCH  18  19
ATOM     19  C   UNL     1       0.778   4.188  20.365  0.00  0.00    +0.000 C 
BRANCH  19  20
ATOM     20  C   UNL     1       1.389   2.833  19.926  0.00  0.00    +0.000 C 
BRANCH  20  21
ATOM     21  C   UNL     1       2.088   2.837  18.555  0.00  0.00    +0.000 C 
BRANCH  21  22
ATOM     22  N   UNL     1       3.539   3.136  18.615  0.00  0.00    +0.000 NA
ATOM     23  C   UNL     1       4.237   2.337  19.640  0.00  0.00    +0.000 C 
ATOM     24  C   UNL     1       4.142   2.854  17.300  0.00  0.00    +0.000 C 
ENDBRANCH  21  22
ENDBRANCH  20  21
ENDBRANCH  19  20
ENDBRANCH  18  19
ENDBRANCH  17  18
ENDBRANCH   6  17
TORSDOF 10
ENDMDL
