MODEL 1
REMARK VINA RESULT:      -8.2      0.000      0.000
REMARK  Name = 
REMARK  10 active torsions:
REMARK  status: ('A' for Active; 'I' for Inactive)
REMARK    1  A    between atoms: C_1  and  C_2
REMARK    2  A    between atoms: C_2  and  O_3
REMARK    3  A    between atoms: O_3  and  C_4
REMARK    4  A    between atoms: C_4  and  C_6
REMARK    5  A    between atoms: C_6  and  C_7
REMARK    6  A    between atoms: C_7  and  N_8
REMARK    7  A    between atoms: C_9  and  C_11
REMARK    8  A    between atoms: N_16  and  C_17
REMARK    9  A    between atoms: C_17  and  C_18
REMARK   10  A    between atoms: C_18  and  C_19
REMARK                            x       y       z     vdW  Elec       q    Type
REMARK                         _______ _______ _______ _____ _____    ______ ____
ROOT
ATOM      1  N   UNL     1       4.634   5.768  17.806  0.00  0.00    +0.000 N 
ATOM      2  C   UNL     1       5.109   6.288  16.616  0.00  0.00    +0.000 C 
ATOM      3  O   UNL     1       4.429   6.991  15.875  0.00  0.00    +0.000 OA
ATOM      4  H   UNL     1       5.068   4.919  18.142  0.00  0.00    +0.000 HD
ENDROOT
BRANCH   2   5
ATOM      5  C   UNL     1       6.559   5.926  16.283  0.00  0.00    +0.000 C 
ATOM      6  C   UNL     1       6.967   4.581  16.862  0.00  0.00    +0.000 C 
ATOM      7  C   UNL     1       6.855   4.620  18.376  0.00  0.00    +0.000 C 
ATOM      8  C   UNL     1       7.577   5.786  19.028  0.00  0.00    +0.000 C 
ATOM      9  O   UNL     1       7.923   5.690  20.207  0.00  0.00    +0.000 OA
ATOM     10  N   UNL     1       7.753   6.949  18.279  0.00  0.00    +0.000 N 
ATOM     11  C   UNL     1       7.535   6.977  16.826  0.00  0.00    +0.000 C 
BRANCH  10  12
ATOM     12  C   UNL     1       8.598   8.005  18.876  0.00  0.00    +0.000 C 
BRANCH  12  13
ATOM     13  C   UNL     1       8.432   9.407  18.270  0.00  0.00    +0.000 C 
BRANCH  13  14
ATOM     14  C   UNL     1       9.386  10.439  18.835  0.00  0.00    +0.000 A 
ATOM     15  C   UNL     1      10.242  11.146  17.981  0.00  0.00    +0.000 A 
ATOM     16  C   UNL     1      11.107  12.125  18.483  0.00  0.00    +0.000 A 
ATOM     17  C   UNL     1      11.126  12.407  19.846  0.00  0.00    +0.000 A 
ATOM     18  C   UNL     1      10.276  11.709  20.705  0.00  0.00    +0.000 A 
ATOM     19  C   UNL     1       9.410  10.735  20.203  0.00  0.00    +0.000 A 
ENDBRANCH  13  14
ENDBRANCH  12  13
ENDBRANCH  10  12
ENDBRANCH   2   5
BRANCH   1  20
ATOM     20  C   UNL     1       3.279   6.075  18.349  0.00  0.00    +0.000 C 
ATOM     21  C   UNL     1       2.985   7.578  18.071  0.00  0.00    +0.000 C 
ATOM     22  C   UNL     1       1.739   8.119  18.766  0.00  0.00    +0.000 C 
ATOM     23  C   UNL     1       1.746   7.845  20.265  0.00  0.00    +0.000 C 
ATOM     24  C   UNL     1       2.003   6.375  20.570  0.00  0.00    +0.000 C 
ATOM     25  C   UNL     1       3.289   5.888  19.895  0.00  0.00    +0.000 C 
BRANCH  20  26
ATOM     26  C   UNL     1       2.191   5.183  17.697  0.00  0.00    +0.000 C 
BRANCH  26  27
ATOM     27  C   UNL     1       2.576   3.725  17.615  0.00  0.00    +0.000 C 
ATOM     28  O   UNL     1       3.539   3.266  17.014  0.00  0.00    +0.000 OA
BRANCH  27  29
ATOM     29  O   UNL     1       1.627   2.980  18.249  0.00  0.00    +0.000 OA
BRANCH  29  31
ATOM     30  C   UNL     1       1.047   2.891  20.563  0.00  0.00    +0.000 C 
ATOM     31  C   UNL     1       2.036   2.431  19.507  0.00  0.00    +0.000 C 
ENDBRANCH  29  31
ENDBRANCH  27  29
ENDBRANCH  26  27
ENDBRANCH  20  26
ENDBRANCH   1  20
TORSDOF 9
ENDMDL
MODEL 2
REMARK VINA RESULT:      -8.2      2.138      7.088
REMARK  Name = 
REMARK  10 active torsions:
REMARK  status: ('A' for Active; 'I' for Inactive)
REMARK    1  A    between atoms: C_1  and  C_2
REMARK    2  A    between atoms: C_2  and  O_3
REMARK    3  A    between atoms: O_3  and  C_4
REMARK    4  A    between atoms: C_4  and  C_6
REMARK    5  A    between atoms: C_6  and  C_7
REMARK    6  A    between atoms: C_7  and  N_8
REMARK    7  A    between atoms: C_9  and  C_11
REMARK    8  A    between atoms: N_16  and  C_17
REMARK    9  A    between atoms: C_17  and  C_18
REMARK   10  A    between atoms: C_18  and  C_19
REMARK                            x       y       z     vdW  Elec       q    Type
REMARK                         _______ _______ _______ _____ _____    ______ ____
ROOT
ATOM      1  N   UNL     1       5.532   4.069  18.240  0.00  0.00    +0.000 N 
ATOM      2  C   UNL     1       4.512   3.139  18.144  0.00  0.00    +0.000 C 
ATOM      3  O   UNL     1       3.971   2.849  17.082  0.00  0.00    +0.000 OA
ATOM      4  H   UNL     1       5.645   4.537  19.128  0.00  0.00    +0.000 HD
ENDROOT
BRANCH   2   5
ATOM      5  C   UNL     1       4.103   2.487  19.468  0.00  0.00    +0.000 C 
ATOM      6  C   UNL     1       3.252   1.244  19.263  0.00  0.00    +0.000 C 
ATOM      7  C   UNL     1       1.972   1.614  18.535  0.00  0.00    +0.000 C 
ATOM      8  C   UNL     1       1.200   2.759  19.167  0.00  0.00    +0.000 C 
ATOM      9  O   UNL     1      -0.010   2.856  18.950  0.00  0.00    +0.000 OA
ATOM     10  N   UNL     1       1.913   3.697  19.912  0.00  0.00    +0.000 N 
ATOM     11  C   UNL     1       3.298   3.458  20.341  0.00  0.00    +0.000 C 
BRANCH  10  12
ATOM     12  C   UNL     1       1.121   4.705  20.648  0.00  0.00    +0.000 C 
BRANCH  12  13
ATOM     13  C   UNL     1       1.890   5.961  21.087  0.00  0.00    +0.000 C 
BRANCH  13  14
ATOM     14  C   UNL     1       1.844   7.094  20.083  0.00  0.00    +0.000 A 
ATOM     15  C   UNL     1       1.214   8.301  20.415  0.00  0.00    +0.000 A 
ATOM     16  C   UNL     1       1.190   9.368  19.511  0.00  0.00    +0.000 A 
ATOM     17  C   UNL     1       1.794   9.241  18.263  0.00  0.00    +0.000 A 
ATOM     18  C   UNL     1       2.425   8.043  17.923  0.00  0.00    +0.000 A 
ATOM     19  C   UNL     1       2.453   6.979  18.828  0.00  0.00    +0.000 A 
ENDBRANCH  13  14
ENDBRANCH  12  13
ENDBRANCH  10  12
ENDBRANCH   2   5
BRANCH   1  20
ATOM     20  C   UNL     1       6.130   4.750  17.054  0.00  0.00    +0.000 C 
ATOM     21  C   UNL     1       5.136   5.851  16.587  0.00  0.00    +0.000 C 
ATOM     22  C   UNL     1       5.482   6.490  15.244  0.00  0.00    +0.000 C 
ATOM     23  C   UNL     1       5.686   5.454  14.146  0.00  0.00    +0.000 C 
ATOM     24  C   UNL     1       6.677   4.375  14.562  0.00  0.00    +0.000 C 
ATOM     25  C   UNL     1       6.263   3.727  15.887  0.00  0.00    +0.000 C 
BRANCH  20  26
ATOM     26  C   UNL     1       7.507   5.374  17.394  0.00  0.00    +0.000 C 
BRANCH  26  27
ATOM     27  C   UNL     1       7.597   5.907  18.805  0.00  0.00    +0.000 C 
ATOM     28  O   UNL     1       7.103   5.396  19.801  0.00  0.00    +0.000 OA
BRANCH  27  29
ATOM     29  O   UNL     1       8.249   7.104  18.785  0.00  0.00    +0.000 OA
BRANCH  29  31
ATOM     30  C   UNL     1       8.356   9.377  18.063  0.00  0.00    +0.000 C 
ATOM     31  C   UNL     1       7.860   7.982  17.723  0.00  0.00    +0.000 C 
ENDBRANCH  29  31
ENDBRANCH  27  29
ENDBRANCH  26  27
ENDBRANCH  20  26
ENDBRANCH   1  20
TORSDOF 9
ENDMDL
MODEL 3
REMARK VINA RESULT:      -7.9      3.248      6.982
REMARK  Name = 
REMARK  10 active torsions:
REMARK  status: ('A' for Active; 'I' for Inactive)
REMARK    1  A    between atoms: C_1  and  C_2
REMARK    2  A    between atoms: C_2  and  O_3
REMARK    3  A    between atoms: O_3  and  C_4
REMARK    4  A    between atoms: C_4  and  C_6
REMARK    5  A    between atoms: C_6  and  C_7
REMARK    6  A    between atoms: C_7  and  N_8
REMARK    7  A    between atoms: C_9  and  C_11
REMARK    8  A    between atoms: N_16  and  C_17
REMARK    9  A    between atoms: C_17  and  C_18
REMARK   10  A    between atoms: C_18  and  C_19
REMARK                            x       y       z     vdW  Elec       q    Type
REMARK                         _______ _______ _______ _____ _____    ______ ____
ROOT
ATOM      1  N   UNL     1       4.778   4.346  18.270  0.00  0.00    +0.000 N 
ATOM      2  C   UNL     1       5.963   4.743  18.864  0.00  0.00    +0.000 C 
ATOM      3  O   UNL     1       6.072   4.940  20.070  0.00  0.00    +0.000 OA
ATOM      4  H   UNL     1       4.649   4.586  17.297  0.00  0.00    +0.000 HD
ENDROOT
BRANCH   2   5
ATOM      5  C   UNL     1       7.142   4.920  17.903  0.00  0.00    +0.000 C 
ATOM      6  C   UNL     1       7.530   6.379  17.726  0.00  0.00    +0.000 C 
ATOM      7  C   UNL     1       6.361   7.153  17.143  0.00  0.00    +0.000 C 
ATOM      8  C   UNL     1       5.772   6.543  15.883  0.00  0.00    +0.000 C 
ATOM      9  O   UNL     1       5.149   7.268  15.104  0.00  0.00    +0.000 OA
ATOM     10  N   UNL     1       5.900   5.167  15.701  0.00  0.00    +0.000 N 
ATOM     11  C   UNL     1       6.818   4.358  16.514  0.00  0.00    +0.000 C 
BRANCH  10  12
ATOM     12  C   UNL     1       5.464   4.625  14.396  0.00  0.00    +0.000 C 
BRANCH  12  13
ATOM     13  C   UNL     1       6.534   4.615  13.293  0.00  0.00    +0.000 C 
BRANCH  13  14
ATOM     14  C   UNL     1       6.464   3.410  12.378  0.00  0.00    +0.000 A 
ATOM     15  C   UNL     1       5.224   2.840  12.060  0.00  0.00    +0.000 A 
ATOM     16  C   UNL     1       5.140   1.746  11.191  0.00  0.00    +0.000 A 
ATOM     17  C   UNL     1       6.294   1.208  10.631  0.00  0.00    +0.000 A 
ATOM     18  C   UNL     1       7.535   1.769  10.941  0.00  0.00    +0.000 A 
ATOM     19  C   UNL     1       7.618   2.864  11.804  0.00  0.00    +0.000 A 
ENDBRANCH  13  14
ENDBRANCH  12  13
ENDBRANCH  10  12
ENDBRANCH   2   5
BRANCH   1  20
ATOM     20  C   UNL     1       3.540   4.037  19.043  0.00  0.00    +0.000 C 
ATOM     21  C   UNL     1       3.765   2.684  19.779  0.00  0.00    +0.000 C 
ATOM     22  C   UNL     1       2.513   2.101  20.430  0.00  0.00    +0.000 C 
ATOM     23  C   UNL     1       1.350   1.991  19.453  0.00  0.00    +0.000 C 
ATOM     24  C   UNL     1       1.086   3.309  18.736  0.00  0.00    +0.000 C 
ATOM     25  C   UNL     1       2.354   3.830  18.055  0.00  0.00    +0.000 C 
BRANCH  20  26
ATOM     26  C   UNL     1       3.214   5.158  20.063  0.00  0.00    +0.000 C 
BRANCH  26  27
ATOM     27  C   UNL     1       2.710   6.429  19.421  0.00  0.00    +0.000 C 
ATOM     28  O   UNL     1       3.202   6.992  18.452  0.00  0.00    +0.000 OA
BRANCH  27  29
ATOM     29  O   UNL     1       1.660   6.906  20.148  0.00  0.00    +0.000 OA
BRANCH  29  31
ATOM     30  C   UNL     1       1.174   8.655  21.699  0.00  0.00    +0.000 C 
ATOM     31  C   UNL     1       1.622   8.331  20.285  0.00  0.00    +0.000 C 
ENDBRANCH  29  31
ENDBRANCH  27  29
ENDBRANCH  26  27
ENDBRANCH  20  26
ENDBRANCH   1  20
TORSDOF 9
ENDMDL
MODEL 4
REMARK VINA RESULT:      -7.9      1.644      3.182
REMARK  Name = 
REMARK  10 active torsions:
REMARK  status: ('A' for Active; 'I' for Inactive)
REMARK    1  A    between atoms: C_1  and  C_2
REMARK    2  A    between atoms: C_2  and  O_3
REMARK    3  A    between atoms: O_3  and  C_4
REMARK    4  A    between atoms: C_4  and  C_6
REMARK    5  A    between atoms: C_6  and  C_7
REMARK    6  A    between atoms: C_7  and  N_8
REMARK    7  A    between atoms: C_9  and  C_11
REMARK    8  A    between atoms: N_16  and  C_17
REMARK    9  A    between atoms: C_17  and  C_18
REMARK   10  A    between atoms: C_18  and  C_19
REMARK                            x       y       z     vdW  Elec       q    Type
REMARK                         _______ _______ _______ _____ _____    ______ ____
ROOT
ATOM      1  N   UNL     1       3.985   5.406  18.118  0.00  0.00    +0.000 N 
ATOM      2  C   UNL     1       4.488   4.486  17.216  0.00  0.00    +0.000 C 
ATOM      3  O   UNL     1       4.181   3.298  17.232  0.00  0.00    +0.000 OA
ATOM      4  H   UNL     1       4.550   6.223  18.305  0.00  0.00    +0.000 HD
ENDROOT
BRANCH   2   5
ATOM      5  C   UNL     1       5.464   5.058  16.183  0.00  0.00    +0.000 C 
ATOM      6  C   UNL     1       6.803   4.340  16.193  0.00  0.00    +0.000 C 
ATOM      7  C   UNL     1       7.457   4.494  17.555  0.00  0.00    +0.000 C 
ATOM      8  C   UNL     1       7.553   5.929  18.046  0.00  0.00    +0.000 C 
ATOM      9  O   UNL     1       8.413   6.219  18.880  0.00  0.00    +0.000 OA
ATOM     10  N   UNL     1       6.609   6.843  17.581  0.00  0.00    +0.000 N 
ATOM     11  C   UNL     1       5.735   6.545  16.437  0.00  0.00    +0.000 C 
BRANCH  10  12
ATOM     12  C   UNL     1       6.821   8.261  17.943  0.00  0.00    +0.000 C 
BRANCH  12  13
ATOM     13  C   UNL     1       8.127   8.887  17.430  0.00  0.00    +0.000 C 
BRANCH  13  14
ATOM     14  C   UNL     1       8.601  10.076  18.240  0.00  0.00    +0.000 A 
ATOM     15  C   UNL     1       9.156   9.882  19.512  0.00  0.00    +0.000 A 
ATOM     16  C   UNL     1       9.628  10.967  20.261  0.00  0.00    +0.000 A 
ATOM     17  C   UNL     1       9.548  12.257  19.747  0.00  0.00    +0.000 A 
ATOM     18  C   UNL     1       8.997  12.461  18.480  0.00  0.00    +0.000 A 
ATOM     19  C   UNL     1       8.531  11.378  17.731  0.00  0.00    +0.000 A 
ENDBRANCH  13  14
ENDBRANCH  12  13
ENDBRANCH  10  12
ENDBRANCH   2   5
BRANCH   1  20
ATOM     20  C   UNL     1       2.958   5.065  19.145  0.00  0.00    +0.000 C 
ATOM     21  C   UNL     1       3.579   4.012  20.107  0.00  0.00    +0.000 C 
ATOM     22  C   UNL     1       2.587   3.377  21.079  0.00  0.00    +0.000 C 
ATOM     23  C   UNL     1       1.369   2.800  20.369  0.00  0.00    +0.000 C 
ATOM     24  C   UNL     1       0.720   3.817  19.440  0.00  0.00    +0.000 C 
ATOM     25  C   UNL     1       1.739   4.388  18.449  0.00  0.00    +0.000 C 
BRANCH  20  26
ATOM     26  C   UNL     1       2.508   6.320  19.936  0.00  0.00    +0.000 C 
BRANCH  26  27
ATOM     27  C   UNL     1       2.203   7.510  19.057  0.00  0.00    +0.000 C 
ATOM     28  O   UNL     1       2.496   7.628  17.875  0.00  0.00    +0.000 OA
BRANCH  27  29
ATOM     29  O   UNL     1       1.618   8.481  19.815  0.00  0.00    +0.000 OA
BRANCH  29  31
ATOM     30  C   UNL     1      -0.120   8.663  21.441  0.00  0.00    +0.000 C 
ATOM     31  C   UNL     1       1.243   8.069  21.135  0.00  0.00    +0.000 C 
ENDBRANCH  29  31
ENDBRANCH  27  29
ENDBRANCH  26  27
ENDBRANCH  20  26
ENDBRANCH   1  20
TORSDOF 9
ENDMDL
MODEL 5
REMARK VINA RESULT:      -7.9      2.499      7.204
REMARK  Name = 
REMARK  10 active torsions:
REMARK  status: ('A' for Active; 'I' for Inactive)
REMARK    1  A    between atoms: C_1  and  C_2
REMARK    2  A    between atoms: C_2  and  O_3
REMARK    3  A    between atoms: O_3  and  C_4
REMARK    4  A    between atoms: C_4  and  C_6
REMARK    5  A    between atoms: C_6  and  C_7
REMARK    6  A    between atoms: C_7  and  N_8
REMARK    7  A    between atoms: C_9  and  C_11
REMARK    8  A    between atoms: N_16  and  C_17
REMARK    9  A    between atoms: C_17  and  C_18
REMARK   10  A    between atoms: C_18  and  C_19
REMARK                            x       y       z     vdW  Elec       q    Type
REMARK                         _______ _______ _______ _____ _____    ______ ____
ROOT
ATOM      1  N   UNL     1       5.614   3.890  16.703  0.00  0.00    +0.000 N 
ATOM      2  C   UNL     1       4.387   3.838  17.340  0.00  0.00    +0.000 C 
ATOM      3  O   UNL     1       3.375   4.359  16.883  0.00  0.00    +0.000 OA
ATOM      4  H   UNL     1       6.438   3.810  17.285  0.00  0.00    +0.000 HD
ENDROOT
BRANCH   2   5
ATOM      5  C   UNL     1       4.378   3.076  18.669  0.00  0.00    +0.000 C 
ATOM      6  C   UNL     1       3.792   1.681  18.532  0.00  0.00    +0.000 C 
ATOM      7  C   UNL     1       2.350   1.775  18.063  0.00  0.00    +0.000 C 
ATOM      8  C   UNL     1       1.480   2.702  18.895  0.00  0.00    +0.000 C 
ATOM      9  O   UNL     1       0.259   2.532  18.898  0.00  0.00    +0.000 OA
ATOM     10  N   UNL     1       2.100   3.755  19.566  0.00  0.00    +0.000 N 
ATOM     11  C   UNL     1       3.559   3.819  19.731  0.00  0.00    +0.000 C 
BRANCH  10  12
ATOM     12  C   UNL     1       1.260   4.540  20.495  0.00  0.00    +0.000 C 
BRANCH  12  13
ATOM     13  C   UNL     1       1.928   5.784  21.101  0.00  0.00    +0.000 C 
BRANCH  13  14
ATOM     14  C   UNL     1       1.708   7.053  20.303  0.00  0.00    +0.000 A 
ATOM     15  C   UNL     1       1.112   8.168  20.906  0.00  0.00    +0.000 A 
ATOM     16  C   UNL     1       0.931   9.358  20.192  0.00  0.00    +0.000 A 
ATOM     17  C   UNL     1       1.341   9.445  18.865  0.00  0.00    +0.000 A 
ATOM     18  C   UNL     1       1.937   8.340  18.255  0.00  0.00    +0.000 A 
ATOM     19  C   UNL     1       2.123   7.154  18.970  0.00  0.00    +0.000 A 
ENDBRANCH  13  14
ENDBRANCH  12  13
ENDBRANCH  10  12
ENDBRANCH   2   5
BRANCH   1  20
ATOM     20  C   UNL     1       5.812   4.510  15.361  0.00  0.00    +0.000 C 
ATOM     21  C   UNL     1       4.988   3.685  14.331  0.00  0.00    +0.000 C 
ATOM     22  C   UNL     1       5.261   4.039  12.871  0.00  0.00    +0.000 C 
ATOM     23  C   UNL     1       6.745   3.988  12.531  0.00  0.00    +0.000 C 
ATOM     24  C   UNL     1       7.578   4.810  13.505  0.00  0.00    +0.000 C 
ATOM     25  C   UNL     1       7.311   4.387  14.953  0.00  0.00    +0.000 C 
BRANCH  20  26
ATOM     26  C   UNL     1       5.362   5.993  15.349  0.00  0.00    +0.000 C 
BRANCH  26  27
ATOM     27  C   UNL     1       5.781   6.761  16.580  0.00  0.00    +0.000 C 
ATOM     28  O   UNL     1       5.032   7.315  17.374  0.00  0.00    +0.000 OA
BRANCH  27  29
ATOM     29  O   UNL     1       7.142   6.814  16.627  0.00  0.00    +0.000 OA
BRANCH  29  31
ATOM     30  C   UNL     1       8.002   8.747  17.733  0.00  0.00    +0.000 C 
ATOM     31  C   UNL     1       7.683   7.270  17.873  0.00  0.00    +0.000 C 
ENDBRANCH  29  31
ENDBRANCH  27  29
ENDBRANCH  26  27
ENDBRANCH  20  26
ENDBRANCH   1  20
TORSDOF 9
ENDMDL
MODEL 6
REMARK VINA RESULT:      -7.7      1.737      3.436
REMARK  Name = 
REMARK  10 active torsions:
REMARK  status: ('A' for Active; 'I' for Inactive)
REMARK    1  A    between atoms: C_1  and  C_2
REMARK    2  A    between atoms: C_2  and  O_3
REMARK    3  A    between atoms: O_3  and  C_4
REMARK    4  A    between atoms: C_4  and  C_6
REMARK    5  A    between atoms: C_6  and  C_7
REMARK    6  A    between atoms: C_7  and  N_8
REMARK    7  A    between atoms: C_9  and  C_11
REMARK    8  A    between atoms: N_16  and  C_17
REMARK    9  A    between atoms: C_17  and  C_18
REMARK   10  A    between atoms: C_18  and  C_19
REMARK                            x       y       z     vdW  Elec       q    Type
REMARK                         _______ _______ _______ _____ _____    ______ ____
ROOT
ATOM      1  N   UNL     1       3.887   5.289  18.287  0.00  0.00    +0.000 N 
ATOM      2  C   UNL     1       3.955   4.616  17.080  0.00  0.00    +0.000 C 
ATOM      3  O   UNL     1       3.382   3.549  16.877  0.00  0.00    +0.000 OA
ATOM      4  H   UNL     1       4.658   5.902  18.515  0.00  0.00    +0.000 HD
ENDROOT
BRANCH   2   5
ATOM      5  C   UNL     1       4.799   5.301  16.002  0.00  0.00    +0.000 C 
ATOM      6  C   UNL     1       5.750   4.337  15.311  0.00  0.00    +0.000 C 
ATOM      7  C   UNL     1       6.715   3.753  16.328  0.00  0.00    +0.000 C 
ATOM      8  C   UNL     1       7.436   4.788  17.174  0.00  0.00    +0.000 C 
ATOM      9  O   UNL     1       8.513   4.490  17.694  0.00  0.00    +0.000 OA
ATOM     10  N   UNL     1       6.808   6.015  17.384  0.00  0.00    +0.000 N 
ATOM     11  C   UNL     1       5.643   6.436  16.593  0.00  0.00    +0.000 C 
BRANCH  10  12
ATOM     12  C   UNL     1       7.598   7.059  18.070  0.00  0.00    +0.000 C 
BRANCH  12  13
ATOM     13  C   UNL     1       7.821   8.353  17.271  0.00  0.00    +0.000 C 
BRANCH  13  14
ATOM     14  C   UNL     1       8.427   9.481  18.080  0.00  0.00    +0.000 A 
ATOM     15  C   UNL     1       8.354  10.799  17.612  0.00  0.00    +0.000 A 
ATOM     16  C   UNL     1       8.881  11.856  18.363  0.00  0.00    +0.000 A 
ATOM     17  C   UNL     1       9.489  11.606  19.589  0.00  0.00    +0.000 A 
ATOM     18  C   UNL     1       9.567  10.296  20.065  0.00  0.00    +0.000 A 
ATOM     19  C   UNL     1       9.036   9.242  19.318  0.00  0.00    +0.000 A 
ENDBRANCH  13  14
ENDBRANCH  12  13
ENDBRANCH  10  12
ENDBRANCH   2   5
BRANCH   1  20
ATOM     20  C   UNL     1       3.048   4.830  19.432  0.00  0.00    +0.000 C 
ATOM     21  C   UNL     1       3.721   3.564  20.037  0.00  0.00    +0.000 C 
ATOM     22  C   UNL     1       2.871   2.827  21.070  0.00  0.00    +0.000 C 
ATOM     23  C   UNL     1       1.481   2.494  20.544  0.00  0.00    +0.000 C 
ATOM     24  C   UNL     1       0.783   3.720  19.971  0.00  0.00    +0.000 C 
ATOM     25  C   UNL     1       1.648   4.398  18.903  0.00  0.00    +0.000 C 
BRANCH  20  26
ATOM     26  C   UNL     1       2.908   5.934  20.510  0.00  0.00    +0.000 C 
BRANCH  26  27
ATOM     27  C   UNL     1       2.121   7.136  20.045  0.00  0.00    +0.000 C 
ATOM     28  O   UNL     1       1.077   7.548  20.533  0.00  0.00    +0.000 OA
BRANCH  27  29
ATOM     29  O   UNL     1       2.714   7.649  18.929  0.00  0.00    +0.000 OA
BRANCH  29  31
ATOM     30  C   UNL     1       1.956   9.672  17.913  0.00  0.00    +0.000 C 
ATOM     31  C   UNL     1       1.805   8.161  17.948  0.00  0.00    +0.000 C 
ENDBRANCH  29  31
ENDBRANCH  27  29
ENDBRANCH  26  27
ENDBRANCH  20  26
ENDBRANCH   1  20
TORSDOF 9
ENDMDL
MODEL 7
REMARK VINA RESULT:      -7.7      3.640      7.000
REMARK  Name = 
REMARK  10 active torsions:
REMARK  status: ('A' for Active; 'I' for Inactive)
REMARK    1  A    between atoms: C_1  and  C_2
REMARK    2  A    between atoms: C_2  and  O_3
REMARK    3  A    between atoms: O_3  and  C_4
REMARK    4  A    between atoms: C_4  and  C_6
REMARK    5  A    between atoms: C_6  and  C_7
REMARK    6  A    between atoms: C_7  and  N_8
REMARK    7  A    between atoms: C_9  and  C_11
REMARK    8  A    between atoms: N_16  and  C_17
REMARK    9  A    between atoms: C_17  and  C_18
REMARK   10  A    between atoms: C_18  and  C_19
REMARK                            x       y       z     vdW  Elec       q    Type
REMARK                         _______ _______ _______ _____ _____    ______ ____
ROOT
ATOM      1  N   UNL     1       4.805   3.611  18.747  0.00  0.00    +0.000 N 
ATOM      2  C   UNL     1       5.667   4.660  19.012  0.00  0.00    +0.000 C 
ATOM      3  O   UNL     1       5.479   5.467  19.917  0.00  0.00    +0.000 OA
ATOM      4  H   UNL     1       4.791   3.254  17.802  0.00  0.00    +0.000 HD
ENDROOT
BRANCH   2   5
ATOM      5  C   UNL     1       6.887   4.744  18.090  0.00  0.00    +0.000 C 
ATOM      6  C   UNL     1       7.362   6.174  17.888  0.00  0.00    +0.000 C 
ATOM      7  C   UNL     1       6.258   6.994  17.242  0.00  0.00    +0.000 C 
ATOM      8  C   UNL     1       5.680   6.381  15.978  0.00  0.00    +0.000 C 
ATOM      9  O   UNL     1       5.126   7.115  15.157  0.00  0.00    +0.000 OA
ATOM     10  N   UNL     1       5.737   4.995  15.838  0.00  0.00    +0.000 N 
ATOM     11  C   UNL     1       6.580   4.160  16.706  0.00  0.00    +0.000 C 
BRANCH  10  12
ATOM     12  C   UNL     1       5.317   4.440  14.534  0.00  0.00    +0.000 C 
BRANCH  12  13
ATOM     13  C   UNL     1       6.348   4.561  13.400  0.00  0.00    +0.000 C 
BRANCH  13  14
ATOM     14  C   UNL     1       6.343   3.393  12.435  0.00  0.00    +0.000 A 
ATOM     15  C   UNL     1       5.131   2.800  12.056  0.00  0.00    +0.000 A 
ATOM     16  C   UNL     1       5.107   1.742  11.141  0.00  0.00    +0.000 A 
ATOM     17  C   UNL     1       6.294   1.261  10.597  0.00  0.00    +0.000 A 
ATOM     18  C   UNL     1       7.507   1.845  10.968  0.00  0.00    +0.000 A 
ATOM     19  C   UNL     1       7.531   2.905  11.877  0.00  0.00    +0.000 A 
ENDBRANCH  13  14
ENDBRANCH  12  13
ENDBRANCH  10  12
ENDBRANCH   2   5
BRANCH   1  20
ATOM     20  C   UNL     1       3.607   3.307  19.584  0.00  0.00    +0.000 C 
ATOM     21  C   UNL     1       2.579   2.559  18.688  0.00  0.00    +0.000 C 
ATOM     22  C   UNL     1       1.200   2.379  19.320  0.00  0.00    +0.000 C 
ATOM     23  C   UNL     1       0.616   3.694  19.820  0.00  0.00    +0.000 C 
ATOM     24  C   UNL     1       1.590   4.438  20.725  0.00  0.00    +0.000 C 
ATOM     25  C   UNL     1       2.941   4.642  20.032  0.00  0.00    +0.000 C 
BRANCH  20  26
ATOM     26  C   UNL     1       3.980   2.442  20.815  0.00  0.00    +0.000 C 
BRANCH  26  27
ATOM     27  C   UNL     1       4.988   1.359  20.509  0.00  0.00    +0.000 C 
ATOM     28  O   UNL     1       5.042   0.694  19.483  0.00  0.00    +0.000 OA
BRANCH  27  29
ATOM     29  O   UNL     1       5.784   1.174  21.599  0.00  0.00    +0.000 OA
BRANCH  29  31
ATOM     30  C   UNL     1       7.080  -0.677  22.372  0.00  0.00    +0.000 C 
ATOM     31  C   UNL     1       5.677  -0.118  22.209  0.00  0.00    +0.000 C 
ENDBRANCH  29  31
ENDBRANCH  27  29
ENDBRANCH  26  27
ENDBRANCH  20  26
ENDBRANCH   1  20
TORSDOF 9
ENDMDL
MODEL 8
REMARK VINA RESULT:      -7.6      1.665      3.278
REMARK  Name = 
REMARK  10 active torsions:
REMARK  status: ('A' for Active; 'I' for Inactive)
REMARK    1  A    between atoms: C_1  and  C_2
REMARK    2  A    between atoms: C_2  and  O_3
REMARK    3  A    between atoms: O_3  and  C_4
REMARK    4  A    between atoms: C_4  and  C_6
REMARK    5  A    between atoms: C_6  and  C_7
REMARK    6  A    between atoms: C_7  and  N_8
REMARK    7  A    between atoms: C_9  and  C_11
REMARK    8  A    between atoms: N_16  and  C_17
REMARK    9  A    between atoms: C_17  and  C_18
REMARK   10  A    between atoms: C_18  and  C_19
REMARK                            x       y       z     vdW  Elec       q    Type
REMARK                         _______ _______ _______ _____ _____    ______ ____
ROOT
ATOM      1  N   UNL     1       4.027   5.605  17.594  0.00  0.00    +0.000 N 
ATOM      2  C   UNL     1       4.676   4.682  16.794  0.00  0.00    +0.000 C 
ATOM      3  O   UNL     1       4.364   3.496  16.756  0.00  0.00    +0.000 OA
ATOM      4  H   UNL     1       4.555   6.420  17.877  0.00  0.00    +0.000 HD
ENDROOT
BRANCH   2   5
ATOM      5  C   UNL     1       5.819   5.248  15.947  0.00  0.00    +0.000 C 
ATOM      6  C   UNL     1       7.114   4.475  16.132  0.00  0.00    +0.000 C 
ATOM      7  C   UNL     1       7.554   4.552  17.583  0.00  0.00    +0.000 C 
ATOM      8  C   UNL     1       7.626   5.963  18.142  0.00  0.00    +0.000 C 
ATOM      9  O   UNL     1       8.356   6.186  19.109  0.00  0.00    +0.000 OA
ATOM     10  N   UNL     1       6.799   6.933  17.577  0.00  0.00    +0.000 N 
ATOM     11  C   UNL     1       6.102   6.713  16.302  0.00  0.00    +0.000 C 
BRANCH  10  12
ATOM     12  C   UNL     1       7.004   8.327  18.026  0.00  0.00    +0.000 C 
BRANCH  12  13
ATOM     13  C   UNL     1       8.250   9.028  17.462  0.00  0.00    +0.000 C 
BRANCH  13  14
ATOM     14  C   UNL     1       8.743  10.183  18.308  0.00  0.00    +0.000 A 
ATOM     15  C   UNL     1       8.755  11.483  17.785  0.00  0.00    +0.000 A 
ATOM     16  C   UNL     1       9.178  12.565  18.564  0.00  0.00    +0.000 A 
ATOM     17  C   UNL     1       9.597  12.360  19.875  0.00  0.00    +0.000 A 
ATOM     18  C   UNL     1       9.589  11.069  20.407  0.00  0.00    +0.000 A 
ATOM     19  C   UNL     1       9.161   9.990  19.631  0.00  0.00    +0.000 A 
ENDBRANCH  13  14
ENDBRANCH  12  13
ENDBRANCH  10  12
ENDBRANCH   2   5
BRANCH   1  20
ATOM     20  C   UNL     1       2.835   5.270  18.426  0.00  0.00    +0.000 C 
ATOM     21  C   UNL     1       3.323   5.039  19.885  0.00  0.00    +0.000 C 
ATOM     22  C   UNL     1       2.267   4.458  20.823  0.00  0.00    +0.000 C 
ATOM     23  C   UNL     1       1.633   3.191  20.266  0.00  0.00    +0.000 C 
ATOM     24  C   UNL     1       1.118   3.392  18.847  0.00  0.00    +0.000 C 
ATOM     25  C   UNL     1       2.222   3.926  17.930  0.00  0.00    +0.000 C 
BRANCH  20  26
ATOM     26  C   UNL     1       1.777   6.402  18.383  0.00  0.00    +0.000 C 
BRANCH  26  27
ATOM     27  C   UNL     1       2.210   7.661  19.096  0.00  0.00    +0.000 C 
ATOM     28  O   UNL     1       2.042   7.913  20.282  0.00  0.00    +0.000 OA
BRANCH  27  29
ATOM     29  O   UNL     1       2.749   8.521  18.187  0.00  0.00    +0.000 OA
BRANCH  29  31
ATOM     30  C   UNL     1       2.200  10.845  18.210  0.00  0.00    +0.000 C 
ATOM     31  C   UNL     1       1.831   9.482  17.651  0.00  0.00    +0.000 C 
ENDBRANCH  29  31
ENDBRANCH  27  29
ENDBRANCH  26  27
ENDBRANCH  20  26
ENDBRANCH   1  20
TORSDOF 9
ENDMDL
MODEL 9
REMARK VINA RESULT:      -7.5      0.749      1.020
REMARK  Name = 
REMARK  10 active torsions:
REMARK  status: ('A' for Active; 'I' for Inactive)
REMARK    1  A    between atoms: C_1  and  C_2
REMARK    2  A    between atoms: C_2  and  O_3
REMARK    3  A    between atoms: O_3  and  C_4
REMARK    4  A    between atoms: C_4  and  C_6
REMARK    5  A    between atoms: C_6  and  C_7
REMARK    6  A    between atoms: C_7  and  N_8
REMARK    7  A    between atoms: C_9  and  C_11
REMARK    8  A    between atoms: N_16  and  C_17
REMARK    9  A    between atoms: C_17  and  C_18
REMARK   10  A    between atoms: C_18  and  C_19
REMARK                            x       y       z     vdW  Elec       q    Type
REMARK                         _______ _______ _______ _____ _____    ______ ____
ROOT
ATOM      1  N   UNL     1       4.225   5.623  17.874  0.00  0.00    +0.000 N 
ATOM      2  C   UNL     1       4.784   6.285  16.795  0.00  0.00    +0.000 C 
ATOM      3  O   UNL     1       4.220   7.204  16.210  0.00  0.00    +0.000 OA
ATOM      4  H   UNL     1       4.530   4.673  18.038  0.00  0.00    +0.000 HD
ENDROOT
BRANCH   2   5
ATOM      5  C   UNL     1       6.172   5.788  16.379  0.00  0.00    +0.000 C 
ATOM      6  C   UNL     1       6.514   4.442  16.995  0.00  0.00    +0.000 C 
ATOM      7  C   UNL     1       6.520   4.559  18.510  0.00  0.00    +0.000 C 
ATOM      8  C   UNL     1       7.379   5.690  19.048  0.00  0.00    +0.000 C 
ATOM      9  O   UNL     1       7.805   5.620  20.203  0.00  0.00    +0.000 OA
ATOM     10  N   UNL     1       7.590   6.799  18.229  0.00  0.00    +0.000 N 
ATOM     11  C   UNL     1       7.266   6.779  16.795  0.00  0.00    +0.000 C 
BRANCH  10  12
ATOM     12  C   UNL     1       8.558   7.807  18.709  0.00  0.00    +0.000 C 
BRANCH  12  13
ATOM     13  C   UNL     1       8.329   9.240  18.201  0.00  0.00    +0.000 C 
BRANCH  13  14
ATOM     14  C   UNL     1       9.282  10.261  18.788  0.00  0.00    +0.000 A 
ATOM     15  C   UNL     1      10.222  10.898  17.967  0.00  0.00    +0.000 A 
ATOM     16  C   UNL     1      11.087  11.867  18.487  0.00  0.00    +0.000 A 
ATOM     17  C   UNL     1      11.025  12.208  19.834  0.00  0.00    +0.000 A 
ATOM     18  C   UNL     1      10.092  11.579  20.661  0.00  0.00    +0.000 A 
ATOM     19  C   UNL     1       9.225  10.617  20.141  0.00  0.00    +0.000 A 
ENDBRANCH  13  14
ENDBRANCH  12  13
ENDBRANCH  10  12
ENDBRANCH   2   5
BRANCH   1  20
ATOM     20  C   UNL     1       2.921   6.013  18.484  0.00  0.00    +0.000 C 
ATOM     21  C   UNL     1       2.819   7.565  18.436  0.00  0.00    +0.000 C 
ATOM     22  C   UNL     1       1.652   8.149  19.230  0.00  0.00    +0.000 C 
ATOM     23  C   UNL     1       1.629   7.656  20.671  0.00  0.00    +0.000 C 
ATOM     24  C   UNL     1       1.699   6.137  20.752  0.00  0.00    +0.000 C 
ATOM     25  C   UNL     1       2.912   5.599  19.986  0.00  0.00    +0.000 C 
BRANCH  20  26
ATOM     26  C   UNL     1       1.728   5.369  17.733  0.00  0.00    +0.000 C 
BRANCH  26  27
ATOM     27  C   UNL     1       1.621   3.876  17.935  0.00  0.00    +0.000 C 
ATOM     28  O   UNL     1       0.997   3.312  18.824  0.00  0.00    +0.000 OA
BRANCH  27  29
ATOM     29  O   UNL     1       2.407   3.248  17.016  0.00  0.00    +0.000 OA
BRANCH  29  31
ATOM     30  C   UNL     1       2.992   1.614  18.656  0.00  0.00    +0.000 C 
ATOM     31  C   UNL     1       3.519   2.531  17.565  0.00  0.00    +0.000 C 
ENDBRANCH  29  31
ENDBRANCH  27  29
ENDBRANCH  26  27
ENDBRANCH  20  26
ENDBRANCH   1  20
TORSDOF 9
ENDMDL
