MODEL 1
REMARK VINA RESULT:      -6.1      0.000      0.000
REMARK  Name = 
REMARK  11 active torsions:
REMARK  status: ('A' for Active; 'I' for Inactive)
REMARK    1  A    between atoms: NZ_1  and  CE_2
REMARK    2  A    between atoms: CE_2  and  CD_3
REMARK    3  A    between atoms: CD_3  and  CG_4
REMARK    4  A    between atoms: CG_4  and  CB_5
REMARK    5  A    between atoms: CB_5  and  CA_6
REMARK    6  A    between atoms: CA_6  and  N_7
REMARK    7  A    between atoms: CA_6  and  C_23
REMARK    8  A    between atoms: C_8  and  CA_10
REMARK    9  A    between atoms: C_17  and  C_18
REMARK   10  A    between atoms: C_18  and  S_19
REMARK   11  A    between atoms: C_23  and  OXT_25
REMARK                            x       y       z     vdW  Elec       q    Type
REMARK                         _______ _______ _______ _____ _____    ______ ____
ROOT
ATOM      1  N   UNL     1       6.045   3.385  14.382  0.00  0.00    +0.000 N 
ATOM      2  C   UNL     1       5.749   4.230  15.423  0.00  0.00    +0.000 C 
ATOM      3  O   UNL     1       5.196   5.298  15.177  0.00  0.00    +0.000 OA
ATOM      4  H   UNL     1       5.878   2.402  14.577  0.00  0.00    +0.000 HD
ENDROOT
BRANCH   2   5
ATOM      5  CA  UNL     1       6.045   3.725  16.859  0.00  0.00    +0.000 C 
ATOM      6  C   UNL     1       7.082   4.635  17.580  0.00  0.00    +0.000 C 
ATOM      7  C   UNL     1       7.396   6.045  17.037  0.00  0.00    +0.000 C 
ATOM      8  C   UNL     1       6.527   7.282  17.381  0.00  0.00    +0.000 C 
ATOM      9  C   UNL     1       5.002   7.353  17.165  0.00  0.00    +0.000 C 
ATOM     10  C   UNL     1       4.183   6.588  18.207  0.00  0.00    +0.000 C 
ATOM     11  C   UNL     1       2.879   5.954  17.665  0.00  0.00    +0.000 C 
ATOM     12  C   UNL     1       2.620   4.479  18.102  0.00  0.00    +0.000 C 
ATOM     13  C   UNL     1       3.575   3.609  17.278  0.00  0.00    +0.000 C 
ATOM     14  O   UNL     1       3.255   3.084  16.216  0.00  0.00    +0.000 OA
ATOM     15  N   UNL     1       4.867   3.703  17.713  0.00  0.00    +0.000 N 
ATOM     16  H   UNL     1       5.019   3.583  18.707  0.00  0.00    +0.000 HD
BRANCH  12  17
ATOM     17  C   UNL     1       2.698   4.324  19.625  0.00  0.00    +0.000 C 
BRANCH  17  18
ATOM     18  S   UNL     1       2.129   2.703  20.218  0.00  0.00    +0.000 S 
ATOM     19  H   UNL     1       3.344   2.173  20.428  0.00  0.00    +0.000 HD
ENDBRANCH  17  18
ENDBRANCH  12  17
ENDBRANCH   2   5
BRANCH   1  20
ATOM     20  CA  UNL     1       5.676   3.905  13.060  0.00  0.00    +0.000 C 
BRANCH  20  21
ATOM     21  C   UNL     1       6.903   3.807  12.133  0.00  0.00    +0.000 C 
ATOM     22  O   UNL     1       7.540   4.770  11.723  0.00  0.00    +0.000 OA
BRANCH  21  23
ATOM     23  OXT UNL     1       7.189   2.541  11.738  0.00  0.00    +0.000 OA
ATOM     24  HXT UNL     1       6.558   2.227  11.054  0.00  0.00    +0.000 HD
ENDBRANCH  21  23
ENDBRANCH  20  21
BRANCH  20  25
ATOM     25  CB  UNL     1       4.495   3.177  12.423  0.00  0.00    +0.000 C 
BRANCH  25  26
ATOM     26  CG  UNL     1       4.412   3.510  10.935  0.00  0.00    +0.000 C 
BRANCH  26  27
ATOM     27  CD  UNL     1       2.976   3.672  10.454  0.00  0.00    +0.000 C 
BRANCH  27  28
ATOM     28  CE  UNL     1       2.963   4.477   9.157  0.00  0.00    +0.000 C 
BRANCH  28  29
ATOM     29  NZ  UNL     1       1.735   5.247   9.040  0.00  0.00    +0.000 NA
ATOM     30  HZ1 UNL     1       1.359   5.129   8.099  0.00  0.00    +0.000 HD
ATOM     31  HZ2 UNL     1       1.944   6.241   9.138  0.00  0.00    +0.000 HD
ENDBRANCH  28  29
ENDBRANCH  27  28
ENDBRANCH  26  27
ENDBRANCH  25  26
ENDBRANCH  20  25
ENDBRANCH   1  20
TORSDOF 11
ENDMDL
MODEL 2
REMARK VINA RESULT:      -6.0      2.033      2.306
REMARK  Name = 
REMARK  11 active torsions:
REMARK  status: ('A' for Active; 'I' for Inactive)
REMARK    1  A    between atoms: NZ_1  and  CE_2
REMARK    2  A    between atoms: CE_2  and  CD_3
REMARK    3  A    between atoms: CD_3  and  CG_4
REMARK    4  A    between atoms: CG_4  and  CB_5
REMARK    5  A    between atoms: CB_5  and  CA_6
REMARK    6  A    between atoms: CA_6  and  N_7
REMARK    7  A    between atoms: CA_6  and  C_23
REMARK    8  A    between atoms: C_8  and  CA_10
REMARK    9  A    between atoms: C_17  and  C_18
REMARK   10  A    between atoms: C_18  and  S_19
REMARK   11  A    between atoms: C_23  and  OXT_25
REMARK                            x       y       z     vdW  Elec       q    Type
REMARK                         _______ _______ _______ _____ _____    ______ ____
ROOT
ATOM      1  N   UNL     1       7.030   4.334  15.120  0.00  0.00    +0.000 N 
ATOM      2  C   UNL     1       6.044   4.538  16.052  0.00  0.00    +0.000 C 
ATOM      3  O   UNL     1       4.903   4.772  15.663  0.00  0.00    +0.000 OA
ATOM      4  H   UNL     1       7.680   3.588  15.350  0.00  0.00    +0.000 HD
ENDROOT
BRANCH   2   5
ATOM      5  CA  UNL     1       6.423   4.355  17.545  0.00  0.00    +0.000 C 
ATOM      6  C   UNL     1       6.940   5.685  18.168  0.00  0.00    +0.000 C 
ATOM      7  C   UNL     1       6.680   7.032  17.461  0.00  0.00    +0.000 C 
ATOM      8  C   UNL     1       5.356   7.821  17.634  0.00  0.00    +0.000 C 
ATOM      9  C   UNL     1       3.957   7.225  17.382  0.00  0.00    +0.000 C 
ATOM     10  C   UNL     1       3.458   6.301  18.496  0.00  0.00    +0.000 C 
ATOM     11  C   UNL     1       2.572   5.127  18.010  0.00  0.00    +0.000 C 
ATOM     12  C   UNL     1       2.916   3.734  18.621  0.00  0.00    +0.000 C 
ATOM     13  C   UNL     1       4.199   3.262  17.928  0.00  0.00    +0.000 C 
ATOM     14  O   UNL     1       4.197   2.543  16.933  0.00  0.00    +0.000 OA
ATOM     15  N   UNL     1       5.303   3.932  18.373  0.00  0.00    +0.000 N 
ATOM     16  H   UNL     1       5.423   3.991  19.377  0.00  0.00    +0.000 HD
BRANCH  12  17
ATOM     17  C   UNL     1       2.946   3.784  20.153  0.00  0.00    +0.000 C 
BRANCH  17  18
ATOM     18  S   UNL     1       1.430   3.151  20.929  0.00  0.00    +0.000 S 
ATOM     19  H   UNL     1       2.003   2.697  22.054  0.00  0.00    +0.000 HD
ENDBRANCH  17  18
ENDBRANCH  12  17
ENDBRANCH   2   5
BRANCH   1  20
ATOM     20  CA  UNL     1       6.580   4.459  13.728  0.00  0.00    +0.000 C 
BRANCH  20  21
ATOM     21  C   UNL     1       7.636   5.257  12.939  0.00  0.00    +0.000 C 
ATOM     22  O   UNL     1       7.687   5.318  11.717  0.00  0.00    +0.000 OA
BRANCH  21  23
ATOM     23  OXT UNL     1       8.573   5.847  13.724  0.00  0.00    +0.000 OA
ATOM     24  HXT UNL     1       8.653   6.806  13.528  0.00  0.00    +0.000 HD
ENDBRANCH  21  23
ENDBRANCH  20  21
BRANCH  20  25
ATOM     25  CB  UNL     1       6.333   3.119  13.042  0.00  0.00    +0.000 C 
BRANCH  25  26
ATOM     26  CG  UNL     1       5.144   3.227  12.090  0.00  0.00    +0.000 C 
BRANCH  26  27
ATOM     27  CD  UNL     1       5.073   2.062  11.111  0.00  0.00    +0.000 C 
BRANCH  27  28
ATOM     28  CE  UNL     1       6.391   1.291  11.144  0.00  0.00    +0.000 C 
BRANCH  28  29
ATOM     29  NZ  UNL     1       6.153  -0.129  11.351  0.00  0.00    +0.000 NA
ATOM     30  HZ1 UNL     1       6.413  -0.373  12.306  0.00  0.00    +0.000 HD
ATOM     31  HZ2 UNL     1       6.769  -0.670  10.744  0.00  0.00    +0.000 HD
ENDBRANCH  28  29
ENDBRANCH  27  28
ENDBRANCH  26  27
ENDBRANCH  25  26
ENDBRANCH  20  25
ENDBRANCH   1  20
TORSDOF 11
ENDMDL
MODEL 3
REMARK VINA RESULT:      -5.8      1.399      1.770
REMARK  Name = 
REMARK  11 active torsions:
REMARK  status: ('A' for Active; 'I' for Inactive)
REMARK    1  A    between atoms: NZ_1  and  CE_2
REMARK    2  A    between atoms: CE_2  and  CD_3
REMARK    3  A    between atoms: CD_3  and  CG_4
REMARK    4  A    between atoms: CG_4  and  CB_5
REMARK    5  A    between atoms: CB_5  and  CA_6
REMARK    6  A    between atoms: CA_6  and  N_7
REMARK    7  A    between atoms: CA_6  and  C_23
REMARK    8  A    between atoms: C_8  and  CA_10
REMARK    9  A    between atoms: C_17  and  C_18
REMARK   10  A    between atoms: C_18  and  S_19
REMARK   11  A    between atoms: C_23  and  OXT_25
REMARK                            x       y       z     vdW  Elec       q    Type
REMARK                         _______ _______ _______ _____ _____    ______ ____
ROOT
ATOM      1  N   UNL     1       7.498   4.562  14.616  0.00  0.00    +0.000 N 
ATOM      2  C   UNL     1       6.760   5.106  15.637  0.00  0.00    +0.000 C 
ATOM      3  O   UNL     1       5.790   5.805  15.356  0.00  0.00    +0.000 OA
ATOM      4  H   UNL     1       7.799   3.606  14.777  0.00  0.00    +0.000 HD
ENDROOT
BRANCH   2   5
ATOM      5  CA  UNL     1       7.146   4.713  17.087  0.00  0.00    +0.000 C 
ATOM      6  C   UNL     1       7.502   5.965  17.941  0.00  0.00    +0.000 C 
ATOM      7  C   UNL     1       7.094   7.376  17.467  0.00  0.00    +0.000 C 
ATOM      8  C   UNL     1       5.687   7.970  17.736  0.00  0.00    +0.000 C 
ATOM      9  C   UNL     1       4.367   7.273  17.348  0.00  0.00    +0.000 C 
ATOM     10  C   UNL     1       3.970   6.120  18.274  0.00  0.00    +0.000 C 
ATOM     11  C   UNL     1       3.228   4.956  17.572  0.00  0.00    +0.000 C 
ATOM     12  C   UNL     1       3.726   3.526  17.946  0.00  0.00    +0.000 C 
ATOM     13  C   UNL     1       5.060   3.327  17.218  0.00  0.00    +0.000 C 
ATOM     14  O   UNL     1       5.149   2.796  16.115  0.00  0.00    +0.000 OA
ATOM     15  N   UNL     1       6.077   4.030  17.800  0.00  0.00    +0.000 N 
ATOM     16  H   UNL     1       6.182   3.928  18.802  0.00  0.00    +0.000 HD
BRANCH  12  17
ATOM     17  C   UNL     1       3.740   3.315  19.464  0.00  0.00    +0.000 C 
BRANCH  17  18
ATOM     18  S   UNL     1       2.080   3.171  20.190  0.00  0.00    +0.000 S 
ATOM     19  H   UNL     1       1.612   2.246  19.338  0.00  0.00    +0.000 HD
ENDBRANCH  17  18
ENDBRANCH  12  17
ENDBRANCH   2   5
BRANCH   1  20
ATOM     20  CA  UNL     1       7.032   4.928  13.273  0.00  0.00    +0.000 C 
BRANCH  20  21
ATOM     21  C   UNL     1       8.093   5.828  12.611  0.00  0.00    +0.000 C 
ATOM     22  O   UNL     1       7.959   6.370  11.521  0.00  0.00    +0.000 OA
BRANCH  21  23
ATOM     23  OXT UNL     1       9.246   5.922  13.319  0.00  0.00    +0.000 OA
ATOM     24  HXT UNL     1       9.172   6.585  14.040  0.00  0.00    +0.000 HD
ENDBRANCH  21  23
ENDBRANCH  20  21
BRANCH  20  25
ATOM     25  CB  UNL     1       6.749   3.727  12.375  0.00  0.00    +0.000 C 
BRANCH  25  26
ATOM     26  CG  UNL     1       5.260   3.387  12.406  0.00  0.00    +0.000 C 
BRANCH  26  27
ATOM     27  CD  UNL     1       4.762   2.832  11.077  0.00  0.00    +0.000 C 
BRANCH  27  28
ATOM     28  CE  UNL     1       3.286   3.181  10.903  0.00  0.00    +0.000 C 
BRANCH  28  29
ATOM     29  NZ  UNL     1       3.099   4.087   9.781  0.00  0.00    +0.000 NA
ATOM     30  HZ1 UNL     1       2.143   4.442   9.798  0.00  0.00    +0.000 HD
ATOM     31  HZ2 UNL     1       3.193   3.571   8.906  0.00  0.00    +0.000 HD
ENDBRANCH  28  29
ENDBRANCH  27  28
ENDBRANCH  26  27
ENDBRANCH  25  26
ENDBRANCH  20  25
ENDBRANCH   1  20
TORSDOF 11
ENDMDL
MODEL 4
REMARK VINA RESULT:      -5.5      4.911      8.358
REMARK  Name = 
REMARK  11 active torsions:
REMARK  status: ('A' for Active; 'I' for Inactive)
REMARK    1  A    between atoms: NZ_1  and  CE_2
REMARK    2  A    between atoms: CE_2  and  CD_3
REMARK    3  A    between atoms: CD_3  and  CG_4
REMARK    4  A    between atoms: CG_4  and  CB_5
REMARK    5  A    between atoms: CB_5  and  CA_6
REMARK    6  A    between atoms: CA_6  and  N_7
REMARK    7  A    between atoms: CA_6  and  C_23
REMARK    8  A    between atoms: C_8  and  CA_10
REMARK    9  A    between atoms: C_17  and  C_18
REMARK   10  A    between atoms: C_18  and  S_19
REMARK   11  A    between atoms: C_23  and  OXT_25
REMARK                            x       y       z     vdW  Elec       q    Type
REMARK                         _______ _______ _______ _____ _____    ______ ____
ROOT
ATOM      1  N   UNL     1       2.153   7.299  20.762  0.00  0.00    +0.000 N 
ATOM      2  C   UNL     1       2.016   5.962  20.483  0.00  0.00    +0.000 C 
ATOM      3  O   UNL     1       0.947   5.559  20.035  0.00  0.00    +0.000 OA
ATOM      4  H   UNL     1       3.052   7.694  20.504  0.00  0.00    +0.000 HD
ENDROOT
BRANCH   2   5
ATOM      5  CA  UNL     1       3.268   5.064  20.660  0.00  0.00    +0.000 C 
ATOM      6  C   UNL     1       2.898   3.689  21.289  0.00  0.00    +0.000 C 
ATOM      7  C   UNL     1       1.433   3.207  21.309  0.00  0.00    +0.000 C 
ATOM      8  C   UNL     1       0.777   2.487  20.101  0.00  0.00    +0.000 C 
ATOM      9  C   UNL     1       0.750   3.056  18.668  0.00  0.00    +0.000 C 
ATOM     10  C   UNL     1       2.078   2.932  17.918  0.00  0.00    +0.000 C 
ATOM     11  C   UNL     1       2.372   4.090  16.933  0.00  0.00    +0.000 C 
ATOM     12  C   UNL     1       3.817   4.674  17.000  0.00  0.00    +0.000 C 
ATOM     13  C   UNL     1       3.880   5.527  18.272  0.00  0.00    +0.000 C 
ATOM     14  O   UNL     1       3.663   6.735  18.280  0.00  0.00    +0.000 OA
ATOM     15  N   UNL     1       3.940   4.764  19.404  0.00  0.00    +0.000 N 
ATOM     16  H   UNL     1       4.634   4.026  19.416  0.00  0.00    +0.000 HD
BRANCH  12  17
ATOM     17  C   UNL     1       4.875   3.572  16.864  0.00  0.00    +0.000 C 
BRANCH  17  18
ATOM     18  S   UNL     1       6.104   3.905  15.567  0.00  0.00    +0.000 S 
ATOM     19  H   UNL     1       5.776   2.877  14.769  0.00  0.00    +0.000 HD
ENDBRANCH  17  18
ENDBRANCH  12  17
ENDBRANCH   2   5
BRANCH   1  20
ATOM     20  CA  UNL     1       0.946   8.095  20.508  0.00  0.00    +0.000 C 
BRANCH  20  21
ATOM     21  C   UNL     1       0.490   8.736  21.833  0.00  0.00    +0.000 C 
ATOM     22  O   UNL     1       1.191   9.458  22.531  0.00  0.00    +0.000 OA
BRANCH  21  23
ATOM     23  OXT UNL     1      -0.761   8.372  22.213  0.00  0.00    +0.000 OA
ATOM     24  HXT UNL     1      -0.991   8.742  23.094  0.00  0.00    +0.000 HD
ENDBRANCH  21  23
ENDBRANCH  20  21
BRANCH  20  25
ATOM     25  CB  UNL     1       1.139   9.182  19.455  0.00  0.00    +0.000 C 
BRANCH  25  26
ATOM     26  CG  UNL     1      -0.078  10.103  19.420  0.00  0.00    +0.000 C 
BRANCH  26  27
ATOM     27  CD  UNL     1      -0.766  10.108  18.061  0.00  0.00    +0.000 C 
BRANCH  27  28
ATOM     28  CE  UNL     1      -1.841  11.192  18.041  0.00  0.00    +0.000 C 
BRANCH  28  29
ATOM     29  NZ  UNL     1      -1.303  12.442  17.526  0.00  0.00    +0.000 NA
ATOM     30  HZ1 UNL     1      -0.492  12.708  18.085  0.00  0.00    +0.000 HD
ATOM     31  HZ2 UNL     1      -1.988  13.187  17.651  0.00  0.00    +0.000 HD
ENDBRANCH  28  29
ENDBRANCH  27  28
ENDBRANCH  26  27
ENDBRANCH  25  26
ENDBRANCH  20  25
ENDBRANCH   1  20
TORSDOF 11
ENDMDL
MODEL 5
REMARK VINA RESULT:      -5.4      2.021      2.264
REMARK  Name = 
REMARK  11 active torsions:
REMARK  status: ('A' for Active; 'I' for Inactive)
REMARK    1  A    between atoms: NZ_1  and  CE_2
REMARK    2  A    between atoms: CE_2  and  CD_3
REMARK    3  A    between atoms: CD_3  and  CG_4
REMARK    4  A    between atoms: CG_4  and  CB_5
REMARK    5  A    between atoms: CB_5  and  CA_6
REMARK    6  A    between atoms: CA_6  and  N_7
REMARK    7  A    between atoms: CA_6  and  C_23
REMARK    8  A    between atoms: C_8  and  CA_10
REMARK    9  A    between atoms: C_17  and  C_18
REMARK   10  A    between atoms: C_18  and  S_19
REMARK   11  A    between atoms: C_23  and  OXT_25
REMARK                            x       y       z     vdW  Elec       q    Type
REMARK                         _______ _______ _______ _____ _____    ______ ____
ROOT
ATOM      1  N   UNL     1       6.395   3.610  15.243  0.00  0.00    +0.000 N 
ATOM      2  C   UNL     1       5.481   4.194  16.085  0.00  0.00    +0.000 C 
ATOM      3  O   UNL     1       4.652   4.967  15.611  0.00  0.00    +0.000 OA
ATOM      4  H   UNL     1       6.583   2.632  15.440  0.00  0.00    +0.000 HD
ENDROOT
BRANCH   2   5
ATOM      5  CA  UNL     1       5.496   3.755  17.572  0.00  0.00    +0.000 C 
ATOM      6  C   UNL     1       6.388   4.695  18.435  0.00  0.00    +0.000 C 
ATOM      7  C   UNL     1       6.813   6.078  17.898  0.00  0.00    +0.000 C 
ATOM      8  C   UNL     1       5.908   7.331  18.017  0.00  0.00    +0.000 C 
ATOM      9  C   UNL     1       4.452   7.395  17.514  0.00  0.00    +0.000 C 
ATOM     10  C   UNL     1       3.443   6.680  18.416  0.00  0.00    +0.000 C 
ATOM     11  C   UNL     1       2.258   6.025  17.666  0.00  0.00    +0.000 C 
ATOM     12  C   UNL     1       1.906   4.572  18.111  0.00  0.00    +0.000 C 
ATOM     13  C   UNL     1       2.990   3.663  17.521  0.00  0.00    +0.000 C 
ATOM     14  O   UNL     1       2.870   3.091  16.442  0.00  0.00    +0.000 OA
ATOM     15  N   UNL     1       4.178   3.774  18.188  0.00  0.00    +0.000 N 
ATOM     16  H   UNL     1       4.138   3.699  19.198  0.00  0.00    +0.000 HD
BRANCH  12  17
ATOM     17  C   UNL     1       1.694   4.485  19.627  0.00  0.00    +0.000 C 
BRANCH  17  18
ATOM     18  S   UNL     1       1.228   2.824  20.200  0.00  0.00    +0.000 S 
ATOM     19  H   UNL     1       0.184   3.202  20.954  0.00  0.00    +0.000 HD
ENDBRANCH  17  18
ENDBRANCH  12  17
ENDBRANCH   2   5
BRANCH   1  20
ATOM     20  CA  UNL     1       6.276   4.027  13.841  0.00  0.00    +0.000 C 
BRANCH  20  21
ATOM     21  C   UNL     1       7.414   5.015  13.522  0.00  0.00    +0.000 C 
ATOM     22  O   UNL     1       8.032   5.655  14.364  0.00  0.00    +0.000 OA
BRANCH  21  23
ATOM     23  OXT UNL     1       7.640   5.176  12.194  0.00  0.00    +0.000 OA
ATOM     24  HXT UNL     1       7.135   5.938  11.833  0.00  0.00    +0.000 HD
ENDBRANCH  21  23
ENDBRANCH  20  21
BRANCH  20  25
ATOM     25  CB  UNL     1       6.315   2.866  12.852  0.00  0.00    +0.000 C 
BRANCH  25  26
ATOM     26  CG  UNL     1       5.144   2.966  11.876  0.00  0.00    +0.000 C 
BRANCH  26  27
ATOM     27  CD  UNL     1       5.041   1.751  10.963  0.00  0.00    +0.000 C 
BRANCH  27  28
ATOM     28  CE  UNL     1       6.360   0.982  10.992  0.00  0.00    +0.000 C 
BRANCH  28  29
ATOM     29  NZ  UNL     1       6.128  -0.428  11.267  0.00  0.00    +0.000 NA
ATOM     30  HZ1 UNL     1       5.595  -0.514  12.132  0.00  0.00    +0.000 HD
ATOM     31  HZ2 UNL     1       7.020  -0.894  11.437  0.00  0.00    +0.000 HD
ENDBRANCH  28  29
ENDBRANCH  27  28
ENDBRANCH  26  27
ENDBRANCH  25  26
ENDBRANCH  20  25
ENDBRANCH   1  20
TORSDOF 11
ENDMDL
MODEL 6
REMARK VINA RESULT:      -5.4     10.010     12.436
REMARK  Name = 
REMARK  11 active torsions:
REMARK  status: ('A' for Active; 'I' for Inactive)
REMARK    1  A    between atoms: NZ_1  and  CE_2
REMARK    2  A    between atoms: CE_2  and  CD_3
REMARK    3  A    between atoms: CD_3  and  CG_4
REMARK    4  A    between atoms: CG_4  and  CB_5
REMARK    5  A    between atoms: CB_5  and  CA_6
REMARK    6  A    between atoms: CA_6  and  N_7
REMARK    7  A    between atoms: CA_6  and  C_23
REMARK    8  A    between atoms: C_8  and  CA_10
REMARK    9  A    between atoms: C_17  and  C_18
REMARK   10  A    between atoms: C_18  and  S_19
REMARK   11  A    between atoms: C_23  and  OXT_25
REMARK                            x       y       z     vdW  Elec       q    Type
REMARK                         _______ _______ _______ _____ _____    ______ ____
ROOT
ATOM      1  N   UNL     1      -3.990  13.129  19.901  0.00  0.00    +0.000 N 
ATOM      2  C   UNL     1      -2.687  12.755  20.113  0.00  0.00    +0.000 C 
ATOM      3  O   UNL     1      -2.330  11.634  19.761  0.00  0.00    +0.000 OA
ATOM      4  H   UNL     1      -4.107  14.088  19.586  0.00  0.00    +0.000 HD
ENDROOT
BRANCH   2   5
ATOM      5  CA  UNL     1      -1.723  13.821  20.698  0.00  0.00    +0.000 C 
ATOM      6  C   UNL     1      -1.532  13.637  22.231  0.00  0.00    +0.000 C 
ATOM      7  C   UNL     1      -1.936  12.314  22.916  0.00  0.00    +0.000 C 
ATOM      8  C   UNL     1      -0.998  11.079  22.959  0.00  0.00    +0.000 C 
ATOM      9  C   UNL     1      -0.360  10.436  21.712  0.00  0.00    +0.000 C 
ATOM     10  C   UNL     1       0.827  11.216  21.140  0.00  0.00    +0.000 C 
ATOM     11  C   UNL     1       0.968  11.138  19.601  0.00  0.00    +0.000 C 
ATOM     12  C   UNL     1       1.244  12.496  18.885  0.00  0.00    +0.000 C 
ATOM     13  C   UNL     1      -0.082  13.263  18.884  0.00  0.00    +0.000 C 
ATOM     14  O   UNL     1      -0.879  13.223  17.951  0.00  0.00    +0.000 OA
ATOM     15  N   UNL     1      -0.390  13.767  20.117  0.00  0.00    +0.000 N 
ATOM     16  H   UNL     1       0.341  14.288  20.587  0.00  0.00    +0.000 HD
BRANCH  12  17
ATOM     17  C   UNL     1       2.450  13.219  19.498  0.00  0.00    +0.000 C 
BRANCH  17  18
ATOM     18  S   UNL     1       3.121  14.535  18.439  0.00  0.00    +0.000 S 
ATOM     19  H   UNL     1       2.296  14.339  17.399  0.00  0.00    +0.000 HD
ENDBRANCH  17  18
ENDBRANCH  12  17
ENDBRANCH   2   5
BRANCH   1  20
ATOM     20  CA  UNL     1      -4.824  12.089  19.285  0.00  0.00    +0.000 C 
BRANCH  20  21
ATOM     21  C   UNL     1      -6.033  11.821  20.202  0.00  0.00    +0.000 C 
ATOM     22  O   UNL     1      -6.023  11.959  21.419  0.00  0.00    +0.000 OA
BRANCH  21  23
ATOM     23  OXT UNL     1      -7.119  11.342  19.546  0.00  0.00    +0.000 OA
ATOM     24  HXT UNL     1      -7.954  11.643  19.966  0.00  0.00    +0.000 HD
ENDBRANCH  21  23
ENDBRANCH  20  21
BRANCH  20  25
ATOM     25  CB  UNL     1      -5.313  12.446  17.885  0.00  0.00    +0.000 C 
BRANCH  25  26
ATOM     26  CG  UNL     1      -4.543  11.644  16.838  0.00  0.00    +0.000 C 
BRANCH  26  27
ATOM     27  CD  UNL     1      -4.256  10.219  17.293  0.00  0.00    +0.000 C 
BRANCH  27  28
ATOM     28  CE  UNL     1      -2.821   9.848  16.922  0.00  0.00    +0.000 C 
BRANCH  28  29
ATOM     29  NZ  UNL     1      -2.043  11.040  16.621  0.00  0.00    +0.000 NA
ATOM     30  HZ1 UNL     1      -1.434  11.246  17.414  0.00  0.00    +0.000 HD
ATOM     31  HZ2 UNL     1      -2.666  11.841  16.528  0.00  0.00    +0.000 HD
ENDBRANCH  28  29
ENDBRANCH  27  28
ENDBRANCH  26  27
ENDBRANCH  25  26
ENDBRANCH  20  25
ENDBRANCH   1  20
TORSDOF 11
ENDMDL
MODEL 7
REMARK VINA RESULT:      -5.4      4.688      6.876
REMARK  Name = 
REMARK  11 active torsions:
REMARK  status: ('A' for Active; 'I' for Inactive)
REMARK    1  A    between atoms: NZ_1  and  CE_2
REMARK    2  A    between atoms: CE_2  and  CD_3
REMARK    3  A    between atoms: CD_3  and  CG_4
REMARK    4  A    between atoms: CG_4  and  CB_5
REMARK    5  A    between atoms: CB_5  and  CA_6
REMARK    6  A    between atoms: CA_6  and  N_7
REMARK    7  A    between atoms: CA_6  and  C_23
REMARK    8  A    between atoms: C_8  and  CA_10
REMARK    9  A    between atoms: C_17  and  C_18
REMARK   10  A    between atoms: C_18  and  S_19
REMARK   11  A    between atoms: C_23  and  OXT_25
REMARK                            x       y       z     vdW  Elec       q    Type
REMARK                         _______ _______ _______ _____ _____    ______ ____
ROOT
ATOM      1  N   UNL     1       5.105   6.085  17.153  0.00  0.00    +0.000 N 
ATOM      2  C   UNL     1       4.039   5.925  18.003  0.00  0.00    +0.000 C 
ATOM      3  O   UNL     1       4.252   5.858  19.211  0.00  0.00    +0.000 OA
ATOM      4  H   UNL     1       4.938   6.728  16.386  0.00  0.00    +0.000 HD
ENDROOT
BRANCH   2   5
ATOM      5  CA  UNL     1       2.618   5.942  17.380  0.00  0.00    +0.000 C 
ATOM      6  C   UNL     1       1.785   4.706  17.828  0.00  0.00    +0.000 C 
ATOM      7  C   UNL     1       2.226   3.865  19.045  0.00  0.00    +0.000 C 
ATOM      8  C   UNL     1       1.864   4.256  20.502  0.00  0.00    +0.000 C 
ATOM      9  C   UNL     1       2.168   5.632  21.127  0.00  0.00    +0.000 C 
ATOM     10  C   UNL     1       1.222   6.749  20.678  0.00  0.00    +0.000 C 
ATOM     11  C   UNL     1       1.879   8.148  20.578  0.00  0.00    +0.000 C 
ATOM     12  C   UNL     1       1.544   8.952  19.284  0.00  0.00    +0.000 C 
ATOM     13  C   UNL     1       2.357   8.313  18.154  0.00  0.00    +0.000 C 
ATOM     14  O   UNL     1       3.466   8.718  17.815  0.00  0.00    +0.000 OA
ATOM     15  N   UNL     1       1.840   7.111  17.759  0.00  0.00    +0.000 N 
ATOM     16  H   UNL     1       0.847   7.090  17.561  0.00  0.00    +0.000 HD
BRANCH  12  17
ATOM     17  C   UNL     1       0.030   9.053  19.062  0.00  0.00    +0.000 C 
BRANCH  17  18
ATOM     18  S   UNL     1      -0.650  10.696  19.441  0.00  0.00    +0.000 S 
ATOM     19  H   UNL     1      -0.999  11.018  18.186  0.00  0.00    +0.000 HD
ENDBRANCH  17  18
ENDBRANCH  12  17
ENDBRANCH   2   5
BRANCH   1  20
ATOM     20  CA  UNL     1       6.410   6.125  17.824  0.00  0.00    +0.000 C 
BRANCH  20  21
ATOM     21  C   UNL     1       7.038   4.719  17.763  0.00  0.00    +0.000 C 
ATOM     22  O   UNL     1       7.934   4.393  16.995  0.00  0.00    +0.000 OA
BRANCH  21  23
ATOM     23  OXT UNL     1       6.456   3.825  18.603  0.00  0.00    +0.000 OA
ATOM     24  HXT UNL     1       7.089   3.511  19.285  0.00  0.00    +0.000 HD
ENDBRANCH  21  23
ENDBRANCH  20  21
BRANCH  20  25
ATOM     25  CB  UNL     1       7.376   7.142  17.223  0.00  0.00    +0.000 C 
BRANCH  25  26
ATOM     26  CG  UNL     1       8.156   7.845  18.332  0.00  0.00    +0.000 C 
BRANCH  26  27
ATOM     27  CD  UNL     1       8.354   9.329  18.054  0.00  0.00    +0.000 C 
BRANCH  27  28
ATOM     28  CE  UNL     1       9.154   9.956  19.194  0.00  0.00    +0.000 C 
BRANCH  28  29
ATOM     29  NZ  UNL     1       9.688  11.250  18.798  0.00  0.00    +0.000 NA
ATOM     30  HZ1 UNL     1       9.000  11.972  19.013  0.00  0.00    +0.000 HD
ATOM     31  HZ2 UNL     1       9.816  11.273  17.787  0.00  0.00    +0.000 HD
ENDBRANCH  28  29
ENDBRANCH  27  28
ENDBRANCH  26  27
ENDBRANCH  25  26
ENDBRANCH  20  25
ENDBRANCH   1  20
TORSDOF 11
ENDMDL
MODEL 8
REMARK VINA RESULT:      -5.4      1.917      2.412
REMARK  Name = 
REMARK  11 active torsions:
REMARK  status: ('A' for Active; 'I' for Inactive)
REMARK    1  A    between atoms: NZ_1  and  CE_2
REMARK    2  A    between atoms: CE_2  and  CD_3
REMARK    3  A    between atoms: CD_3  and  CG_4
REMARK    4  A    between atoms: CG_4  and  CB_5
REMARK    5  A    between atoms: CB_5  and  CA_6
REMARK    6  A    between atoms: CA_6  and  N_7
REMARK    7  A    between atoms: CA_6  and  C_23
REMARK    8  A    between atoms: C_8  and  CA_10
REMARK    9  A    between atoms: C_17  and  C_18
REMARK   10  A    between atoms: C_18  and  S_19
REMARK   11  A    between atoms: C_23  and  OXT_25
REMARK                            x       y       z     vdW  Elec       q    Type
REMARK                         _______ _______ _______ _____ _____    ______ ____
ROOT
ATOM      1  N   UNL     1       6.377   3.686  14.476  0.00  0.00    +0.000 N 
ATOM      2  C   UNL     1       5.882   4.386  15.548  0.00  0.00    +0.000 C 
ATOM      3  O   UNL     1       5.176   5.368  15.336  0.00  0.00    +0.000 OA
ATOM      4  H   UNL     1       6.362   2.677  14.589  0.00  0.00    +0.000 HD
ENDROOT
BRANCH   2   5
ATOM      5  CA  UNL     1       6.169   3.822  16.964  0.00  0.00    +0.000 C 
ATOM      6  C   UNL     1       7.135   4.746  17.761  0.00  0.00    +0.000 C 
ATOM      7  C   UNL     1       7.384   6.198  17.301  0.00  0.00    +0.000 C 
ATOM      8  C   UNL     1       6.439   7.367  17.684  0.00  0.00    +0.000 C 
ATOM      9  C   UNL     1       4.919   7.366  17.428  0.00  0.00    +0.000 C 
ATOM     10  C   UNL     1       4.117   6.503  18.406  0.00  0.00    +0.000 C 
ATOM     11  C   UNL     1       2.864   5.830  17.794  0.00  0.00    +0.000 C 
ATOM     12  C   UNL     1       2.676   4.322  18.146  0.00  0.00    +0.000 C 
ATOM     13  C   UNL     1       3.699   3.550  17.305  0.00  0.00    +0.000 C 
ATOM     14  O   UNL     1       3.435   3.066  16.208  0.00  0.00    +0.000 OA
ATOM     15  N   UNL     1       4.972   3.690  17.782  0.00  0.00    +0.000 N 
ATOM     16  H   UNL     1       5.105   3.526  18.772  0.00  0.00    +0.000 HD
BRANCH  12  17
ATOM     17  C   UNL     1       2.724   4.090  19.661  0.00  0.00    +0.000 C 
BRANCH  17  18
ATOM     18  S   UNL     1       2.048   2.480  20.168  0.00  0.00    +0.000 S 
ATOM     19  H   UNL     1       2.266   2.623  21.484  0.00  0.00    +0.000 HD
ENDBRANCH  17  18
ENDBRANCH  12  17
ENDBRANCH   2   5
BRANCH   1  20
ATOM     20  CA  UNL     1       6.009   4.244  13.169  0.00  0.00    +0.000 C 
BRANCH  20  21
ATOM     21  C   UNL     1       7.256   4.897  12.544  0.00  0.00    +0.000 C 
ATOM     22  O   UNL     1       7.543   4.846  11.355  0.00  0.00    +0.000 OA
BRANCH  21  23
ATOM     23  OXT UNL     1       8.072   5.494  13.450  0.00  0.00    +0.000 OA
ATOM     24  HXT UNL     1       7.902   5.161  14.359  0.00  0.00    +0.000 HD
ENDBRANCH  21  23
ENDBRANCH  20  21
BRANCH  20  25
ATOM     25  CB  UNL     1       5.433   3.213  12.203  0.00  0.00    +0.000 C 
BRANCH  25  26
ATOM     26  CG  UNL     1       6.436   2.083  11.980  0.00  0.00    +0.000 C 
BRANCH  26  27
ATOM     27  CD  UNL     1       5.895   0.997  11.060  0.00  0.00    +0.000 C 
BRANCH  27  28
ATOM     28  CE  UNL     1       6.576  -0.330  11.387  0.00  0.00    +0.000 C 
BRANCH  28  29
ATOM     29  NZ  UNL     1       5.620  -1.426  11.340  0.00  0.00    +0.000 NA
ATOM     30  HZ1 UNL     1       5.832  -2.082  12.092  0.00  0.00    +0.000 HD
ATOM     31  HZ2 UNL     1       5.738  -1.945  10.470  0.00  0.00    +0.000 HD
ENDBRANCH  28  29
ENDBRANCH  27  28
ENDBRANCH  26  27
ENDBRANCH  25  26
ENDBRANCH  20  25
ENDBRANCH   1  20
TORSDOF 11
ENDMDL
MODEL 9
REMARK VINA RESULT:      -5.3      4.841      8.626
REMARK  Name = 
REMARK  11 active torsions:
REMARK  status: ('A' for Active; 'I' for Inactive)
REMARK    1  A    between atoms: NZ_1  and  CE_2
REMARK    2  A    between atoms: CE_2  and  CD_3
REMARK    3  A    between atoms: CD_3  and  CG_4
REMARK    4  A    between atoms: CG_4  and  CB_5
REMARK    5  A    between atoms: CB_5  and  CA_6
REMARK    6  A    between atoms: CA_6  and  N_7
REMARK    7  A    between atoms: CA_6  and  C_23
REMARK    8  A    between atoms: C_8  and  CA_10
REMARK    9  A    between atoms: C_17  and  C_18
REMARK   10  A    between atoms: C_18  and  S_19
REMARK   11  A    between atoms: C_23  and  OXT_25
REMARK                            x       y       z     vdW  Elec       q    Type
REMARK                         _______ _______ _______ _____ _____    ______ ____
ROOT
ATOM      1  N   UNL     1       2.201   7.320  20.719  0.00  0.00    +0.000 N 
ATOM      2  C   UNL     1       2.096   5.994  20.376  0.00  0.00    +0.000 C 
ATOM      3  O   UNL     1       1.050   5.596  19.873  0.00  0.00    +0.000 OA
ATOM      4  H   UNL     1       3.102   7.739  20.510  0.00  0.00    +0.000 HD
ENDROOT
BRANCH   2   5
ATOM      5  CA  UNL     1       3.356   5.108  20.558  0.00  0.00    +0.000 C 
ATOM      6  C   UNL     1       3.001   3.739  21.207  0.00  0.00    +0.000 C 
ATOM      7  C   UNL     1       1.539   3.246  21.241  0.00  0.00    +0.000 C 
ATOM      8  C   UNL     1       0.882   2.505  20.046  0.00  0.00    +0.000 C 
ATOM      9  C   UNL     1       0.843   3.055  18.606  0.00  0.00    +0.000 C 
ATOM     10  C   UNL     1       2.168   2.932  17.850  0.00  0.00    +0.000 C 
ATOM     11  C   UNL     1       2.447   4.079  16.849  0.00  0.00    +0.000 C 
ATOM     12  C   UNL     1       3.888   4.675  16.901  0.00  0.00    +0.000 C 
ATOM     13  C   UNL     1       3.952   5.545  18.161  0.00  0.00    +0.000 C 
ATOM     14  O   UNL     1       3.725   6.751  18.154  0.00  0.00    +0.000 OA
ATOM     15  N   UNL     1       4.024   4.797  19.303  0.00  0.00    +0.000 N 
ATOM     16  H   UNL     1       4.723   4.065  19.320  0.00  0.00    +0.000 HD
BRANCH  12  17
ATOM     17  C   UNL     1       4.953   3.580  16.773  0.00  0.00    +0.000 C 
BRANCH  17  18
ATOM     18  S   UNL     1       6.497   4.158  16.008  0.00  0.00    +0.000 S 
ATOM     19  H   UNL     1       5.971   5.208  15.358  0.00  0.00    +0.000 HD
ENDBRANCH  17  18
ENDBRANCH  12  17
ENDBRANCH   2   5
BRANCH   1  20
ATOM     20  CA  UNL     1       0.990   8.107  20.457  0.00  0.00    +0.000 C 
BRANCH  20  21
ATOM     21  C   UNL     1       0.498   8.710  21.787  0.00  0.00    +0.000 C 
ATOM     22  O   UNL     1       1.163   9.448  22.502  0.00  0.00    +0.000 OA
BRANCH  21  23
ATOM     23  OXT UNL     1      -0.742   8.291  22.150  0.00  0.00    +0.000 OA
ATOM     24  HXT UNL     1      -1.427   8.619  21.527  0.00  0.00    +0.000 HD
ENDBRANCH  21  23
ENDBRANCH  20  21
BRANCH  20  25
ATOM     25  CB  UNL     1       1.194   9.222  19.436  0.00  0.00    +0.000 C 
BRANCH  25  26
ATOM     26  CG  UNL     1      -0.066  10.079  19.334  0.00  0.00    +0.000 C 
BRANCH  26  27
ATOM     27  CD  UNL     1       0.247  11.548  19.075  0.00  0.00    +0.000 C 
BRANCH  27  28
ATOM     28  CE  UNL     1       1.281  12.032  20.090  0.00  0.00    +0.000 C 
BRANCH  28  29
ATOM     29  NZ  UNL     1       0.660  12.270  21.384  0.00  0.00    +0.000 NA
ATOM     30  HZ1 UNL     1       0.796  11.449  21.973  0.00  0.00    +0.000 HD
ATOM     31  HZ2 UNL     1      -0.348  12.371  21.267  0.00  0.00    +0.000 HD
ENDBRANCH  28  29
ENDBRANCH  27  28
ENDBRANCH  26  27
ENDBRANCH  25  26
ENDBRANCH  20  25
ENDBRANCH   1  20
TORSDOF 11
ENDMDL
