MODEL 1
REMARK VINA RESULT:      -8.4      0.000      0.000
REMARK  Name = 
REMARK  3 active torsions:
REMARK  status: ('A' for Active; 'I' for Inactive)
REMARK    1  A    between atoms: C_3  and  C_4
REMARK    2  A    between atoms: C_4  and  C_5
REMARK    3  A    between atoms: C_14  and  C_15
REMARK                            x       y       z     vdW  Elec       q    Type
REMARK                         _______ _______ _______ _____ _____    ______ ____
ROOT
ATOM      1  O   UNL     1       5.626   6.983  15.018  0.00  0.00    +0.000 OA
ATOM      2  C   UNL     1       5.368   5.963  15.645  0.00  0.00    +0.000 A 
ATOM      3  C   UNL     1       5.917   4.607  15.308  0.00  0.00    +0.000 A 
ATOM      4  C   UNL     1       5.548   3.568  16.077  0.00  0.00    +0.000 A 
ATOM      5  N   UNL     1       4.700   3.667  17.151  0.00  0.00    +0.000 N 
ATOM      6  C   UNL     1       4.119   4.848  17.469  0.00  0.00    +0.000 A 
ATOM      7  C   UNL     1       3.179   5.249  18.395  0.00  0.00    +0.000 A 
ATOM      8  C   UNL     1       3.080   6.648  18.183  0.00  0.00    +0.000 A 
ATOM      9  N   UNL     1       3.857   7.093  17.191  0.00  0.00    +0.000 NA
ATOM     10  N   UNL     1       4.480   5.969  16.740  0.00  0.00    +0.000 N 
ATOM     11  H   UNL     1       4.538   2.821  17.696  0.00  0.00    +0.000 HD
ENDROOT
BRANCH   7  12
ATOM     12  C   UNL     1       2.480   4.387  19.334  0.00  0.00    +0.000 A 
ATOM     13  C   UNL     1       2.776   4.443  20.702  0.00  0.00    +0.000 A 
ATOM     14  C   UNL     1       2.102   3.618  21.608  0.00  0.00    +0.000 A 
ATOM     15  C   UNL     1       1.132   2.726  21.156  0.00  0.00    +0.000 A 
ATOM     16  C   UNL     1       0.819   2.669  19.802  0.00  0.00    +0.000 A 
ATOM     17  C   UNL     1       1.479   3.506  18.900  0.00  0.00    +0.000 A 
ENDBRANCH   7  12
BRANCH   3  18
ATOM     18  C   UNL     1       6.754   4.477  14.077  0.00  0.00    +0.000 C 
BRANCH  18  19
ATOM     19  C   UNL     1       6.094   3.727  12.945  0.00  0.00    +0.000 A 
ATOM     20  C   UNL     1       6.763   2.679  12.294  0.00  0.00    +0.000 A 
ATOM     21  C   UNL     1       6.114   1.926  11.315  0.00  0.00    +0.000 A 
ATOM     22  C   UNL     1       4.796   2.219  10.969  0.00  0.00    +0.000 A 
ATOM     23  C   UNL     1       4.137   3.284  11.579  0.00  0.00    +0.000 A 
ATOM     24  C   UNL     1       4.785   4.041  12.556  0.00  0.00    +0.000 A 
ENDBRANCH  18  19
ENDBRANCH   3  18
TORSDOF 3
ENDMDL
MODEL 2
REMARK VINA RESULT:      -8.3      0.138      1.015
REMARK  Name = 
REMARK  3 active torsions:
REMARK  status: ('A' for Active; 'I' for Inactive)
REMARK    1  A    between atoms: C_3  and  C_4
REMARK    2  A    between atoms: C_4  and  C_5
REMARK    3  A    between atoms: C_14  and  C_15
REMARK                            x       y       z     vdW  Elec       q    Type
REMARK                         _______ _______ _______ _____ _____    ______ ____
ROOT
ATOM      1  O   UNL     1       5.562   7.067  15.051  0.00  0.00    +0.000 OA
ATOM      2  C   UNL     1       5.343   6.044  15.688  0.00  0.00    +0.000 A 
ATOM      3  C   UNL     1       5.957   4.710  15.375  0.00  0.00    +0.000 A 
ATOM      4  C   UNL     1       5.626   3.664  16.153  0.00  0.00    +0.000 A 
ATOM      5  N   UNL     1       4.762   3.738  17.216  0.00  0.00    +0.000 N 
ATOM      6  C   UNL     1       4.124   4.894  17.512  0.00  0.00    +0.000 A 
ATOM      7  C   UNL     1       3.156   5.263  18.423  0.00  0.00    +0.000 A 
ATOM      8  C   UNL     1       2.996   6.654  18.192  0.00  0.00    +0.000 A 
ATOM      9  N   UNL     1       3.764   7.122  17.203  0.00  0.00    +0.000 NA
ATOM     10  N   UNL     1       4.442   6.023  16.774  0.00  0.00    +0.000 N 
ATOM     11  H   UNL     1       4.631   2.892  17.770  0.00  0.00    +0.000 HD
ENDROOT
BRANCH   7  12
ATOM     12  C   UNL     1       2.486   4.383  19.364  0.00  0.00    +0.000 A 
ATOM     13  C   UNL     1       1.528   3.463  18.916  0.00  0.00    +0.000 A 
ATOM     14  C   UNL     1       0.884   2.612  19.820  0.00  0.00    +0.000 A 
ATOM     15  C   UNL     1       1.186   2.675  21.179  0.00  0.00    +0.000 A 
ATOM     16  C   UNL     1       2.142   3.576  21.636  0.00  0.00    +0.000 A 
ATOM     17  C   UNL     1       2.799   4.412  20.732  0.00  0.00    +0.000 A 
ENDBRANCH   7  12
BRANCH   3  18
ATOM     18  C   UNL     1       6.813   4.603  14.155  0.00  0.00    +0.000 C 
BRANCH  18  19
ATOM     19  C   UNL     1       6.195   3.821  13.020  0.00  0.00    +0.000 A 
ATOM     20  C   UNL     1       6.950   2.878  12.307  0.00  0.00    +0.000 A 
ATOM     21  C   UNL     1       6.350   2.090  11.324  0.00  0.00    +0.000 A 
ATOM     22  C   UNL     1       4.995   2.243  11.037  0.00  0.00    +0.000 A 
ATOM     23  C   UNL     1       4.247   3.207  11.711  0.00  0.00    +0.000 A 
ATOM     24  C   UNL     1       4.845   3.999  12.691  0.00  0.00    +0.000 A 
ENDBRANCH  18  19
ENDBRANCH   3  18
TORSDOF 3
ENDMDL
MODEL 3
REMARK VINA RESULT:      -8.2      0.492      1.383
REMARK  Name = 
REMARK  3 active torsions:
REMARK  status: ('A' for Active; 'I' for Inactive)
REMARK    1  A    between atoms: C_3  and  C_4
REMARK    2  A    between atoms: C_4  and  C_5
REMARK    3  A    between atoms: C_14  and  C_15
REMARK                            x       y       z     vdW  Elec       q    Type
REMARK                         _______ _______ _______ _____ _____    ______ ____
ROOT
ATOM      1  O   UNL     1       5.487   6.955  15.049  0.00  0.00    +0.000 OA
ATOM      2  C   UNL     1       5.307   5.925  15.686  0.00  0.00    +0.000 A 
ATOM      3  C   UNL     1       5.886   4.591  15.311  0.00  0.00    +0.000 A 
ATOM      4  C   UNL     1       5.604   3.537  16.096  0.00  0.00    +0.000 A 
ATOM      5  N   UNL     1       4.820   3.602  17.220  0.00  0.00    +0.000 N 
ATOM      6  C   UNL     1       4.213   4.758  17.577  0.00  0.00    +0.000 A 
ATOM      7  C   UNL     1       3.316   5.121  18.560  0.00  0.00    +0.000 A 
ATOM      8  C   UNL     1       3.150   6.515  18.360  0.00  0.00    +0.000 A 
ATOM      9  N   UNL     1       3.849   6.992  17.325  0.00  0.00    +0.000 NA
ATOM     10  N   UNL     1       4.486   5.894  16.833  0.00  0.00    +0.000 N 
ATOM     11  H   UNL     1       4.723   2.749  17.770  0.00  0.00    +0.000 HD
ENDROOT
BRANCH   7  12
ATOM     12  C   UNL     1       2.709   4.231  19.535  0.00  0.00    +0.000 A 
ATOM     13  C   UNL     1       1.316   4.084  19.589  0.00  0.00    +0.000 A 
ATOM     14  C   UNL     1       0.729   3.226  20.525  0.00  0.00    +0.000 A 
ATOM     15  C   UNL     1       1.526   2.513  21.418  0.00  0.00    +0.000 A 
ATOM     16  C   UNL     1       2.910   2.641  21.368  0.00  0.00    +0.000 A 
ATOM     17  C   UNL     1       3.497   3.483  20.422  0.00  0.00    +0.000 A 
ENDBRANCH   7  12
BRANCH   3  18
ATOM     18  C   UNL     1       6.652   4.496  14.031  0.00  0.00    +0.000 C 
BRANCH  18  19
ATOM     19  C   UNL     1       5.978   3.679  12.955  0.00  0.00    +0.000 A 
ATOM     20  C   UNL     1       4.673   3.981  12.538  0.00  0.00    +0.000 A 
ATOM     21  C   UNL     1       4.090   3.286  11.478  0.00  0.00    +0.000 A 
ATOM     22  C   UNL     1       4.800   2.277  10.832  0.00  0.00    +0.000 A 
ATOM     23  C   UNL     1       6.081   1.940  11.265  0.00  0.00    +0.000 A 
ATOM     24  C   UNL     1       6.664   2.631  12.328  0.00  0.00    +0.000 A 
ENDBRANCH  18  19
ENDBRANCH   3  18
TORSDOF 3
ENDMDL
MODEL 4
REMARK VINA RESULT:      -8.1      0.571      1.172
REMARK  Name = 
REMARK  3 active torsions:
REMARK  status: ('A' for Active; 'I' for Inactive)
REMARK    1  A    between atoms: C_3  and  C_4
REMARK    2  A    between atoms: C_4  and  C_5
REMARK    3  A    between atoms: C_14  and  C_15
REMARK                            x       y       z     vdW  Elec       q    Type
REMARK                         _______ _______ _______ _____ _____    ______ ____
ROOT
ATOM      1  O   UNL     1       5.439   6.947  15.015  0.00  0.00    +0.000 OA
ATOM      2  C   UNL     1       5.290   5.919  15.664  0.00  0.00    +0.000 A 
ATOM      3  C   UNL     1       5.900   4.597  15.300  0.00  0.00    +0.000 A 
ATOM      4  C   UNL     1       5.649   3.544  16.099  0.00  0.00    +0.000 A 
ATOM      5  N   UNL     1       4.871   3.602  17.227  0.00  0.00    +0.000 N 
ATOM      6  C   UNL     1       4.238   4.746  17.576  0.00  0.00    +0.000 A 
ATOM      7  C   UNL     1       3.339   5.097  18.561  0.00  0.00    +0.000 A 
ATOM      8  C   UNL     1       3.137   6.485  18.347  0.00  0.00    +0.000 A 
ATOM      9  N   UNL     1       3.816   6.967  17.302  0.00  0.00    +0.000 NA
ATOM     10  N   UNL     1       4.477   5.881  16.818  0.00  0.00    +0.000 N 
ATOM     11  H   UNL     1       4.799   2.753  17.787  0.00  0.00    +0.000 HD
ENDROOT
BRANCH   7  12
ATOM     12  C   UNL     1       2.761   4.204  19.550  0.00  0.00    +0.000 A 
ATOM     13  C   UNL     1       3.575   3.313  20.262  0.00  0.00    +0.000 A 
ATOM     14  C   UNL     1       3.021   2.454  21.218  0.00  0.00    +0.000 A 
ATOM     15  C   UNL     1       1.650   2.473  21.466  0.00  0.00    +0.000 A 
ATOM     16  C   UNL     1       0.832   3.361  20.774  0.00  0.00    +0.000 A 
ATOM     17  C   UNL     1       1.387   4.230  19.834  0.00  0.00    +0.000 A 
ENDBRANCH   7  12
BRANCH   3  18
ATOM     18  C   UNL     1       6.659   4.506  14.016  0.00  0.00    +0.000 C 
BRANCH  18  19
ATOM     19  C   UNL     1       5.987   3.680  12.945  0.00  0.00    +0.000 A 
ATOM     20  C   UNL     1       4.678   3.971  12.533  0.00  0.00    +0.000 A 
ATOM     21  C   UNL     1       4.096   3.268  11.478  0.00  0.00    +0.000 A 
ATOM     22  C   UNL     1       4.811   2.262  10.831  0.00  0.00    +0.000 A 
ATOM     23  C   UNL     1       6.097   1.938  11.260  0.00  0.00    +0.000 A 
ATOM     24  C   UNL     1       6.679   2.636  12.318  0.00  0.00    +0.000 A 
ENDBRANCH  18  19
ENDBRANCH   3  18
TORSDOF 3
ENDMDL
MODEL 5
REMARK VINA RESULT:      -8.0      1.812      7.451
REMARK  Name = 
REMARK  3 active torsions:
REMARK  status: ('A' for Active; 'I' for Inactive)
REMARK    1  A    between atoms: C_3  and  C_4
REMARK    2  A    between atoms: C_4  and  C_5
REMARK    3  A    between atoms: C_14  and  C_15
REMARK                            x       y       z     vdW  Elec       q    Type
REMARK                         _______ _______ _______ _____ _____    ______ ____
ROOT
ATOM      1  O   UNL     1       5.613   5.253  20.130  0.00  0.00    +0.000 OA
ATOM      2  C   UNL     1       5.286   5.420  18.961  0.00  0.00    +0.000 A 
ATOM      3  C   UNL     1       3.945   5.937  18.528  0.00  0.00    +0.000 A 
ATOM      4  C   UNL     1       3.713   6.066  17.210  0.00  0.00    +0.000 A 
ATOM      5  N   UNL     1       4.626   5.756  16.234  0.00  0.00    +0.000 N 
ATOM      6  C   UNL     1       5.829   5.224  16.553  0.00  0.00    +0.000 A 
ATOM      7  C   UNL     1       6.894   4.730  15.830  0.00  0.00    +0.000 A 
ATOM      8  C   UNL     1       7.836   4.374  16.829  0.00  0.00    +0.000 A 
ATOM      9  N   UNL     1       7.401   4.588  18.073  0.00  0.00    +0.000 NA
ATOM     10  N   UNL     1       6.149   5.093  17.894  0.00  0.00    +0.000 N 
ATOM     11  H   UNL     1       4.360   5.950  15.269  0.00  0.00    +0.000 HD
ENDROOT
BRANCH   7  12
ATOM     12  C   UNL     1       6.968   4.615  14.383  0.00  0.00    +0.000 A 
ATOM     13  C   UNL     1       6.190   3.665  13.707  0.00  0.00    +0.000 A 
ATOM     14  C   UNL     1       6.257   3.555  12.314  0.00  0.00    +0.000 A 
ATOM     15  C   UNL     1       7.104   4.387  11.585  0.00  0.00    +0.000 A 
ATOM     16  C   UNL     1       7.873   5.342  12.243  0.00  0.00    +0.000 A 
ATOM     17  C   UNL     1       7.793   5.464  13.631  0.00  0.00    +0.000 A 
ENDBRANCH   7  12
BRANCH   3  18
ATOM     18  C   UNL     1       2.912   6.174  19.582  0.00  0.00    +0.000 C 
BRANCH  18  19
ATOM     19  C   UNL     1       2.226   4.926  20.082  0.00  0.00    +0.000 A 
ATOM     20  C   UNL     1       1.374   4.192  19.243  0.00  0.00    +0.000 A 
ATOM     21  C   UNL     1       0.819   2.988  19.677  0.00  0.00    +0.000 A 
ATOM     22  C   UNL     1       1.100   2.511  20.955  0.00  0.00    +0.000 A 
ATOM     23  C   UNL     1       1.911   3.253  21.812  0.00  0.00    +0.000 A 
ATOM     24  C   UNL     1       2.464   4.459  21.382  0.00  0.00    +0.000 A 
ENDBRANCH  18  19
ENDBRANCH   3  18
TORSDOF 3
ENDMDL
MODEL 6
REMARK VINA RESULT:      -8.0      1.813      7.411
REMARK  Name = 
REMARK  3 active torsions:
REMARK  status: ('A' for Active; 'I' for Inactive)
REMARK    1  A    between atoms: C_3  and  C_4
REMARK    2  A    between atoms: C_4  and  C_5
REMARK    3  A    between atoms: C_14  and  C_15
REMARK                            x       y       z     vdW  Elec       q    Type
REMARK                         _______ _______ _______ _____ _____    ______ ____
ROOT
ATOM      1  O   UNL     1       5.625   5.241  20.122  0.00  0.00    +0.000 OA
ATOM      2  C   UNL     1       5.296   5.414  18.955  0.00  0.00    +0.000 A 
ATOM      3  C   UNL     1       3.955   5.937  18.527  0.00  0.00    +0.000 A 
ATOM      4  C   UNL     1       3.721   6.074  17.210  0.00  0.00    +0.000 A 
ATOM      5  N   UNL     1       4.631   5.766  16.231  0.00  0.00    +0.000 N 
ATOM      6  C   UNL     1       5.833   5.229  16.544  0.00  0.00    +0.000 A 
ATOM      7  C   UNL     1       6.896   4.737  15.817  0.00  0.00    +0.000 A 
ATOM      8  C   UNL     1       7.839   4.374  16.812  0.00  0.00    +0.000 A 
ATOM      9  N   UNL     1       7.407   4.582  18.058  0.00  0.00    +0.000 NA
ATOM     10  N   UNL     1       6.156   5.091  17.885  0.00  0.00    +0.000 N 
ATOM     11  H   UNL     1       4.364   5.966  15.268  0.00  0.00    +0.000 HD
ENDROOT
BRANCH   7  12
ATOM     12  C   UNL     1       6.966   4.629  14.369  0.00  0.00    +0.000 A 
ATOM     13  C   UNL     1       7.813   5.471  13.637  0.00  0.00    +0.000 A 
ATOM     14  C   UNL     1       7.885   5.367  12.243  0.00  0.00    +0.000 A 
ATOM     15  C   UNL     1       7.109   4.426  11.569  0.00  0.00    +0.000 A 
ATOM     16  C   UNL     1       6.272   3.576  12.286  0.00  0.00    +0.000 A 
ATOM     17  C   UNL     1       6.214   3.668  13.678  0.00  0.00    +0.000 A 
ENDBRANCH   7  12
BRANCH   3  18
ATOM     18  C   UNL     1       2.925   6.171  19.585  0.00  0.00    +0.000 C 
BRANCH  18  19
ATOM     19  C   UNL     1       2.237   4.921  20.081  0.00  0.00    +0.000 A 
ATOM     20  C   UNL     1       1.403   4.180  19.232  0.00  0.00    +0.000 A 
ATOM     21  C   UNL     1       0.846   2.974  19.663  0.00  0.00    +0.000 A 
ATOM     22  C   UNL     1       1.110   2.505  20.948  0.00  0.00    +0.000 A 
ATOM     23  C   UNL     1       1.904   3.255  21.813  0.00  0.00    +0.000 A 
ATOM     24  C   UNL     1       2.458   4.462  21.386  0.00  0.00    +0.000 A 
ENDBRANCH  18  19
ENDBRANCH   3  18
TORSDOF 3
ENDMDL
MODEL 7
REMARK VINA RESULT:      -7.8      1.577      7.235
REMARK  Name = 
REMARK  3 active torsions:
REMARK  status: ('A' for Active; 'I' for Inactive)
REMARK    1  A    between atoms: C_3  and  C_4
REMARK    2  A    between atoms: C_4  and  C_5
REMARK    3  A    between atoms: C_14  and  C_15
REMARK                            x       y       z     vdW  Elec       q    Type
REMARK                         _______ _______ _______ _____ _____    ______ ____
ROOT
ATOM      1  O   UNL     1       7.154   6.136  17.956  0.00  0.00    +0.000 OA
ATOM      2  C   UNL     1       6.369   5.451  17.313  0.00  0.00    +0.000 A 
ATOM      3  C   UNL     1       5.154   4.791  17.897  0.00  0.00    +0.000 A 
ATOM      4  C   UNL     1       4.377   4.059  17.079  0.00  0.00    +0.000 A 
ATOM      5  N   UNL     1       4.625   3.877  15.741  0.00  0.00    +0.000 N 
ATOM      6  C   UNL     1       5.738   4.390  15.166  0.00  0.00    +0.000 A 
ATOM      7  C   UNL     1       6.307   4.309  13.913  0.00  0.00    +0.000 A 
ATOM      8  C   UNL     1       7.455   5.137  14.016  0.00  0.00    +0.000 A 
ATOM      9  N   UNL     1       7.621   5.669  15.230  0.00  0.00    +0.000 NA
ATOM     10  N   UNL     1       6.566   5.184  15.942  0.00  0.00    +0.000 N 
ATOM     11  H   UNL     1       3.935   3.350  15.207  0.00  0.00    +0.000 HD
ENDROOT
BRANCH   7  12
ATOM     12  C   UNL     1       5.807   3.529  12.793  0.00  0.00    +0.000 A 
ATOM     13  C   UNL     1       4.547   3.804  12.245  0.00  0.00    +0.000 A 
ATOM     14  C   UNL     1       4.065   3.057  11.165  0.00  0.00    +0.000 A 
ATOM     15  C   UNL     1       4.834   2.026  10.627  0.00  0.00    +0.000 A 
ATOM     16  C   UNL     1       6.091   1.751  11.154  0.00  0.00    +0.000 A 
ATOM     17  C   UNL     1       6.580   2.508  12.220  0.00  0.00    +0.000 A 
ENDBRANCH   7  12
BRANCH   3  18
ATOM     18  C   UNL     1       4.940   4.898  19.372  0.00  0.00    +0.000 C 
BRANCH  18  19
ATOM     19  C   UNL     1       3.607   4.379  19.854  0.00  0.00    +0.000 A 
ATOM     20  C   UNL     1       3.447   3.029  20.200  0.00  0.00    +0.000 A 
ATOM     21  C   UNL     1       2.241   2.574  20.736  0.00  0.00    +0.000 A 
ATOM     22  C   UNL     1       1.182   3.460  20.921  0.00  0.00    +0.000 A 
ATOM     23  C   UNL     1       1.317   4.794  20.541  0.00  0.00    +0.000 A 
ATOM     24  C   UNL     1       2.519   5.250  20.002  0.00  0.00    +0.000 A 
ENDBRANCH  18  19
ENDBRANCH   3  18
TORSDOF 3
ENDMDL
MODEL 8
REMARK VINA RESULT:      -7.8      2.452      3.916
REMARK  Name = 
REMARK  3 active torsions:
REMARK  status: ('A' for Active; 'I' for Inactive)
REMARK    1  A    between atoms: C_3  and  C_4
REMARK    2  A    between atoms: C_4  and  C_5
REMARK    3  A    between atoms: C_14  and  C_15
REMARK                            x       y       z     vdW  Elec       q    Type
REMARK                         _______ _______ _______ _____ _____    ______ ____
ROOT
ATOM      1  O   UNL     1       5.749   3.641  18.393  0.00  0.00    +0.000 OA
ATOM      2  C   UNL     1       5.279   4.702  18.000  0.00  0.00    +0.000 A 
ATOM      3  C   UNL     1       5.818   5.482  16.836  0.00  0.00    +0.000 A 
ATOM      4  C   UNL     1       5.210   6.637  16.514  0.00  0.00    +0.000 A 
ATOM      5  N   UNL     1       4.127   7.150  17.182  0.00  0.00    +0.000 N 
ATOM      6  C   UNL     1       3.632   6.531  18.280  0.00  0.00    +0.000 A 
ATOM      7  C   UNL     1       2.650   6.826  19.201  0.00  0.00    +0.000 A 
ATOM      8  C   UNL     1       2.651   5.698  20.061  0.00  0.00    +0.000 A 
ATOM      9  N   UNL     1       3.570   4.784  19.740  0.00  0.00    +0.000 NA
ATOM     10  N   UNL     1       4.188   5.317  18.650  0.00  0.00    +0.000 N 
ATOM     11  H   UNL     1       3.713   8.004  16.812  0.00  0.00    +0.000 HD
ENDROOT
BRANCH   7  12
ATOM     12  C   UNL     1       1.845   8.036  19.236  0.00  0.00    +0.000 A 
ATOM     13  C   UNL     1       1.338   8.515  20.452  0.00  0.00    +0.000 A 
ATOM     14  C   UNL     1       0.566   9.680  20.488  0.00  0.00    +0.000 A 
ATOM     15  C   UNL     1       0.288  10.375  19.312  0.00  0.00    +0.000 A 
ATOM     16  C   UNL     1       0.794   9.916  18.100  0.00  0.00    +0.000 A 
ATOM     17  C   UNL     1       1.580   8.763  18.066  0.00  0.00    +0.000 A 
ENDBRANCH   7  12
BRANCH   3  18
ATOM     18  C   UNL     1       7.062   4.982  16.174  0.00  0.00    +0.000 C 
BRANCH  18  19
ATOM     19  C   UNL     1       6.921   4.709  14.696  0.00  0.00    +0.000 A 
ATOM     20  C   UNL     1       7.750   5.355  13.767  0.00  0.00    +0.000 A 
ATOM     21  C   UNL     1       7.682   5.028  12.412  0.00  0.00    +0.000 A 
ATOM     22  C   UNL     1       6.781   4.061  11.972  0.00  0.00    +0.000 A 
ATOM     23  C   UNL     1       5.924   3.444  12.881  0.00  0.00    +0.000 A 
ATOM     24  C   UNL     1       5.987   3.772  14.236  0.00  0.00    +0.000 A 
ENDBRANCH  18  19
ENDBRANCH   3  18
TORSDOF 3
ENDMDL
MODEL 9
REMARK VINA RESULT:      -7.8      4.682      8.381
REMARK  Name = 
REMARK  3 active torsions:
REMARK  status: ('A' for Active; 'I' for Inactive)
REMARK    1  A    between atoms: C_3  and  C_4
REMARK    2  A    between atoms: C_4  and  C_5
REMARK    3  A    between atoms: C_14  and  C_15
REMARK                            x       y       z     vdW  Elec       q    Type
REMARK                         _______ _______ _______ _____ _____    ______ ____
ROOT
ATOM      1  O   UNL     1       0.260   9.211  21.034  0.00  0.00    +0.000 OA
ATOM      2  C   UNL     1       0.925   9.107  20.011  0.00  0.00    +0.000 A 
ATOM      3  C   UNL     1       0.955  10.137  18.919  0.00  0.00    +0.000 A 
ATOM      4  C   UNL     1       1.725   9.896  17.844  0.00  0.00    +0.000 A 
ATOM      5  N   UNL     1       2.486   8.766  17.679  0.00  0.00    +0.000 N 
ATOM      6  C   UNL     1       2.453   7.769  18.594  0.00  0.00    +0.000 A 
ATOM      7  C   UNL     1       3.005   6.508  18.675  0.00  0.00    +0.000 A 
ATOM      8  C   UNL     1       2.577   6.039  19.944  0.00  0.00    +0.000 A 
ATOM      9  N   UNL     1       1.797   6.905  20.597  0.00  0.00    +0.000 NA
ATOM     10  N   UNL     1       1.708   7.964  19.745  0.00  0.00    +0.000 N 
ATOM     11  H   UNL     1       3.075   8.718  16.849  0.00  0.00    +0.000 HD
ENDROOT
BRANCH   7  12
ATOM     12  C   UNL     1       3.816   5.860  17.658  0.00  0.00    +0.000 A 
ATOM     13  C   UNL     1       3.713   4.480  17.442  0.00  0.00    +0.000 A 
ATOM     14  C   UNL     1       4.490   3.855  16.461  0.00  0.00    +0.000 A 
ATOM     15  C   UNL     1       5.381   4.601  15.691  0.00  0.00    +0.000 A 
ATOM     16  C   UNL     1       5.485   5.975  15.888  0.00  0.00    +0.000 A 
ATOM     17  C   UNL     1       4.696   6.601  16.854  0.00  0.00    +0.000 A 
ENDBRANCH   7  12
BRANCH   3  18
ATOM     18  C   UNL     1       0.047  11.317  19.045  0.00  0.00    +0.000 C 
BRANCH  18  19
ATOM     19  C   UNL     1      -1.343  11.103  18.495  0.00  0.00    +0.000 A 
ATOM     20  C   UNL     1      -1.595  10.082  17.566  0.00  0.00    +0.000 A 
ATOM     21  C   UNL     1      -2.897   9.824  17.134  0.00  0.00    +0.000 A 
ATOM     22  C   UNL     1      -3.955  10.590  17.616  0.00  0.00    +0.000 A 
ATOM     23  C   UNL     1      -3.710  11.634  18.506  0.00  0.00    +0.000 A 
ATOM     24  C   UNL     1      -2.410  11.896  18.937  0.00  0.00    +0.000 A 
ENDBRANCH  18  19
ENDBRANCH   3  18
TORSDOF 3
ENDMDL
