MODEL 1
REMARK VINA RESULT:      -9.0      0.000      0.000
REMARK  Name = 
REMARK  9 active torsions:
REMARK  status: ('A' for Active; 'I' for Inactive)
REMARK    1  A    between atoms: C_2  and  C_4
REMARK    2  A    between atoms: C_7  and  C_8
REMARK    3  A    between atoms: C_11  and  C_12
REMARK    4  A    between atoms: C_12  and  C_13
REMARK    5  A    between atoms: N_15  and  C_16
REMARK    6  A    between atoms: C_16  and  C_17
REMARK    7  A    between atoms: C_16  and  C_21
REMARK    8  A    between atoms: C_17  and  C_18
REMARK    9  A    between atoms: C_18  and  O_20
REMARK                            x       y       z     vdW  Elec       q    Type
REMARK                         _______ _______ _______ _____ _____    ______ ____
ROOT
ATOM      1  C   UNL     1       3.166   7.720  17.778  0.00  0.00    +0.000 C 
ATOM      2  O   UNL     1       3.322   8.064  16.609  0.00  0.00    +0.000 OA
ATOM      3  N   UNL     1       3.802   6.629  18.323  0.00  0.00    +0.000 N 
ATOM      4  H   UNL     1       3.736   6.450  19.319  0.00  0.00    +0.000 HD
ENDROOT
BRANCH   1   5
ATOM      5  C   UNL     1       2.269   8.458  18.723  0.00  0.00    +0.000 C 
BRANCH   5   9
ATOM      6  C   UNL     1      -0.608  10.480  18.298  0.00  0.00    +0.000 C 
ATOM      7  N   UNL     1       0.240  11.326  18.789  0.00  0.00    +0.000 NA
ATOM      8  O   UNL     1       1.507  10.710  18.787  0.00  0.00    +0.000 OA
ATOM      9  C   UNL     1       1.431   9.504  18.017  0.00  0.00    +0.000 C 
ATOM     10  C   UNL     1      -0.044   9.161  17.921  0.00  0.00    +0.000 C 
BRANCH   6  14
ATOM     11  C   UNL     1      -4.802  11.234  17.944  0.00  0.00    +0.000 A 
ATOM     12  C   UNL     1      -4.033  12.002  18.828  0.00  0.00    +0.000 A 
ATOM     13  C   UNL     1      -2.660  11.780  18.950  0.00  0.00    +0.000 A 
ATOM     14  C   UNL     1      -2.053  10.780  18.184  0.00  0.00    +0.000 A 
ATOM     15  C   UNL     1      -2.816  10.026  17.284  0.00  0.00    +0.000 A 
ATOM     16  C   UNL     1      -4.187  10.253  17.159  0.00  0.00    +0.000 A 
BRANCH  11  18
ATOM     17  N   UNL     1      -7.072  10.734  18.550  0.00  0.00    +0.000 NA
ATOM     18  C   UNL     1      -6.273  11.460  17.851  0.00  0.00    +0.000 C 
ATOM     19  N   UNL     1      -6.770  12.422  17.003  0.00  0.00    +0.000 N 
ATOM     20  H   UNL     1      -8.035  11.034  18.403  0.00  0.00    +0.000 HD
ATOM     21  H   UNL     1      -7.740  12.285  16.751  0.00  0.00    +0.000 HD
ATOM     22  H   UNL     1      -6.189  12.629  16.204  0.00  0.00    +0.000 HD
ENDBRANCH  11  18
ENDBRANCH   6  14
ENDBRANCH   5   9
ENDBRANCH   1   5
BRANCH   3  23
ATOM     23  C   UNL     1       4.756   5.869  17.545  0.00  0.00    +0.000 C 
BRANCH  23  24
ATOM     24  C   UNL     1       4.350   4.408  17.262  0.00  0.00    +0.000 C 
ATOM     25  O   UNL     1       4.107   4.131  16.073  0.00  0.00    +0.000 OA
ATOM     26  N   UNL     1       4.099   3.464  18.267  0.00  0.00    +0.000 N 
ATOM     27  C   UNL     1       3.474   2.243  17.783  0.00  0.00    +0.000 C 
ATOM     28  C   UNL     1       2.300   1.818  18.630  0.00  0.00    +0.000 C 
ATOM     29  C   UNL     1       1.258   2.890  19.065  0.00  0.00    +0.000 C 
ATOM     30  C   UNL     1       0.994   2.590  20.534  0.00  0.00    +0.000 C 
ATOM     31  C   UNL     1       2.199   3.031  21.393  0.00  0.00    +0.000 C 
ATOM     32  C   UNL     1       3.228   3.995  20.713  0.00  0.00    +0.000 C 
ATOM     33  C   UNL     1       2.393   5.056  20.032  0.00  0.00    +0.000 C 
ATOM     34  C   UNL     1       1.499   4.428  18.947  0.00  0.00    +0.000 C 
ATOM     35  C   UNL     1       4.363   3.507  19.742  0.00  0.00    +0.000 C 
ENDBRANCH  23  24
BRANCH  23  36
ATOM     36  C   UNL     1       6.187   5.954  18.115  0.00  0.00    +0.000 C 
BRANCH  36  37
ATOM     37  C   UNL     1       7.236   5.397  17.191  0.00  0.00    +0.000 C 
ATOM     38  O   UNL     1       7.931   4.431  17.473  0.00  0.00    +0.000 OA
BRANCH  37  39
ATOM     39  O   UNL     1       7.351   6.043  16.013  0.00  0.00    +0.000 OA
ATOM     40  H   UNL     1       8.037   5.658  15.412  0.00  0.00    +0.000 HD
ENDBRANCH  37  39
ENDBRANCH  36  37
ENDBRANCH  23  36
ENDBRANCH   3  23
TORSDOF 9
ENDMDL
MODEL 2
REMARK VINA RESULT:      -9.0      3.986     10.855
REMARK  Name = 
REMARK  9 active torsions:
REMARK  status: ('A' for Active; 'I' for Inactive)
REMARK    1  A    between atoms: C_2  and  C_4
REMARK    2  A    between atoms: C_7  and  C_8
REMARK    3  A    between atoms: C_11  and  C_12
REMARK    4  A    between atoms: C_12  and  C_13
REMARK    5  A    between atoms: N_15  and  C_16
REMARK    6  A    between atoms: C_16  and  C_17
REMARK    7  A    between atoms: C_16  and  C_21
REMARK    8  A    between atoms: C_17  and  C_18
REMARK    9  A    between atoms: C_18  and  O_20
REMARK                            x       y       z     vdW  Elec       q    Type
REMARK                         _______ _______ _______ _____ _____    ______ ____
ROOT
ATOM      1  C   UNL     1      -0.461  11.672  19.615  0.00  0.00    +0.000 C 
ATOM      2  O   UNL     1      -1.545  12.059  19.187  0.00  0.00    +0.000 OA
ATOM      3  N   UNL     1      -0.169  11.619  20.959  0.00  0.00    +0.000 N 
ATOM      4  H   UNL     1       0.694  11.185  21.272  0.00  0.00    +0.000 HD
ENDROOT
BRANCH   1   5
ATOM      5  C   UNL     1       0.646  11.218  18.715  0.00  0.00    +0.000 C 
BRANCH   5   9
ATOM      6  C   UNL     1       2.282   8.078  18.663  0.00  0.00    +0.000 C 
ATOM      7  N   UNL     1       1.737   8.072  19.836  0.00  0.00    +0.000 NA
ATOM      8  O   UNL     1       0.854   9.167  19.902  0.00  0.00    +0.000 OA
ATOM      9  C   UNL     1       0.696   9.710  18.585  0.00  0.00    +0.000 C 
ATOM     10  C   UNL     1       1.871   9.192  17.775  0.00  0.00    +0.000 C 
BRANCH   6  14
ATOM     11  C   UNL     1       5.280   5.287  17.434  0.00  0.00    +0.000 A 
ATOM     12  C   UNL     1       4.591   5.078  18.636  0.00  0.00    +0.000 A 
ATOM     13  C   UNL     1       3.601   5.970  19.049  0.00  0.00    +0.000 A 
ATOM     14  C   UNL     1       3.300   7.081  18.256  0.00  0.00    +0.000 A 
ATOM     15  C   UNL     1       3.972   7.281  17.044  0.00  0.00    +0.000 A 
ATOM     16  C   UNL     1       4.957   6.384  16.629  0.00  0.00    +0.000 A 
BRANCH  11  18
ATOM     17  N   UNL     1       6.185   3.589  15.995  0.00  0.00    +0.000 NA
ATOM     18  C   UNL     1       6.359   4.343  17.023  0.00  0.00    +0.000 C 
ATOM     19  N   UNL     1       7.521   4.263  17.755  0.00  0.00    +0.000 N 
ATOM     20  H   UNL     1       7.021   3.031  15.826  0.00  0.00    +0.000 HD
ATOM     21  H   UNL     1       8.030   3.399  17.623  0.00  0.00    +0.000 HD
ATOM     22  H   UNL     1       7.430   4.513  18.729  0.00  0.00    +0.000 HD
ENDBRANCH  11  18
ENDBRANCH   6  14
ENDBRANCH   5   9
ENDBRANCH   1   5
BRANCH   3  23
ATOM     23  C   UNL     1      -1.172  11.956  21.944  0.00  0.00    +0.000 C 
BRANCH  23  24
ATOM     24  C   UNL     1      -1.102  13.401  22.479  0.00  0.00    +0.000 C 
ATOM     25  O   UNL     1      -0.224  13.624  23.332  0.00  0.00    +0.000 OA
ATOM     26  N   UNL     1      -2.050  14.387  22.172  0.00  0.00    +0.000 N 
ATOM     27  C   UNL     1      -1.938  15.583  22.993  0.00  0.00    +0.000 C 
ATOM     28  C   UNL     1      -3.271  16.039  23.535  0.00  0.00    +0.000 C 
ATOM     29  C   UNL     1      -4.236  14.984  24.148  0.00  0.00    +0.000 C 
ATOM     30  C   UNL     1      -5.604  15.347  23.584  0.00  0.00    +0.000 C 
ATOM     31  C   UNL     1      -5.690  14.948  22.096  0.00  0.00    +0.000 C 
ATOM     32  C   UNL     1      -4.595  13.960  21.571  0.00  0.00    +0.000 C 
ATOM     33  C   UNL     1      -4.511  12.867  22.612  0.00  0.00    +0.000 C 
ATOM     34  C   UNL     1      -4.060  13.443  23.967  0.00  0.00    +0.000 C 
ATOM     35  C   UNL     1      -3.149  14.409  21.153  0.00  0.00    +0.000 C 
ENDBRANCH  23  24
BRANCH  23  36
ATOM     36  C   UNL     1      -1.236  10.933  23.097  0.00  0.00    +0.000 C 
BRANCH  36  37
ATOM     37  C   UNL     1      -0.419   9.694  22.847  0.00  0.00    +0.000 C 
ATOM     38  O   UNL     1      -0.916   8.600  22.615  0.00  0.00    +0.000 OA
BRANCH  37  39
ATOM     39  O   UNL     1       0.915   9.878  22.891  0.00  0.00    +0.000 OA
ATOM     40  H   UNL     1       1.394   9.532  22.097  0.00  0.00    +0.000 HD
ENDBRANCH  37  39
ENDBRANCH  36  37
ENDBRANCH  23  36
ENDBRANCH   3  23
TORSDOF 9
ENDMDL
MODEL 3
REMARK VINA RESULT:      -9.0      3.920      5.322
REMARK  Name = 
REMARK  9 active torsions:
REMARK  status: ('A' for Active; 'I' for Inactive)
REMARK    1  A    between atoms: C_2  and  C_4
REMARK    2  A    between atoms: C_7  and  C_8
REMARK    3  A    between atoms: C_11  and  C_12
REMARK    4  A    between atoms: C_12  and  C_13
REMARK    5  A    between atoms: N_15  and  C_16
REMARK    6  A    between atoms: C_16  and  C_17
REMARK    7  A    between atoms: C_16  and  C_21
REMARK    8  A    between atoms: C_17  and  C_18
REMARK    9  A    between atoms: C_18  and  O_20
REMARK                            x       y       z     vdW  Elec       q    Type
REMARK                         _______ _______ _______ _____ _____    ______ ____
ROOT
ATOM      1  C   UNL     1       1.165   7.801  20.958  0.00  0.00    +0.000 C 
ATOM      2  O   UNL     1       0.615   6.704  20.892  0.00  0.00    +0.000 OA
ATOM      3  N   UNL     1       2.009   8.270  19.978  0.00  0.00    +0.000 N 
ATOM      4  H   UNL     1       2.348   9.225  20.018  0.00  0.00    +0.000 HD
ENDROOT
BRANCH   1   5
ATOM      5  C   UNL     1       0.967   8.733  22.113  0.00  0.00    +0.000 C 
BRANCH   5   9
ATOM      6  C   UNL     1      -1.223  11.496  22.456  0.00  0.00    +0.000 C 
ATOM      7  N   UNL     1      -1.100  11.413  21.170  0.00  0.00    +0.000 NA
ATOM      8  O   UNL     1      -0.440  10.203  20.881  0.00  0.00    +0.000 OA
ATOM      9  C   UNL     1      -0.387   9.411  22.074  0.00  0.00    +0.000 C 
ATOM     10  C   UNL     1      -0.637  10.370  23.224  0.00  0.00    +0.000 C 
BRANCH   6  14
ATOM     11  C   UNL     1      -2.948  14.943  24.306  0.00  0.00    +0.000 A 
ATOM     12  C   UNL     1      -3.701  13.766  24.198  0.00  0.00    +0.000 A 
ATOM     13  C   UNL     1      -3.152  12.626  23.608  0.00  0.00    +0.000 A 
ATOM     14  C   UNL     1      -1.842  12.665  23.121  0.00  0.00    +0.000 A 
ATOM     15  C   UNL     1      -1.081  13.833  23.247  0.00  0.00    +0.000 A 
ATOM     16  C   UNL     1      -1.629  14.970  23.842  0.00  0.00    +0.000 A 
BRANCH  11  18
ATOM     17  N   UNL     1      -2.802  17.056  25.441  0.00  0.00    +0.000 NA
ATOM     18  C   UNL     1      -3.560  16.162  24.908  0.00  0.00    +0.000 C 
ATOM     19  N   UNL     1      -4.927  16.317  24.914  0.00  0.00    +0.000 N 
ATOM     20  H   UNL     1      -3.365  17.838  25.773  0.00  0.00    +0.000 HD
ATOM     21  H   UNL     1      -5.263  16.968  25.611  0.00  0.00    +0.000 HD
ATOM     22  H   UNL     1      -5.453  15.456  24.903  0.00  0.00    +0.000 HD
ENDBRANCH  11  18
ENDBRANCH   6  14
ENDBRANCH   5   9
ENDBRANCH   1   5
BRANCH   3  23
ATOM     23  C   UNL     1       2.232   7.506  18.771  0.00  0.00    +0.000 C 
BRANCH  23  24
ATOM     24  C   UNL     1       3.586   6.772  18.704  0.00  0.00    +0.000 C 
ATOM     25  O   UNL     1       4.441   7.274  17.950  0.00  0.00    +0.000 OA
ATOM     26  N   UNL     1       3.825   5.529  19.306  0.00  0.00    +0.000 N 
ATOM     27  C   UNL     1       5.071   4.906  18.890  0.00  0.00    +0.000 C 
ATOM     28  C   UNL     1       4.897   3.451  18.527  0.00  0.00    +0.000 C 
ATOM     29  C   UNL     1       3.695   3.037  17.630  0.00  0.00    +0.000 C 
ATOM     30  C   UNL     1       3.142   1.781  18.291  0.00  0.00    +0.000 C 
ATOM     31  C   UNL     1       2.389   2.149  19.587  0.00  0.00    +0.000 C 
ATOM     32  C   UNL     1       2.009   3.656  19.773  0.00  0.00    +0.000 C 
ATOM     33  C   UNL     1       1.427   4.089  18.447  0.00  0.00    +0.000 C 
ATOM     34  C   UNL     1       2.480   3.970  17.329  0.00  0.00    +0.000 C 
ATOM     35  C   UNL     1       3.015   4.746  20.295  0.00  0.00    +0.000 C 
ENDBRANCH  23  24
BRANCH  23  36
ATOM     36  C   UNL     1       1.975   8.331  17.493  0.00  0.00    +0.000 C 
BRANCH  36  37
ATOM     37  C   UNL     1       1.537   9.744  17.768  0.00  0.00    +0.000 C 
ATOM     38  O   UNL     1       2.319  10.681  17.864  0.00  0.00    +0.000 OA
BRANCH  37  39
ATOM     39  O   UNL     1       0.205   9.908  17.895  0.00  0.00    +0.000 OA
ATOM     40  H   UNL     1      -0.313   9.597  17.112  0.00  0.00    +0.000 HD
ENDBRANCH  37  39
ENDBRANCH  36  37
ENDBRANCH  23  36
ENDBRANCH   3  23
TORSDOF 9
ENDMDL
MODEL 4
REMARK VINA RESULT:      -8.9      2.602      3.251
REMARK  Name = 
REMARK  9 active torsions:
REMARK  status: ('A' for Active; 'I' for Inactive)
REMARK    1  A    between atoms: C_2  and  C_4
REMARK    2  A    between atoms: C_7  and  C_8
REMARK    3  A    between atoms: C_11  and  C_12
REMARK    4  A    between atoms: C_12  and  C_13
REMARK    5  A    between atoms: N_15  and  C_16
REMARK    6  A    between atoms: C_16  and  C_17
REMARK    7  A    between atoms: C_16  and  C_21
REMARK    8  A    between atoms: C_17  and  C_18
REMARK    9  A    between atoms: C_18  and  O_20
REMARK                            x       y       z     vdW  Elec       q    Type
REMARK                         _______ _______ _______ _____ _____    ______ ____
ROOT
ATOM      1  C   UNL     1       2.726   7.985  17.916  0.00  0.00    +0.000 C 
ATOM      2  O   UNL     1       1.755   7.394  17.449  0.00  0.00    +0.000 OA
ATOM      3  N   UNL     1       3.999   7.466  17.879  0.00  0.00    +0.000 N 
ATOM      4  H   UNL     1       4.786   8.037  18.171  0.00  0.00    +0.000 HD
ENDROOT
BRANCH   1   5
ATOM      5  C   UNL     1       2.615   9.327  18.569  0.00  0.00    +0.000 C 
BRANCH   5   9
ATOM      6  C   UNL     1      -0.127  11.110  19.928  0.00  0.00    +0.000 C 
ATOM      7  N   UNL     1       0.296  11.929  19.020  0.00  0.00    +0.000 NA
ATOM      8  O   UNL     1       1.245  11.243  18.236  0.00  0.00    +0.000 OA
ATOM      9  C   UNL     1       1.193   9.849  18.565  0.00  0.00    +0.000 C 
ATOM     10  C   UNL     1       0.493   9.763  19.910  0.00  0.00    +0.000 C 
BRANCH   6  14
ATOM     11  C   UNL     1      -2.886  12.265  22.984  0.00  0.00    +0.000 A 
ATOM     12  C   UNL     1      -3.121  12.653  21.657  0.00  0.00    +0.000 A 
ATOM     13  C   UNL     1      -2.239  12.275  20.643  0.00  0.00    +0.000 A 
ATOM     14  C   UNL     1      -1.113  11.509  20.959  0.00  0.00    +0.000 A 
ATOM     15  C   UNL     1      -0.888  11.103  22.279  0.00  0.00    +0.000 A 
ATOM     16  C   UNL     1      -1.774  11.475  23.291  0.00  0.00    +0.000 A 
BRANCH  11  18
ATOM     17  N   UNL     1      -4.654  11.863  24.561  0.00  0.00    +0.000 NA
ATOM     18  C   UNL     1      -3.819  12.705  24.060  0.00  0.00    +0.000 C 
ATOM     19  N   UNL     1      -3.804  14.010  24.496  0.00  0.00    +0.000 N 
ATOM     20  H   UNL     1      -5.192  12.305  25.304  0.00  0.00    +0.000 HD
ATOM     21  H   UNL     1      -4.657  14.299  24.957  0.00  0.00    +0.000 HD
ATOM     22  H   UNL     1      -3.486  14.684  23.815  0.00  0.00    +0.000 HD
ENDBRANCH  11  18
ENDBRANCH   6  14
ENDBRANCH   5   9
ENDBRANCH   1   5
BRANCH   3  23
ATOM     23  C   UNL     1       4.265   6.212  17.211  0.00  0.00    +0.000 C 
BRANCH  23  24
ATOM     24  C   UNL     1       4.791   5.085  18.123  0.00  0.00    +0.000 C 
ATOM     25  O   UNL     1       5.874   4.572  17.785  0.00  0.00    +0.000 OA
ATOM     26  N   UNL     1       4.052   4.533  19.178  0.00  0.00    +0.000 N 
ATOM     27  C   UNL     1       4.629   3.314  19.723  0.00  0.00    +0.000 C 
ATOM     28  C   UNL     1       3.606   2.219  19.900  0.00  0.00    +0.000 C 
ATOM     29  C   UNL     1       2.597   1.938  18.750  0.00  0.00    +0.000 C 
ATOM     30  C   UNL     1       1.257   1.767  19.453  0.00  0.00    +0.000 C 
ATOM     31  C   UNL     1       0.730   3.134  19.936  0.00  0.00    +0.000 C 
ATOM     32  C   UNL     1       1.409   4.403  19.321  0.00  0.00    +0.000 C 
ATOM     33  C   UNL     1       1.483   4.137  17.835  0.00  0.00    +0.000 C 
ATOM     34  C   UNL     1       2.364   2.907  17.548  0.00  0.00    +0.000 C 
ATOM     35  C   UNL     1       2.779   4.986  19.827  0.00  0.00    +0.000 C 
ENDBRANCH  23  24
BRANCH  23  36
ATOM     36  C   UNL     1       5.151   6.382  15.960  0.00  0.00    +0.000 C 
BRANCH  36  37
ATOM     37  C   UNL     1       6.580   6.730  16.279  0.00  0.00    +0.000 C 
ATOM     38  O   UNL     1       6.896   7.667  16.999  0.00  0.00    +0.000 OA
BRANCH  37  39
ATOM     39  O   UNL     1       7.498   5.921  15.713  0.00  0.00    +0.000 OA
ATOM     40  H   UNL     1       8.316   5.802  16.257  0.00  0.00    +0.000 HD
ENDBRANCH  37  39
ENDBRANCH  36  37
ENDBRANCH  23  36
ENDBRANCH   3  23
TORSDOF 9
ENDMDL
MODEL 5
REMARK VINA RESULT:      -8.7      3.325     10.568
REMARK  Name = 
REMARK  9 active torsions:
REMARK  status: ('A' for Active; 'I' for Inactive)
REMARK    1  A    between atoms: C_2  and  C_4
REMARK    2  A    between atoms: C_7  and  C_8
REMARK    3  A    between atoms: C_11  and  C_12
REMARK    4  A    between atoms: C_12  and  C_13
REMARK    5  A    between atoms: N_15  and  C_16
REMARK    6  A    between atoms: C_16  and  C_17
REMARK    7  A    between atoms: C_16  and  C_21
REMARK    8  A    between atoms: C_17  and  C_18
REMARK    9  A    between atoms: C_18  and  O_20
REMARK                            x       y       z     vdW  Elec       q    Type
REMARK                         _______ _______ _______ _____ _____    ______ ____
ROOT
ATOM      1  C   UNL     1      -0.525  11.484  21.110  0.00  0.00    +0.000 C 
ATOM      2  O   UNL     1       0.003  12.592  21.051  0.00  0.00    +0.000 OA
ATOM      3  N   UNL     1      -1.685  11.176  20.437  0.00  0.00    +0.000 N 
ATOM      4  H   UNL     1      -2.021  10.219  20.421  0.00  0.00    +0.000 HD
ENDROOT
BRANCH   1   5
ATOM      5  C   UNL     1       0.046  10.362  21.920  0.00  0.00    +0.000 C 
BRANCH   5   9
ATOM      6  C   UNL     1       1.725   7.792  20.153  0.00  0.00    +0.000 C 
ATOM      7  N   UNL     1       1.524   8.667  19.220  0.00  0.00    +0.000 NA
ATOM      8  O   UNL     1       1.071   9.850  19.835  0.00  0.00    +0.000 OA
ATOM      9  C   UNL     1       1.250   9.730  21.252  0.00  0.00    +0.000 C 
ATOM     10  C   UNL     1       1.409   8.245  21.529  0.00  0.00    +0.000 C 
BRANCH   6  14
ATOM     11  C   UNL     1       3.107   3.847  19.250  0.00  0.00    +0.000 A 
ATOM     12  C   UNL     1       2.468   4.094  20.472  0.00  0.00    +0.000 A 
ATOM     13  C   UNL     1       1.998   5.371  20.781  0.00  0.00    +0.000 A 
ATOM     14  C   UNL     1       2.173   6.411  19.862  0.00  0.00    +0.000 A 
ATOM     15  C   UNL     1       2.792   6.162  18.632  0.00  0.00    +0.000 A 
ATOM     16  C   UNL     1       3.255   4.882  18.321  0.00  0.00    +0.000 A 
BRANCH  11  18
ATOM     17  N   UNL     1       2.975   1.711  18.158  0.00  0.00    +0.000 NA
ATOM     18  C   UNL     1       3.633   2.485  18.949  0.00  0.00    +0.000 C 
ATOM     19  N   UNL     1       4.799   2.051  19.535  0.00  0.00    +0.000 N 
ATOM     20  H   UNL     1       3.480   0.836  18.028  0.00  0.00    +0.000 HD
ATOM     21  H   UNL     1       4.900   1.045  19.552  0.00  0.00    +0.000 HD
ATOM     22  H   UNL     1       5.013   2.476  20.425  0.00  0.00    +0.000 HD
ENDBRANCH  11  18
ENDBRANCH   6  14
ENDBRANCH   5   9
ENDBRANCH   1   5
BRANCH   3  23
ATOM     23  C   UNL     1      -2.304  12.142  19.557  0.00  0.00    +0.000 C 
BRANCH  23  24
ATOM     24  C   UNL     1      -3.819  12.338  19.766  0.00  0.00    +0.000 C 
ATOM     25  O   UNL     1      -4.517  12.334  18.735  0.00  0.00    +0.000 OA
ATOM     26  N   UNL     1      -4.395  12.667  21.001  0.00  0.00    +0.000 N 
ATOM     27  C   UNL     1      -5.791  13.066  20.909  0.00  0.00    +0.000 C 
ATOM     28  C   UNL     1      -6.086  14.324  21.690  0.00  0.00    +0.000 C 
ATOM     29  C   UNL     1      -5.112  15.531  21.568  0.00  0.00    +0.000 C 
ATOM     30  C   UNL     1      -4.936  16.023  22.999  0.00  0.00    +0.000 C 
ATOM     31  C   UNL     1      -4.044  15.045  23.792  0.00  0.00    +0.000 C 
ATOM     32  C   UNL     1      -3.215  14.015  22.954  0.00  0.00    +0.000 C 
ATOM     33  C   UNL     1      -2.595  14.818  21.834  0.00  0.00    +0.000 C 
ATOM     34  C   UNL     1      -3.687  15.432  20.939  0.00  0.00    +0.000 C 
ATOM     35  C   UNL     1      -3.815  12.679  22.383  0.00  0.00    +0.000 C 
ENDBRANCH  23  24
BRANCH  23  36
ATOM     36  C   UNL     1      -1.969  11.891  18.072  0.00  0.00    +0.000 C 
BRANCH  36  37
ATOM     37  C   UNL     1      -1.739  10.440  17.746  0.00  0.00    +0.000 C 
ATOM     38  O   UNL     1      -2.643   9.619  17.672  0.00  0.00    +0.000 OA
BRANCH  37  39
ATOM     39  O   UNL     1      -0.451  10.107  17.531  0.00  0.00    +0.000 OA
ATOM     40  H   UNL     1       0.192  10.622  18.079  0.00  0.00    +0.000 HD
ENDBRANCH  37  39
ENDBRANCH  36  37
ENDBRANCH  23  36
ENDBRANCH   3  23
TORSDOF 9
ENDMDL
MODEL 6
REMARK VINA RESULT:      -8.7      3.312     10.406
REMARK  Name = 
REMARK  9 active torsions:
REMARK  status: ('A' for Active; 'I' for Inactive)
REMARK    1  A    between atoms: C_2  and  C_4
REMARK    2  A    between atoms: C_7  and  C_8
REMARK    3  A    between atoms: C_11  and  C_12
REMARK    4  A    between atoms: C_12  and  C_13
REMARK    5  A    between atoms: N_15  and  C_16
REMARK    6  A    between atoms: C_16  and  C_17
REMARK    7  A    between atoms: C_16  and  C_21
REMARK    8  A    between atoms: C_17  and  C_18
REMARK    9  A    between atoms: C_18  and  O_20
REMARK                            x       y       z     vdW  Elec       q    Type
REMARK                         _______ _______ _______ _____ _____    ______ ____
ROOT
ATOM      1  C   UNL     1      -0.683  10.538  19.053  0.00  0.00    +0.000 C 
ATOM      2  O   UNL     1      -1.907  10.596  18.966  0.00  0.00    +0.000 OA
ATOM      3  N   UNL     1       0.007  11.007  20.147  0.00  0.00    +0.000 N 
ATOM      4  H   UNL     1       1.004  10.835  20.228  0.00  0.00    +0.000 HD
ENDROOT
BRANCH   1   5
ATOM      5  C   UNL     1       0.175   9.951  17.976  0.00  0.00    +0.000 C 
BRANCH   5   9
ATOM      6  C   UNL     1       2.540   7.341  18.352  0.00  0.00    +0.000 C 
ATOM      7  N   UNL     1       3.153   8.138  17.536  0.00  0.00    +0.000 NA
ATOM      8  O   UNL     1       2.421   9.340  17.483  0.00  0.00    +0.000 OA
ATOM      9  C   UNL     1       1.441   9.328  18.529  0.00  0.00    +0.000 C 
ATOM     10  C   UNL     1       1.291   7.876  18.946  0.00  0.00    +0.000 C 
BRANCH   6  14
ATOM     11  C   UNL     1       3.835   3.326  19.049  0.00  0.00    +0.000 A 
ATOM     12  C   UNL     1       4.731   4.386  19.246  0.00  0.00    +0.000 A 
ATOM     13  C   UNL     1       4.324   5.705  19.036  0.00  0.00    +0.000 A 
ATOM     14  C   UNL     1       3.014   5.964  18.622  0.00  0.00    +0.000 A 
ATOM     15  C   UNL     1       2.112   4.909  18.445  0.00  0.00    +0.000 A 
ATOM     16  C   UNL     1       2.518   3.591  18.662  0.00  0.00    +0.000 A 
BRANCH  11  18
ATOM     17  N   UNL     1       5.054   1.635  20.245  0.00  0.00    +0.000 NA
ATOM     18  C   UNL     1       4.295   1.921  19.245  0.00  0.00    +0.000 C 
ATOM     19  N   UNL     1       3.930   0.945  18.348  0.00  0.00    +0.000 N 
ATOM     20  H   UNL     1       5.250   0.635  20.259  0.00  0.00    +0.000 HD
ATOM     21  H   UNL     1       4.534   0.133  18.357  0.00  0.00    +0.000 HD
ATOM     22  H   UNL     1       3.738   1.274  17.413  0.00  0.00    +0.000 HD
ENDBRANCH  11  18
ENDBRANCH   6  14
ENDBRANCH   5   9
ENDBRANCH   1   5
BRANCH   3  23
ATOM     23  C   UNL     1      -0.700  11.531  21.295  0.00  0.00    +0.000 C 
BRANCH  23  24
ATOM     24  C   UNL     1      -0.553  13.050  21.514  0.00  0.00    +0.000 C 
ATOM     25  O   UNL     1       0.540  13.431  21.974  0.00  0.00    +0.000 OA
ATOM     26  N   UNL     1      -1.609  13.960  21.373  0.00  0.00    +0.000 N 
ATOM     27  C   UNL     1      -1.313  15.288  21.886  0.00  0.00    +0.000 C 
ATOM     28  C   UNL     1      -2.421  15.835  22.752  0.00  0.00    +0.000 C 
ATOM     29  C   UNL     1      -3.064  14.910  23.826  0.00  0.00    +0.000 C 
ATOM     30  C   UNL     1      -4.561  15.159  23.695  0.00  0.00    +0.000 C 
ATOM     31  C   UNL     1      -5.102  14.490  22.414  0.00  0.00    +0.000 C 
ATOM     32  C   UNL     1      -4.179  13.423  21.737  0.00  0.00    +0.000 C 
ATOM     33  C   UNL     1      -3.690  12.544  22.865  0.00  0.00    +0.000 C 
ATOM     34  C   UNL     1      -2.858  13.363  23.869  0.00  0.00    +0.000 C 
ATOM     35  C   UNL     1      -2.980  13.790  20.789  0.00  0.00    +0.000 C 
ENDBRANCH  23  24
BRANCH  23  36
ATOM     36  C   UNL     1      -0.397  10.745  22.587  0.00  0.00    +0.000 C 
BRANCH  36  37
ATOM     37  C   UNL     1       0.222   9.396  22.338  0.00  0.00    +0.000 C 
ATOM     38  O   UNL     1      -0.415   8.428  21.949  0.00  0.00    +0.000 OA
BRANCH  37  39
ATOM     39  O   UNL     1       1.549   9.332  22.572  0.00  0.00    +0.000 OA
ATOM     40  H   UNL     1       2.103   9.404  21.755  0.00  0.00    +0.000 HD
ENDBRANCH  37  39
ENDBRANCH  36  37
ENDBRANCH  23  36
ENDBRANCH   3  23
TORSDOF 9
ENDMDL
MODEL 7
REMARK VINA RESULT:      -8.6      2.824      3.205
REMARK  Name = 
REMARK  9 active torsions:
REMARK  status: ('A' for Active; 'I' for Inactive)
REMARK    1  A    between atoms: C_2  and  C_4
REMARK    2  A    between atoms: C_7  and  C_8
REMARK    3  A    between atoms: C_11  and  C_12
REMARK    4  A    between atoms: C_12  and  C_13
REMARK    5  A    between atoms: N_15  and  C_16
REMARK    6  A    between atoms: C_16  and  C_17
REMARK    7  A    between atoms: C_16  and  C_21
REMARK    8  A    between atoms: C_17  and  C_18
REMARK    9  A    between atoms: C_18  and  O_20
REMARK                            x       y       z     vdW  Elec       q    Type
REMARK                         _______ _______ _______ _____ _____    ______ ____
ROOT
ATOM      1  C   UNL     1       3.629   7.307  17.233  0.00  0.00    +0.000 C 
ATOM      2  O   UNL     1       4.431   7.556  16.337  0.00  0.00    +0.000 OA
ATOM      3  N   UNL     1       3.808   6.276  18.125  0.00  0.00    +0.000 N 
ATOM      4  H   UNL     1       3.182   6.178  18.918  0.00  0.00    +0.000 HD
ENDROOT
BRANCH   1   5
ATOM      5  C   UNL     1       2.380   8.106  17.442  0.00  0.00    +0.000 C 
BRANCH   5   9
ATOM      6  C   UNL     1       0.838   9.484  20.317  0.00  0.00    +0.000 C 
ATOM      7  N   UNL     1       1.337   8.386  20.786  0.00  0.00    +0.000 NA
ATOM      8  O   UNL     1       2.186   7.848  19.798  0.00  0.00    +0.000 OA
ATOM      9  C   UNL     1       2.379   8.830  18.772  0.00  0.00    +0.000 C 
ATOM     10  C   UNL     1       1.251   9.833  18.936  0.00  0.00    +0.000 C 
BRANCH   6  14
ATOM     11  C   UNL     1      -1.905  11.826  22.613  0.00  0.00    +0.000 A 
ATOM     12  C   UNL     1      -1.674  12.151  21.270  0.00  0.00    +0.000 A 
ATOM     13  C   UNL     1      -0.791  11.392  20.500  0.00  0.00    +0.000 A 
ATOM     14  C   UNL     1      -0.133  10.302  21.078  0.00  0.00    +0.000 A 
ATOM     15  C   UNL     1      -0.379   9.963  22.414  0.00  0.00    +0.000 A 
ATOM     16  C   UNL     1      -1.267  10.719  23.181  0.00  0.00    +0.000 A 
BRANCH  11  18
ATOM     17  N   UNL     1      -2.641  13.940  23.486  0.00  0.00    +0.000 NA
ATOM     18  C   UNL     1      -2.824  12.667  23.432  0.00  0.00    +0.000 C 
ATOM     19  N   UNL     1      -3.845  12.082  24.145  0.00  0.00    +0.000 N 
ATOM     20  H   UNL     1      -3.368  14.374  24.053  0.00  0.00    +0.000 HD
ATOM     21  H   UNL     1      -4.190  12.649  24.908  0.00  0.00    +0.000 HD
ATOM     22  H   UNL     1      -3.680  11.124  24.418  0.00  0.00    +0.000 HD
ENDBRANCH  11  18
ENDBRANCH   6  14
ENDBRANCH   5   9
ENDBRANCH   1   5
BRANCH   3  23
ATOM     23  C   UNL     1       5.008   5.470  18.088  0.00  0.00    +0.000 C 
BRANCH  23  24
ATOM     24  C   UNL     1       4.778   3.969  17.818  0.00  0.00    +0.000 C 
ATOM     25  O   UNL     1       5.022   3.580  16.661  0.00  0.00    +0.000 OA
ATOM     26  N   UNL     1       4.179   3.098  18.738  0.00  0.00    +0.000 N 
ATOM     27  C   UNL     1       3.819   1.806  18.176  0.00  0.00    +0.000 C 
ATOM     28  C   UNL     1       2.418   1.383  18.545  0.00  0.00    +0.000 C 
ATOM     29  C   UNL     1       1.265   2.422  18.436  0.00  0.00    +0.000 C 
ATOM     30  C   UNL     1       0.458   2.230  19.713  0.00  0.00    +0.000 C 
ATOM     31  C   UNL     1       1.224   2.813  20.920  0.00  0.00    +0.000 C 
ATOM     32  C   UNL     1       2.414   3.778  20.595  0.00  0.00    +0.000 C 
ATOM     33  C   UNL     1       1.884   4.726  19.543  0.00  0.00    +0.000 C 
ATOM     34  C   UNL     1       1.497   3.957  18.266  0.00  0.00    +0.000 C 
ATOM     35  C   UNL     1       3.848   3.280  20.189  0.00  0.00    +0.000 C 
ENDBRANCH  23  24
BRANCH  23  36
ATOM     36  C   UNL     1       5.906   5.688  19.323  0.00  0.00    +0.000 C 
BRANCH  36  37
ATOM     37  C   UNL     1       7.374   5.743  18.996  0.00  0.00    +0.000 C 
ATOM     38  O   UNL     1       8.234   5.215  19.687  0.00  0.00    +0.000 OA
BRANCH  37  39
ATOM     39  O   UNL     1       7.677   6.419  17.869  0.00  0.00    +0.000 OA
ATOM     40  H   UNL     1       7.567   7.399  17.949  0.00  0.00    +0.000 HD
ENDBRANCH  37  39
ENDBRANCH  36  37
ENDBRANCH  23  36
ENDBRANCH   3  23
TORSDOF 9
ENDMDL
MODEL 8
REMARK VINA RESULT:      -8.6      3.754     10.759
REMARK  Name = 
REMARK  9 active torsions:
REMARK  status: ('A' for Active; 'I' for Inactive)
REMARK    1  A    between atoms: C_2  and  C_4
REMARK    2  A    between atoms: C_7  and  C_8
REMARK    3  A    between atoms: C_11  and  C_12
REMARK    4  A    between atoms: C_12  and  C_13
REMARK    5  A    between atoms: N_15  and  C_16
REMARK    6  A    between atoms: C_16  and  C_17
REMARK    7  A    between atoms: C_16  and  C_21
REMARK    8  A    between atoms: C_17  and  C_18
REMARK    9  A    between atoms: C_18  and  O_20
REMARK                            x       y       z     vdW  Elec       q    Type
REMARK                         _______ _______ _______ _____ _____    ______ ____
ROOT
ATOM      1  C   UNL     1      -0.544  10.083  21.553  0.00  0.00    +0.000 C 
ATOM      2  O   UNL     1      -0.614  10.406  22.737  0.00  0.00    +0.000 OA
ATOM      3  N   UNL     1      -0.942  10.914  20.532  0.00  0.00    +0.000 N 
ATOM      4  H   UNL     1      -0.759  10.654  19.568  0.00  0.00    +0.000 HD
ENDROOT
BRANCH   1   5
ATOM      5  C   UNL     1      -0.015   8.755  21.110  0.00  0.00    +0.000 C 
BRANCH   5   9
ATOM      6  C   UNL     1       2.421   7.783  18.729  0.00  0.00    +0.000 C 
ATOM      7  N   UNL     1       1.883   8.810  18.153  0.00  0.00    +0.000 NA
ATOM      8  O   UNL     1       1.053   9.443  19.099  0.00  0.00    +0.000 OA
ATOM      9  C   UNL     1       1.312   8.879  20.390  0.00  0.00    +0.000 C 
ATOM     10  C   UNL     1       2.010   7.555  20.136  0.00  0.00    +0.000 C 
BRANCH   6  14
ATOM     11  C   UNL     1       5.130   5.195  16.669  0.00  0.00    +0.000 A 
ATOM     12  C   UNL     1       4.153   4.646  17.510  0.00  0.00    +0.000 A 
ATOM     13  C   UNL     1       3.251   5.473  18.182  0.00  0.00    +0.000 A 
ATOM     14  C   UNL     1       3.330   6.858  18.014  0.00  0.00    +0.000 A 
ATOM     15  C   UNL     1       4.292   7.407  17.159  0.00  0.00    +0.000 A 
ATOM     16  C   UNL     1       5.189   6.579  16.482  0.00  0.00    +0.000 A 
BRANCH  11  18
ATOM     17  N   UNL     1       7.231   4.779  15.580  0.00  0.00    +0.000 NA
ATOM     18  C   UNL     1       6.108   4.300  15.985  0.00  0.00    +0.000 C 
ATOM     19  N   UNL     1       5.797   2.978  15.767  0.00  0.00    +0.000 N 
ATOM     20  H   UNL     1       7.798   4.040  15.169  0.00  0.00    +0.000 HD
ATOM     21  H   UNL     1       6.338   2.546  15.029  0.00  0.00    +0.000 HD
ATOM     22  H   UNL     1       4.811   2.778  15.692  0.00  0.00    +0.000 HD
ENDBRANCH  11  18
ENDBRANCH   6  14
ENDBRANCH   5   9
ENDBRANCH   1   5
BRANCH   3  23
ATOM     23  C   UNL     1      -1.403  12.256  20.811  0.00  0.00    +0.000 C 
BRANCH  23  24
ATOM     24  C   UNL     1      -2.931  12.403  20.964  0.00  0.00    +0.000 C 
ATOM     25  O   UNL     1      -3.589  12.372  19.908  0.00  0.00    +0.000 OA
ATOM     26  N   UNL     1      -3.562  12.717  22.175  0.00  0.00    +0.000 N 
ATOM     27  C   UNL     1      -4.965  13.070  22.031  0.00  0.00    +0.000 C 
ATOM     28  C   UNL     1      -5.330  14.320  22.794  0.00  0.00    +0.000 C 
ATOM     29  C   UNL     1      -4.392  15.558  22.703  0.00  0.00    +0.000 C 
ATOM     30  C   UNL     1      -4.285  16.060  24.136  0.00  0.00    +0.000 C 
ATOM     31  C   UNL     1      -3.391  15.115  24.966  0.00  0.00    +0.000 C 
ATOM     32  C   UNL     1      -2.499  14.110  24.164  0.00  0.00    +0.000 C 
ATOM     33  C   UNL     1      -1.864  14.929  23.063  0.00  0.00    +0.000 C 
ATOM     34  C   UNL     1      -2.942  15.504  22.126  0.00  0.00    +0.000 C 
ATOM     35  C   UNL     1      -3.033  12.753  23.577  0.00  0.00    +0.000 C 
ENDBRANCH  23  24
BRANCH  23  36
ATOM     36  C   UNL     1      -0.834  13.295  19.823  0.00  0.00    +0.000 C 
BRANCH  36  37
ATOM     37  C   UNL     1      -0.414  12.704  18.505  0.00  0.00    +0.000 C 
ATOM     38  O   UNL     1      -1.199  12.464  17.598  0.00  0.00    +0.000 OA
BRANCH  37  39
ATOM     39  O   UNL     1       0.907  12.460  18.390  0.00  0.00    +0.000 OA
ATOM     40  H   UNL     1       1.463  12.953  19.044  0.00  0.00    +0.000 HD
ENDBRANCH  37  39
ENDBRANCH  36  37
ENDBRANCH  23  36
ENDBRANCH   3  23
TORSDOF 9
ENDMDL
MODEL 9
REMARK VINA RESULT:      -8.6      0.446      1.153
REMARK  Name = 
REMARK  9 active torsions:
REMARK  status: ('A' for Active; 'I' for Inactive)
REMARK    1  A    between atoms: C_2  and  C_4
REMARK    2  A    between atoms: C_7  and  C_8
REMARK    3  A    between atoms: C_11  and  C_12
REMARK    4  A    between atoms: C_12  and  C_13
REMARK    5  A    between atoms: N_15  and  C_16
REMARK    6  A    between atoms: C_16  and  C_17
REMARK    7  A    between atoms: C_16  and  C_21
REMARK    8  A    between atoms: C_17  and  C_18
REMARK    9  A    between atoms: C_18  and  O_20
REMARK                            x       y       z     vdW  Elec       q    Type
REMARK                         _______ _______ _______ _____ _____    ______ ____
ROOT
ATOM      1  C   UNL     1       3.048   7.815  17.781  0.00  0.00    +0.000 C 
ATOM      2  O   UNL     1       3.294   8.264  16.665  0.00  0.00    +0.000 OA
ATOM      3  N   UNL     1       3.596   6.643  18.248  0.00  0.00    +0.000 N 
ATOM      4  H   UNL     1       3.457   6.369  19.215  0.00  0.00    +0.000 HD
ENDROOT
BRANCH   1   5
ATOM      5  C   UNL     1       2.128   8.502  18.742  0.00  0.00    +0.000 C 
BRANCH   5   9
ATOM      6  C   UNL     1      -0.687  10.625  18.406  0.00  0.00    +0.000 C 
ATOM      7  N   UNL     1       0.191  11.429  18.913  0.00  0.00    +0.000 NA
ATOM      8  O   UNL     1       1.438  10.774  18.880  0.00  0.00    +0.000 OA
ATOM      9  C   UNL     1       1.317   9.594  18.076  0.00  0.00    +0.000 C 
ATOM     10  C   UNL     1      -0.169   9.300  17.985  0.00  0.00    +0.000 C 
BRANCH   6  14
ATOM     11  C   UNL     1      -4.810  11.739  18.187  0.00  0.00    +0.000 A 
ATOM     12  C   UNL     1      -4.289  10.827  17.259  0.00  0.00    +0.000 A 
ATOM     13  C   UNL     1      -2.949  10.441  17.321  0.00  0.00    +0.000 A 
ATOM     14  C   UNL     1      -2.124  10.973  18.316  0.00  0.00    +0.000 A 
ATOM     15  C   UNL     1      -2.647  11.868  19.257  0.00  0.00    +0.000 A 
ATOM     16  C   UNL     1      -3.988  12.248  19.198  0.00  0.00    +0.000 A 
BRANCH  11  18
ATOM     17  N   UNL     1      -6.764  12.346  16.927  0.00  0.00    +0.000 NA
ATOM     18  C   UNL     1      -6.235  12.167  18.087  0.00  0.00    +0.000 C 
ATOM     19  N   UNL     1      -6.969  12.394  19.228  0.00  0.00    +0.000 N 
ATOM     20  H   UNL     1      -7.745  12.600  17.027  0.00  0.00    +0.000 HD
ATOM     21  H   UNL     1      -7.777  12.985  19.085  0.00  0.00    +0.000 HD
ATOM     22  H   UNL     1      -6.428  12.667  20.036  0.00  0.00    +0.000 HD
ENDBRANCH  11  18
ENDBRANCH   6  14
ENDBRANCH   5   9
ENDBRANCH   1   5
BRANCH   3  23
ATOM     23  C   UNL     1       4.560   5.913  17.455  0.00  0.00    +0.000 C 
BRANCH  23  24
ATOM     24  C   UNL     1       4.256   4.412  17.276  0.00  0.00    +0.000 C 
ATOM     25  O   UNL     1       4.032   4.036  16.111  0.00  0.00    +0.000 OA
ATOM     26  N   UNL     1       4.073   3.525  18.346  0.00  0.00    +0.000 N 
ATOM     27  C   UNL     1       3.534   2.234  17.952  0.00  0.00    +0.000 C 
ATOM     28  C   UNL     1       2.392   1.789  18.833  0.00  0.00    +0.000 C 
ATOM     29  C   UNL     1       1.279   2.813  19.198  0.00  0.00    +0.000 C 
ATOM     30  C   UNL     1       1.038   2.599  20.687  0.00  0.00    +0.000 C 
ATOM     31  C   UNL     1       2.209   3.182  21.505  0.00  0.00    +0.000 C 
ATOM     32  C   UNL     1       3.168   4.165  20.754  0.00  0.00    +0.000 C 
ATOM     33  C   UNL     1       2.261   5.115  20.005  0.00  0.00    +0.000 C 
ATOM     34  C   UNL     1       1.413   4.352  18.971  0.00  0.00    +0.000 C 
ATOM     35  C   UNL     1       4.334   3.690  19.813  0.00  0.00    +0.000 C 
ENDBRANCH  23  24
BRANCH  23  36
ATOM     36  C   UNL     1       6.010   6.141  17.928  0.00  0.00    +0.000 C 
BRANCH  36  37
ATOM     37  C   UNL     1       7.006   5.219  17.279  0.00  0.00    +0.000 C 
ATOM     38  O   UNL     1       7.381   5.346  16.121  0.00  0.00    +0.000 OA
BRANCH  37  39
ATOM     39  O   UNL     1       7.467   4.234  18.076  0.00  0.00    +0.000 OA
ATOM     40  H   UNL     1       8.085   3.608  17.622  0.00  0.00    +0.000 HD
ENDBRANCH  37  39
ENDBRANCH  36  37
ENDBRANCH  23  36
ENDBRANCH   3  23
TORSDOF 9
ENDMDL
