MODEL 1
REMARK VINA RESULT:      -6.6      0.000      0.000
REMARK  Name = 
REMARK  8 active torsions:
REMARK  status: ('A' for Active; 'I' for Inactive)
REMARK    1  A    between atoms: C_1  and  C_2
REMARK    2  A    between atoms: C_2  and  C_3
REMARK    3  A    between atoms: C_3  and  C_4
REMARK    4  A    between atoms: C_3  and  N_5
REMARK    5  A    between atoms: C_6  and  C_8
REMARK    6  A    between atoms: C_8  and  C_9
REMARK    7  A    between atoms: C_9  and  C_10
REMARK    8  A    between atoms: C_10  and  C_11
REMARK                            x       y       z     vdW  Elec       q    Type
REMARK                         _______ _______ _______ _____ _____    ______ ____
ROOT
ATOM      1  C   UNL     1       6.543   4.714  15.537  0.00  0.00    +0.000 C 
ENDROOT
BRANCH   1   3
ATOM      2  N   UNL     1       5.885   3.643  13.449  0.00  0.00    +0.000 N 
ATOM      3  C   UNL     1       6.696   4.596  14.027  0.00  0.00    +0.000 C 
ATOM      4  O   UNL     1       7.466   5.294  13.373  0.00  0.00    +0.000 OA
ATOM      5  H   UNL     1       5.394   2.990  14.050  0.00  0.00    +0.000 HD
BRANCH   2   6
ATOM      6  C   UNL     1       5.920   3.391  12.013  0.00  0.00    +0.000 C 
ATOM      7  C   UNL     1       4.514   3.083  11.509  0.00  0.00    +0.000 C 
BRANCH   6   9
ATOM      8  C   UNL     1       6.281   1.045  11.047  0.00  0.00    +0.000 C 
ATOM      9  C   UNL     1       6.926   2.270  11.685  0.00  0.00    +0.000 C 
ENDBRANCH   6   9
ENDBRANCH   2   6
ENDBRANCH   1   3
BRANCH   1  10
ATOM     10  C   UNL     1       5.266   5.485  15.877  0.00  0.00    +0.000 C 
BRANCH  10  11
ATOM     11  C   UNL     1       4.892   5.441  17.358  0.00  0.00    +0.000 C 
BRANCH  11  12
ATOM     12  C   UNL     1       3.772   4.447  17.566  0.00  0.00    +0.000 A 
ATOM     13  C   UNL     1       2.464   4.889  17.811  0.00  0.00    +0.000 A 
ATOM     14  C   UNL     1       1.454   3.975  18.116  0.00  0.00    +0.000 A 
ATOM     15  C   UNL     1       1.741   2.612  18.180  0.00  0.00    +0.000 A 
ATOM     16  C   UNL     1       3.034   2.161  17.929  0.00  0.00    +0.000 A 
ATOM     17  C   UNL     1       4.046   3.074  17.622  0.00  0.00    +0.000 A 
ENDBRANCH  11  12
ENDBRANCH  10  11
ENDBRANCH   1  10
TORSDOF 6
ENDMDL
MODEL 2
REMARK VINA RESULT:      -6.6      2.808      4.828
REMARK  Name = 
REMARK  8 active torsions:
REMARK  status: ('A' for Active; 'I' for Inactive)
REMARK    1  A    between atoms: C_1  and  C_2
REMARK    2  A    between atoms: C_2  and  C_3
REMARK    3  A    between atoms: C_3  and  C_4
REMARK    4  A    between atoms: C_3  and  N_5
REMARK    5  A    between atoms: C_6  and  C_8
REMARK    6  A    between atoms: C_8  and  C_9
REMARK    7  A    between atoms: C_9  and  C_10
REMARK    8  A    between atoms: C_10  and  C_11
REMARK                            x       y       z     vdW  Elec       q    Type
REMARK                         _______ _______ _______ _____ _____    ______ ____
ROOT
ATOM      1  C   UNL     1       5.284   3.972  15.712  0.00  0.00    +0.000 C 
ENDROOT
BRANCH   1   3
ATOM      2  N   UNL     1       6.499   5.383  17.284  0.00  0.00    +0.000 N 
ATOM      3  C   UNL     1       6.529   4.783  16.044  0.00  0.00    +0.000 C 
ATOM      4  O   UNL     1       7.486   4.888  15.281  0.00  0.00    +0.000 OA
ATOM      5  H   UNL     1       5.625   5.398  17.798  0.00  0.00    +0.000 HD
BRANCH   2   6
ATOM      6  C   UNL     1       7.606   6.210  17.750  0.00  0.00    +0.000 C 
ATOM      7  C   UNL     1       7.836   5.972  19.239  0.00  0.00    +0.000 C 
BRANCH   6   9
ATOM      8  C   UNL     1       8.300   8.647  18.135  0.00  0.00    +0.000 C 
ATOM      9  C   UNL     1       7.350   7.694  17.421  0.00  0.00    +0.000 C 
ENDBRANCH   6   9
ENDBRANCH   2   6
ENDBRANCH   1   3
BRANCH   1  10
ATOM     10  C   UNL     1       4.482   3.696  16.985  0.00  0.00    +0.000 C 
BRANCH  10  11
ATOM     11  C   UNL     1       2.974   3.597  16.756  0.00  0.00    +0.000 C 
BRANCH  11  12
ATOM     12  C   UNL     1       2.250   3.812  18.066  0.00  0.00    +0.000 A 
ATOM     13  C   UNL     1       2.473   4.972  18.822  0.00  0.00    +0.000 A 
ATOM     14  C   UNL     1       1.893   5.117  20.083  0.00  0.00    +0.000 A 
ATOM     15  C   UNL     1       1.086   4.106  20.602  0.00  0.00    +0.000 A 
ATOM     16  C   UNL     1       0.849   2.954  19.856  0.00  0.00    +0.000 A 
ATOM     17  C   UNL     1       1.427   2.807  18.593  0.00  0.00    +0.000 A 
ENDBRANCH  11  12
ENDBRANCH  10  11
ENDBRANCH   1  10
TORSDOF 6
ENDMDL
MODEL 3
REMARK VINA RESULT:      -6.4      0.526      1.265
REMARK  Name = 
REMARK  8 active torsions:
REMARK  status: ('A' for Active; 'I' for Inactive)
REMARK    1  A    between atoms: C_1  and  C_2
REMARK    2  A    between atoms: C_2  and  C_3
REMARK    3  A    between atoms: C_3  and  C_4
REMARK    4  A    between atoms: C_3  and  N_5
REMARK    5  A    between atoms: C_6  and  C_8
REMARK    6  A    between atoms: C_8  and  C_9
REMARK    7  A    between atoms: C_9  and  C_10
REMARK    8  A    between atoms: C_10  and  C_11
REMARK                            x       y       z     vdW  Elec       q    Type
REMARK                         _______ _______ _______ _____ _____    ______ ____
ROOT
ATOM      1  C   UNL     1       6.291   4.101  15.827  0.00  0.00    +0.000 C 
ENDROOT
BRANCH   1   3
ATOM      2  N   UNL     1       5.853   3.365  13.546  0.00  0.00    +0.000 N 
ATOM      3  C   UNL     1       6.460   4.322  14.330  0.00  0.00    +0.000 C 
ATOM      4  O   UNL     1       7.075   5.273  13.857  0.00  0.00    +0.000 OA
ATOM      5  H   UNL     1       5.503   2.522  13.987  0.00  0.00    +0.000 HD
BRANCH   2   6
ATOM      6  C   UNL     1       5.933   3.419  12.091  0.00  0.00    +0.000 C 
ATOM      7  C   UNL     1       4.560   3.144  11.488  0.00  0.00    +0.000 C 
BRANCH   6   9
ATOM      8  C   UNL     1       6.443   1.149  11.016  0.00  0.00    +0.000 C 
ATOM      9  C   UNL     1       7.013   2.448  11.572  0.00  0.00    +0.000 C 
ENDBRANCH   6   9
ENDBRANCH   2   6
ENDBRANCH   1   3
BRANCH   1  10
ATOM     10  C   UNL     1       5.584   5.303  16.459  0.00  0.00    +0.000 C 
BRANCH  10  11
ATOM     11  C   UNL     1       5.286   5.132  17.947  0.00  0.00    +0.000 C 
BRANCH  11  12
ATOM     12  C   UNL     1       3.997   4.359  18.118  0.00  0.00    +0.000 A 
ATOM     13  C   UNL     1       4.019   3.024  18.543  0.00  0.00    +0.000 A 
ATOM     14  C   UNL     1       2.841   2.277  18.590  0.00  0.00    +0.000 A 
ATOM     15  C   UNL     1       1.630   2.857  18.214  0.00  0.00    +0.000 A 
ATOM     16  C   UNL     1       1.595   4.186  17.800  0.00  0.00    +0.000 A 
ATOM     17  C   UNL     1       2.773   4.935  17.753  0.00  0.00    +0.000 A 
ENDBRANCH  11  12
ENDBRANCH  10  11
ENDBRANCH   1  10
TORSDOF 6
ENDMDL
MODEL 4
REMARK VINA RESULT:      -6.4      1.639      2.481
REMARK  Name = 
REMARK  8 active torsions:
REMARK  status: ('A' for Active; 'I' for Inactive)
REMARK    1  A    between atoms: C_1  and  C_2
REMARK    2  A    between atoms: C_2  and  C_3
REMARK    3  A    between atoms: C_3  and  C_4
REMARK    4  A    between atoms: C_3  and  N_5
REMARK    5  A    between atoms: C_6  and  C_8
REMARK    6  A    between atoms: C_8  and  C_9
REMARK    7  A    between atoms: C_9  and  C_10
REMARK    8  A    between atoms: C_10  and  C_11
REMARK                            x       y       z     vdW  Elec       q    Type
REMARK                         _______ _______ _______ _____ _____    ______ ____
ROOT
ATOM      1  C   UNL     1       5.082   5.052  16.184  0.00  0.00    +0.000 C 
ENDROOT
BRANCH   1   3
ATOM      2  N   UNL     1       5.704   4.229  13.977  0.00  0.00    +0.000 N 
ATOM      3  C   UNL     1       6.162   4.551  15.235  0.00  0.00    +0.000 C 
ATOM      4  O   UNL     1       7.344   4.452  15.556  0.00  0.00    +0.000 OA
ATOM      5  H   UNL     1       4.704   4.175  13.820  0.00  0.00    +0.000 HD
BRANCH   2   6
ATOM      6  C   UNL     1       6.607   3.717  12.952  0.00  0.00    +0.000 C 
ATOM      7  C   UNL     1       7.341   4.875  12.286  0.00  0.00    +0.000 C 
BRANCH   6   9
ATOM      8  C   UNL     1       4.430   3.343  11.655  0.00  0.00    +0.000 C 
ATOM      9  C   UNL     1       5.840   2.842  11.941  0.00  0.00    +0.000 C 
ENDBRANCH   6   9
ENDBRANCH   2   6
ENDBRANCH   1   3
BRANCH   1  10
ATOM     10  C   UNL     1       4.721   3.960  17.193  0.00  0.00    +0.000 C 
BRANCH  10  11
ATOM     11  C   UNL     1       3.246   3.561  17.172  0.00  0.00    +0.000 C 
BRANCH  11  12
ATOM     12  C   UNL     1       2.716   3.513  18.587  0.00  0.00    +0.000 A 
ATOM     13  C   UNL     1       3.457   2.894  19.605  0.00  0.00    +0.000 A 
ATOM     14  C   UNL     1       2.917   2.748  20.884  0.00  0.00    +0.000 A 
ATOM     15  C   UNL     1       1.634   3.219  21.159  0.00  0.00    +0.000 A 
ATOM     16  C   UNL     1       0.894   3.845  20.159  0.00  0.00    +0.000 A 
ATOM     17  C   UNL     1       1.432   3.992  18.878  0.00  0.00    +0.000 A 
ENDBRANCH  11  12
ENDBRANCH  10  11
ENDBRANCH   1  10
TORSDOF 6
ENDMDL
MODEL 5
REMARK VINA RESULT:      -6.4      1.768      2.735
REMARK  Name = 
REMARK  8 active torsions:
REMARK  status: ('A' for Active; 'I' for Inactive)
REMARK    1  A    between atoms: C_1  and  C_2
REMARK    2  A    between atoms: C_2  and  C_3
REMARK    3  A    between atoms: C_3  and  C_4
REMARK    4  A    between atoms: C_3  and  N_5
REMARK    5  A    between atoms: C_6  and  C_8
REMARK    6  A    between atoms: C_8  and  C_9
REMARK    7  A    between atoms: C_9  and  C_10
REMARK    8  A    between atoms: C_10  and  C_11
REMARK                            x       y       z     vdW  Elec       q    Type
REMARK                         _______ _______ _______ _____ _____    ______ ____
ROOT
ATOM      1  C   UNL     1       5.718   5.568  17.950  0.00  0.00    +0.000 C 
ENDROOT
BRANCH   1   3
ATOM      2  N   UNL     1       5.887   4.862  15.624  0.00  0.00    +0.000 N 
ATOM      3  C   UNL     1       6.517   4.884  16.850  0.00  0.00    +0.000 C 
ATOM      4  O   UNL     1       7.632   4.402  17.030  0.00  0.00    +0.000 OA
ATOM      5  H   UNL     1       4.909   5.125  15.573  0.00  0.00    +0.000 HD
BRANCH   2   6
ATOM      6  C   UNL     1       6.508   4.229  14.466  0.00  0.00    +0.000 C 
ATOM      7  C   UNL     1       7.459   5.211  13.790  0.00  0.00    +0.000 C 
BRANCH   6   9
ATOM      8  C   UNL     1       5.991   3.263  12.150  0.00  0.00    +0.000 C 
ATOM      9  C   UNL     1       5.434   3.686  13.504  0.00  0.00    +0.000 C 
ENDBRANCH   6   9
ENDBRANCH   2   6
ENDBRANCH   1   3
BRANCH   1  10
ATOM     10  C   UNL     1       4.345   5.988  17.420  0.00  0.00    +0.000 C 
BRANCH  10  11
ATOM     11  C   UNL     1       3.354   6.384  18.514  0.00  0.00    +0.000 C 
BRANCH  11  12
ATOM     12  C   UNL     1       2.537   5.178  18.917  0.00  0.00    +0.000 A 
ATOM     13  C   UNL     1       2.167   4.218  17.965  0.00  0.00    +0.000 A 
ATOM     14  C   UNL     1       1.318   3.166  18.313  0.00  0.00    +0.000 A 
ATOM     15  C   UNL     1       0.831   3.063  19.615  0.00  0.00    +0.000 A 
ATOM     16  C   UNL     1       1.201   4.006  20.572  0.00  0.00    +0.000 A 
ATOM     17  C   UNL     1       2.051   5.058  20.225  0.00  0.00    +0.000 A 
ENDBRANCH  11  12
ENDBRANCH  10  11
ENDBRANCH   1  10
TORSDOF 6
ENDMDL
MODEL 6
REMARK VINA RESULT:      -6.3      3.104      4.393
REMARK  Name = 
REMARK  8 active torsions:
REMARK  status: ('A' for Active; 'I' for Inactive)
REMARK    1  A    between atoms: C_1  and  C_2
REMARK    2  A    between atoms: C_2  and  C_3
REMARK    3  A    between atoms: C_3  and  C_4
REMARK    4  A    between atoms: C_3  and  N_5
REMARK    5  A    between atoms: C_6  and  C_8
REMARK    6  A    between atoms: C_8  and  C_9
REMARK    7  A    between atoms: C_9  and  C_10
REMARK    8  A    between atoms: C_10  and  C_11
REMARK                            x       y       z     vdW  Elec       q    Type
REMARK                         _______ _______ _______ _____ _____    ______ ____
ROOT
ATOM      1  C   UNL     1       3.763   7.451  17.488  0.00  0.00    +0.000 C 
ENDROOT
BRANCH   1   3
ATOM      2  N   UNL     1       5.430   5.696  17.215  0.00  0.00    +0.000 N 
ATOM      3  C   UNL     1       4.797   6.760  16.611  0.00  0.00    +0.000 C 
ATOM      4  O   UNL     1       5.042   7.109  15.459  0.00  0.00    +0.000 OA
ATOM      5  H   UNL     1       5.308   5.556  18.211  0.00  0.00    +0.000 HD
BRANCH   2   6
ATOM      6  C   UNL     1       6.461   4.935  16.518  0.00  0.00    +0.000 C 
ATOM      7  C   UNL     1       5.847   3.685  15.895  0.00  0.00    +0.000 C 
BRANCH   6   9
ATOM      8  C   UNL     1       7.645   5.468  18.726  0.00  0.00    +0.000 C 
ATOM      9  C   UNL     1       7.630   4.610  17.467  0.00  0.00    +0.000 C 
ENDBRANCH   6   9
ENDBRANCH   2   6
ENDBRANCH   1   3
BRANCH   1  10
ATOM     10  C   UNL     1       2.718   6.441  17.965  0.00  0.00    +0.000 C 
BRANCH  10  11
ATOM     11  C   UNL     1       2.522   6.421  19.480  0.00  0.00    +0.000 C 
BRANCH  11  12
ATOM     12  C   UNL     1       2.038   5.054  19.908  0.00  0.00    +0.000 A 
ATOM     13  C   UNL     1       2.296   4.580  21.202  0.00  0.00    +0.000 A 
ATOM     14  C   UNL     1       1.951   3.276  21.560  0.00  0.00    +0.000 A 
ATOM     15  C   UNL     1       1.345   2.433  20.629  0.00  0.00    +0.000 A 
ATOM     16  C   UNL     1       1.074   2.897  19.344  0.00  0.00    +0.000 A 
ATOM     17  C   UNL     1       1.418   4.202  18.984  0.00  0.00    +0.000 A 
ENDBRANCH  11  12
ENDBRANCH  10  11
ENDBRANCH   1  10
TORSDOF 6
ENDMDL
MODEL 7
REMARK VINA RESULT:      -6.3      1.890      3.629
REMARK  Name = 
REMARK  8 active torsions:
REMARK  status: ('A' for Active; 'I' for Inactive)
REMARK    1  A    between atoms: C_1  and  C_2
REMARK    2  A    between atoms: C_2  and  C_3
REMARK    3  A    between atoms: C_3  and  C_4
REMARK    4  A    between atoms: C_3  and  N_5
REMARK    5  A    between atoms: C_6  and  C_8
REMARK    6  A    between atoms: C_8  and  C_9
REMARK    7  A    between atoms: C_9  and  C_10
REMARK    8  A    between atoms: C_10  and  C_11
REMARK                            x       y       z     vdW  Elec       q    Type
REMARK                         _______ _______ _______ _____ _____    ______ ____
ROOT
ATOM      1  C   UNL     1       6.266   3.815  15.872  0.00  0.00    +0.000 C 
ENDROOT
BRANCH   1   3
ATOM      2  N   UNL     1       5.904   3.217  13.538  0.00  0.00    +0.000 N 
ATOM      3  C   UNL     1       6.383   4.180  14.399  0.00  0.00    +0.000 C 
ATOM      4  O   UNL     1       6.853   5.244  14.006  0.00  0.00    +0.000 OA
ATOM      5  H   UNL     1       5.681   2.300  13.907  0.00  0.00    +0.000 HD
BRANCH   2   6
ATOM      6  C   UNL     1       5.957   3.401  12.092  0.00  0.00    +0.000 C 
ATOM      7  C   UNL     1       4.560   3.249  11.501  0.00  0.00    +0.000 C 
BRANCH   6   9
ATOM      8  C   UNL     1       6.385   1.076  11.106  0.00  0.00    +0.000 C 
ATOM      9  C   UNL     1       6.977   2.434  11.460  0.00  0.00    +0.000 C 
ENDBRANCH   6   9
ENDBRANCH   2   6
ENDBRANCH   1   3
BRANCH   1  10
ATOM     10  C   UNL     1       4.849   4.103  16.374  0.00  0.00    +0.000 C 
BRANCH  10  11
ATOM     11  C   UNL     1       4.666   5.514  16.932  0.00  0.00    +0.000 C 
BRANCH  11  12
ATOM     12  C   UNL     1       5.966   5.990  17.538  0.00  0.00    +0.000 A 
ATOM     13  C   UNL     1       6.518   5.335  18.647  0.00  0.00    +0.000 A 
ATOM     14  C   UNL     1       7.656   5.843  19.276  0.00  0.00    +0.000 A 
ATOM     15  C   UNL     1       8.253   7.011  18.802  0.00  0.00    +0.000 A 
ATOM     16  C   UNL     1       7.719   7.665  17.695  0.00  0.00    +0.000 A 
ATOM     17  C   UNL     1       6.581   7.157  17.064  0.00  0.00    +0.000 A 
ENDBRANCH  11  12
ENDBRANCH  10  11
ENDBRANCH   1  10
TORSDOF 6
ENDMDL
MODEL 8
REMARK VINA RESULT:      -6.3      1.909      2.923
REMARK  Name = 
REMARK  8 active torsions:
REMARK  status: ('A' for Active; 'I' for Inactive)
REMARK    1  A    between atoms: C_1  and  C_2
REMARK    2  A    between atoms: C_2  and  C_3
REMARK    3  A    between atoms: C_3  and  C_4
REMARK    4  A    between atoms: C_3  and  N_5
REMARK    5  A    between atoms: C_6  and  C_8
REMARK    6  A    between atoms: C_8  and  C_9
REMARK    7  A    between atoms: C_9  and  C_10
REMARK    8  A    between atoms: C_10  and  C_11
REMARK                            x       y       z     vdW  Elec       q    Type
REMARK                         _______ _______ _______ _____ _____    ______ ____
ROOT
ATOM      1  C   UNL     1       4.888   6.708  17.127  0.00  0.00    +0.000 C 
ENDROOT
BRANCH   1   3
ATOM      2  N   UNL     1       5.881   5.681  15.154  0.00  0.00    +0.000 N 
ATOM      3  C   UNL     1       5.586   5.515  16.489  0.00  0.00    +0.000 C 
ATOM      4  O   UNL     1       5.873   4.495  17.109  0.00  0.00    +0.000 OA
ATOM      5  H   UNL     1       5.479   6.469  14.659  0.00  0.00    +0.000 HD
BRANCH   2   6
ATOM      6  C   UNL     1       6.535   4.626  14.387  0.00  0.00    +0.000 C 
ATOM      7  C   UNL     1       7.647   5.223  13.532  0.00  0.00    +0.000 C 
BRANCH   6   9
ATOM      8  C   UNL     1       6.062   3.308  12.242  0.00  0.00    +0.000 C 
ATOM      9  C   UNL     1       5.502   3.843  13.554  0.00  0.00    +0.000 C 
ENDBRANCH   6   9
ENDBRANCH   2   6
ENDBRANCH   1   3
BRANCH   1  10
ATOM     10  C   UNL     1       3.984   6.239  18.270  0.00  0.00    +0.000 C 
BRANCH  10  11
ATOM     11  C   UNL     1       2.603   5.771  17.814  0.00  0.00    +0.000 C 
BRANCH  11  12
ATOM     12  C   UNL     1       2.041   4.798  18.825  0.00  0.00    +0.000 A 
ATOM     13  C   UNL     1       2.288   4.971  20.194  0.00  0.00    +0.000 A 
ATOM     14  C   UNL     1       1.868   4.011  21.116  0.00  0.00    +0.000 A 
ATOM     15  C   UNL     1       1.196   2.870  20.680  0.00  0.00    +0.000 A 
ATOM     16  C   UNL     1       0.936   2.693  19.323  0.00  0.00    +0.000 A 
ATOM     17  C   UNL     1       1.356   3.652  18.399  0.00  0.00    +0.000 A 
ENDBRANCH  11  12
ENDBRANCH  10  11
ENDBRANCH   1  10
TORSDOF 6
ENDMDL
MODEL 9
REMARK VINA RESULT:      -6.2      1.062      1.529
REMARK  Name = 
REMARK  8 active torsions:
REMARK  status: ('A' for Active; 'I' for Inactive)
REMARK    1  A    between atoms: C_1  and  C_2
REMARK    2  A    between atoms: C_2  and  C_3
REMARK    3  A    between atoms: C_3  and  C_4
REMARK    4  A    between atoms: C_3  and  N_5
REMARK    5  A    between atoms: C_6  and  C_8
REMARK    6  A    between atoms: C_8  and  C_9
REMARK    7  A    between atoms: C_9  and  C_10
REMARK    8  A    between atoms: C_10  and  C_11
REMARK                            x       y       z     vdW  Elec       q    Type
REMARK                         _______ _______ _______ _____ _____    ______ ____
ROOT
ATOM      1  C   UNL     1       6.450   4.179  15.904  0.00  0.00    +0.000 C 
ENDROOT
BRANCH   1   3
ATOM      2  N   UNL     1       5.981   3.405  13.642  0.00  0.00    +0.000 N 
ATOM      3  C   UNL     1       6.568   4.393  14.401  0.00  0.00    +0.000 C 
ATOM      4  O   UNL     1       7.128   5.366  13.904  0.00  0.00    +0.000 OA
ATOM      5  H   UNL     1       5.680   2.552  14.098  0.00  0.00    +0.000 HD
BRANCH   2   6
ATOM      6  C   UNL     1       6.020   3.449  12.184  0.00  0.00    +0.000 C 
ATOM      7  C   UNL     1       4.606   3.323  11.627  0.00  0.00    +0.000 C 
BRANCH   6   9
ATOM      8  C   UNL     1       6.250   1.130  11.120  0.00  0.00    +0.000 C 
ATOM      9  C   UNL     1       6.972   2.369  11.635  0.00  0.00    +0.000 C 
ENDBRANCH   6   9
ENDBRANCH   2   6
ENDBRANCH   1   3
BRANCH   1  10
ATOM     10  C   UNL     1       4.980   4.218  16.326  0.00  0.00    +0.000 C 
BRANCH  10  11
ATOM     11  C   UNL     1       4.563   3.054  17.224  0.00  0.00    +0.000 C 
BRANCH  11  12
ATOM     12  C   UNL     1       3.519   3.528  18.211  0.00  0.00    +0.000 A 
ATOM     13  C   UNL     1       2.160   3.261  17.994  0.00  0.00    +0.000 A 
ATOM     14  C   UNL     1       1.190   3.796  18.843  0.00  0.00    +0.000 A 
ATOM     15  C   UNL     1       1.567   4.601  19.916  0.00  0.00    +0.000 A 
ATOM     16  C   UNL     1       2.915   4.864  20.148  0.00  0.00    +0.000 A 
ATOM     17  C   UNL     1       3.888   4.330  19.300  0.00  0.00    +0.000 A 
ENDBRANCH  11  12
ENDBRANCH  10  11
ENDBRANCH   1  10
TORSDOF 6
ENDMDL
