MODEL 1
REMARK VINA RESULT:      -7.8      0.000      0.000
REMARK  Name = 
REMARK  6 active torsions:
REMARK  status: ('A' for Active; 'I' for Inactive)
REMARK    1  A    between atoms: C_2  and  O_3
REMARK    2  A    between atoms: C_2  and  C_4
REMARK    3  A    between atoms: C_4  and  N_5
REMARK    4  A    between atoms: N_7  and  C_8
REMARK    5  A    between atoms: C_8  and  C_9
REMARK    6  A    between atoms: C_12  and  C_13
REMARK                            x       y       z     vdW  Elec       q    Type
REMARK                         _______ _______ _______ _____ _____    ______ ____
ROOT
ATOM      1  N   UNL     1       6.595   5.311  18.180  0.00  0.00    +0.000 N 
ATOM      2  C   UNL     1       5.513   5.649  19.125  0.00  0.00    +0.000 C 
ATOM      3  N   UNL     1       4.145   5.616  18.621  0.00  0.00    +0.000 NA
ATOM      4  S   UNL     1       3.838   4.231  17.709  0.00  0.00    +0.000 S 
ATOM      5  O   UNL     1       2.562   4.420  17.053  0.00  0.00    +0.000 OA
ATOM      6  O   UNL     1       4.080   3.077  18.548  0.00  0.00    +0.000 OA
ATOM      7  C   UNL     1       5.099   4.303  16.509  0.00  0.00    +0.000 A 
ATOM      8  C   UNL     1       4.820   3.803  15.226  0.00  0.00    +0.000 A 
ATOM      9  C   UNL     1       5.797   3.846  14.244  0.00  0.00    +0.000 A 
ATOM     10  C   UNL     1       7.028   4.405  14.552  0.00  0.00    +0.000 A 
ATOM     11  C   UNL     1       7.279   4.908  15.841  0.00  0.00    +0.000 A 
ATOM     12  C   UNL     1       6.322   4.872  16.876  0.00  0.00    +0.000 A 
ENDROOT
BRANCH   1  13
ATOM     13  C   UNL     1       7.907   5.985  18.411  0.00  0.00    +0.000 C 
BRANCH  13  15
ATOM     14  O   UNL     1       7.337   8.025  17.220  0.00  0.00    +0.000 OA
ATOM     15  C   UNL     1       7.926   7.487  18.145  0.00  0.00    +0.000 C 
BRANCH  15  16
ATOM     16  O   UNL     1       8.727   8.180  18.995  0.00  0.00    +0.000 OA
ATOM     17  H   UNL     1       9.588   7.728  19.126  0.00  0.00    +0.000 HD
ENDBRANCH  15  16
ENDBRANCH  13  15
ENDBRANCH   1  13
BRANCH   3  18
ATOM     18  C   UNL     1       3.145   5.715  19.726  0.00  0.00    +0.000 C 
BRANCH  18  19
ATOM     19  C   UNL     1       2.290   6.965  19.736  0.00  0.00    +0.000 A 
ATOM     20  C   UNL     1       1.597   7.347  20.890  0.00  0.00    +0.000 A 
ATOM     21  C   UNL     1       0.928   8.573  20.938  0.00  0.00    +0.000 A 
ATOM     22  C   UNL     1       0.939   9.438  19.834  0.00  0.00    +0.000 A 
ATOM     23  C   UNL     1       1.587   9.027  18.660  0.00  0.00    +0.000 A 
ATOM     24  C   UNL     1       2.255   7.802  18.611  0.00  0.00    +0.000 A 
BRANCH  22  25
ATOM     25  C   UNL     1       0.315  10.811  19.902  0.00  0.00    +0.000 C 
ATOM     26  F   UNL     1       0.863  11.615  20.855  0.00  0.00    +0.000 F 
ATOM     27  F   UNL     1       0.442  11.490  18.727  0.00  0.00    +0.000 F 
ATOM     28  F   UNL     1      -1.019  10.770  20.166  0.00  0.00    +0.000 F 
ENDBRANCH  22  25
ENDBRANCH  18  19
ENDBRANCH   3  18
TORSDOF 6
ENDMDL
MODEL 2
REMARK VINA RESULT:      -7.7      0.409      1.089
REMARK  Name = 
REMARK  6 active torsions:
REMARK  status: ('A' for Active; 'I' for Inactive)
REMARK    1  A    between atoms: C_2  and  O_3
REMARK    2  A    between atoms: C_2  and  C_4
REMARK    3  A    between atoms: C_4  and  N_5
REMARK    4  A    between atoms: N_7  and  C_8
REMARK    5  A    between atoms: C_8  and  C_9
REMARK    6  A    between atoms: C_12  and  C_13
REMARK                            x       y       z     vdW  Elec       q    Type
REMARK                         _______ _______ _______ _____ _____    ______ ____
ROOT
ATOM      1  N   UNL     1       6.585   5.310  18.173  0.00  0.00    +0.000 N 
ATOM      2  C   UNL     1       5.518   5.658  19.131  0.00  0.00    +0.000 C 
ATOM      3  N   UNL     1       4.144   5.647  18.640  0.00  0.00    +0.000 NA
ATOM      4  S   UNL     1       3.809   4.271  17.725  0.00  0.00    +0.000 S 
ATOM      5  O   UNL     1       2.529   4.481  17.082  0.00  0.00    +0.000 OA
ATOM      6  O   UNL     1       4.043   3.110  18.556  0.00  0.00    +0.000 OA
ATOM      7  C   UNL     1       5.059   4.331  16.512  0.00  0.00    +0.000 A 
ATOM      8  C   UNL     1       4.761   3.841  15.230  0.00  0.00    +0.000 A 
ATOM      9  C   UNL     1       5.729   3.875  14.239  0.00  0.00    +0.000 A 
ATOM     10  C   UNL     1       6.971   4.415  14.537  0.00  0.00    +0.000 A 
ATOM     11  C   UNL     1       7.241   4.909  15.826  0.00  0.00    +0.000 A 
ATOM     12  C   UNL     1       6.294   4.880  16.870  0.00  0.00    +0.000 A 
ENDROOT
BRANCH   1  13
ATOM     13  C   UNL     1       7.910   5.964  18.394  0.00  0.00    +0.000 C 
BRANCH  13  15
ATOM     14  O   UNL     1       7.367   8.030  17.236  0.00  0.00    +0.000 OA
ATOM     15  C   UNL     1       7.941   7.471  18.157  0.00  0.00    +0.000 C 
BRANCH  15  16
ATOM     16  O   UNL     1       8.737   8.142  19.029  0.00  0.00    +0.000 OA
ATOM     17  H   UNL     1       9.494   8.568  18.571  0.00  0.00    +0.000 HD
ENDBRANCH  15  16
ENDBRANCH  13  15
ENDBRANCH   1  13
BRANCH   3  18
ATOM     18  C   UNL     1       3.157   5.755  19.756  0.00  0.00    +0.000 C 
BRANCH  18  19
ATOM     19  C   UNL     1       2.375   7.050  19.824  0.00  0.00    +0.000 A 
ATOM     20  C   UNL     1       2.298   7.896  18.711  0.00  0.00    +0.000 A 
ATOM     21  C   UNL     1       1.461   9.015  18.733  0.00  0.00    +0.000 A 
ATOM     22  C   UNL     1       0.686   9.308  19.865  0.00  0.00    +0.000 A 
ATOM     23  C   UNL     1       0.808   8.490  20.998  0.00  0.00    +0.000 A 
ATOM     24  C   UNL     1       1.646   7.373  20.978  0.00  0.00    +0.000 A 
BRANCH  22  25
ATOM     25  C   UNL     1      -0.303  10.448  19.870  0.00  0.00    +0.000 C 
ATOM     26  F   UNL     1       0.237  11.643  19.502  0.00  0.00    +0.000 F 
ATOM     27  F   UNL     1      -1.339  10.230  19.011  0.00  0.00    +0.000 F 
ATOM     28  F   UNL     1      -0.868  10.650  21.091  0.00  0.00    +0.000 F 
ENDBRANCH  22  25
ENDBRANCH  18  19
ENDBRANCH   3  18
TORSDOF 6
ENDMDL
MODEL 3
REMARK VINA RESULT:      -7.3      5.197      8.291
REMARK  Name = 
REMARK  6 active torsions:
REMARK  status: ('A' for Active; 'I' for Inactive)
REMARK    1  A    between atoms: C_2  and  O_3
REMARK    2  A    between atoms: C_2  and  C_4
REMARK    3  A    between atoms: C_4  and  N_5
REMARK    4  A    between atoms: N_7  and  C_8
REMARK    5  A    between atoms: C_8  and  C_9
REMARK    6  A    between atoms: C_12  and  C_13
REMARK                            x       y       z     vdW  Elec       q    Type
REMARK                         _______ _______ _______ _____ _____    ______ ____
ROOT
ATOM      1  N   UNL     1       0.148  10.612  20.991  0.00  0.00    +0.000 N 
ATOM      2  C   UNL     1       1.222   9.616  20.817  0.00  0.00    +0.000 C 
ATOM      3  N   UNL     1       1.233   8.848  19.577  0.00  0.00    +0.000 NA
ATOM      4  S   UNL     1       0.990   9.824  18.223  0.00  0.00    +0.000 S 
ATOM      5  O   UNL     1       0.761   8.947  17.094  0.00  0.00    +0.000 OA
ATOM      6  O   UNL     1       2.039  10.820  18.193  0.00  0.00    +0.000 OA
ATOM      7  C   UNL     1      -0.506  10.624  18.620  0.00  0.00    +0.000 A 
ATOM      8  C   UNL     1      -1.382  10.946  17.571  0.00  0.00    +0.000 A 
ATOM      9  C   UNL     1      -2.583  11.580  17.848  0.00  0.00    +0.000 A 
ATOM     10  C   UNL     1      -2.900  11.864  19.168  0.00  0.00    +0.000 A 
ATOM     11  C   UNL     1      -2.009  11.522  20.201  0.00  0.00    +0.000 A 
ATOM     12  C   UNL     1      -0.770  10.891  19.967  0.00  0.00    +0.000 A 
ENDROOT
BRANCH   1  13
ATOM     13  C   UNL     1      -0.301  10.860  22.393  0.00  0.00    +0.000 C 
BRANCH  13  15
ATOM     14  O   UNL     1       0.507   9.542  24.267  0.00  0.00    +0.000 OA
ATOM     15  C   UNL     1      -0.254   9.648  23.319  0.00  0.00    +0.000 C 
BRANCH  15  16
ATOM     16  O   UNL     1      -1.093   8.647  22.947  0.00  0.00    +0.000 OA
ATOM     17  H   UNL     1      -0.626   7.785  22.900  0.00  0.00    +0.000 HD
ENDBRANCH  15  16
ENDBRANCH  13  15
ENDBRANCH   1  13
BRANCH   3  18
ATOM     18  C   UNL     1       2.503   8.078  19.413  0.00  0.00    +0.000 C 
BRANCH  18  19
ATOM     19  C   UNL     1       2.355   6.577  19.283  0.00  0.00    +0.000 A 
ATOM     20  C   UNL     1       1.922   5.806  20.368  0.00  0.00    +0.000 A 
ATOM     21  C   UNL     1       1.649   4.445  20.202  0.00  0.00    +0.000 A 
ATOM     22  C   UNL     1       1.805   3.831  18.950  0.00  0.00    +0.000 A 
ATOM     23  C   UNL     1       2.293   4.594  17.879  0.00  0.00    +0.000 A 
ATOM     24  C   UNL     1       2.566   5.953  18.044  0.00  0.00    +0.000 A 
BRANCH  22  25
ATOM     25  C   UNL     1       1.414   2.391  18.725  0.00  0.00    +0.000 C 
ATOM     26  F   UNL     1       2.051   1.810  17.669  0.00  0.00    +0.000 F 
ATOM     27  F   UNL     1       1.699   1.608  19.804  0.00  0.00    +0.000 F 
ATOM     28  F   UNL     1       0.083   2.236  18.493  0.00  0.00    +0.000 F 
ENDBRANCH  22  25
ENDBRANCH  18  19
ENDBRANCH   3  18
TORSDOF 6
ENDMDL
MODEL 4
REMARK VINA RESULT:      -7.2      0.910      1.223
REMARK  Name = 
REMARK  6 active torsions:
REMARK  status: ('A' for Active; 'I' for Inactive)
REMARK    1  A    between atoms: C_2  and  O_3
REMARK    2  A    between atoms: C_2  and  C_4
REMARK    3  A    between atoms: C_4  and  N_5
REMARK    4  A    between atoms: N_7  and  C_8
REMARK    5  A    between atoms: C_8  and  C_9
REMARK    6  A    between atoms: C_12  and  C_13
REMARK                            x       y       z     vdW  Elec       q    Type
REMARK                         _______ _______ _______ _____ _____    ______ ____
ROOT
ATOM      1  N   UNL     1       6.402   6.463  17.310  0.00  0.00    +0.000 N 
ATOM      2  C   UNL     1       5.291   6.648  18.262  0.00  0.00    +0.000 C 
ATOM      3  N   UNL     1       4.032   5.972  17.967  0.00  0.00    +0.000 NA
ATOM      4  S   UNL     1       4.267   4.367  17.506  0.00  0.00    +0.000 S 
ATOM      5  O   UNL     1       3.006   3.876  16.994  0.00  0.00    +0.000 OA
ATOM      6  O   UNL     1       4.951   3.685  18.584  0.00  0.00    +0.000 OA
ATOM      7  C   UNL     1       5.382   4.533  16.177  0.00  0.00    +0.000 A 
ATOM      8  C   UNL     1       5.295   3.611  15.122  0.00  0.00    +0.000 A 
ATOM      9  C   UNL     1       6.163   3.713  14.046  0.00  0.00    +0.000 A 
ATOM     10  C   UNL     1       7.088   4.746  14.030  0.00  0.00    +0.000 A 
ATOM     11  C   UNL     1       7.148   5.663  15.095  0.00  0.00    +0.000 A 
ATOM     12  C   UNL     1       6.298   5.589  16.217  0.00  0.00    +0.000 A 
ENDROOT
BRANCH   1  13
ATOM     13  C   UNL     1       7.357   7.604  17.180  0.00  0.00    +0.000 C 
BRANCH  13  15
ATOM     14  O   UNL     1       8.704   8.965  18.675  0.00  0.00    +0.000 OA
ATOM     15  C   UNL     1       8.221   7.876  18.408  0.00  0.00    +0.000 C 
BRANCH  15  16
ATOM     16  O   UNL     1       8.472   6.768  19.152  0.00  0.00    +0.000 OA
ATOM     17  H   UNL     1       8.240   6.909  20.095  0.00  0.00    +0.000 HD
ENDBRANCH  15  16
ENDBRANCH  13  15
ENDBRANCH   1  13
BRANCH   3  18
ATOM     18  C   UNL     1       3.091   6.023  19.126  0.00  0.00    +0.000 C 
BRANCH  18  19
ATOM     19  C   UNL     1       2.244   7.273  19.235  0.00  0.00    +0.000 A 
ATOM     20  C   UNL     1       1.717   7.672  20.469  0.00  0.00    +0.000 A 
ATOM     21  C   UNL     1       1.058   8.899  20.591  0.00  0.00    +0.000 A 
ATOM     22  C   UNL     1       0.915   9.748  19.483  0.00  0.00    +0.000 A 
ATOM     23  C   UNL     1       1.395   9.320  18.237  0.00  0.00    +0.000 A 
ATOM     24  C   UNL     1       2.051   8.094  18.114  0.00  0.00    +0.000 A 
BRANCH  22  25
ATOM     25  C   UNL     1       0.303  11.122  19.617  0.00  0.00    +0.000 C 
ATOM     26  F   UNL     1       0.080  11.740  18.424  0.00  0.00    +0.000 F 
ATOM     27  F   UNL     1      -0.905  11.086  20.247  0.00  0.00    +0.000 F 
ATOM     28  F   UNL     1       1.076  11.974  20.343  0.00  0.00    +0.000 F 
ENDBRANCH  22  25
ENDBRANCH  18  19
ENDBRANCH   3  18
TORSDOF 6
ENDMDL
MODEL 5
REMARK VINA RESULT:      -7.1      0.946      1.206
REMARK  Name = 
REMARK  6 active torsions:
REMARK  status: ('A' for Active; 'I' for Inactive)
REMARK    1  A    between atoms: C_2  and  O_3
REMARK    2  A    between atoms: C_2  and  C_4
REMARK    3  A    between atoms: C_4  and  N_5
REMARK    4  A    between atoms: N_7  and  C_8
REMARK    5  A    between atoms: C_8  and  C_9
REMARK    6  A    between atoms: C_12  and  C_13
REMARK                            x       y       z     vdW  Elec       q    Type
REMARK                         _______ _______ _______ _____ _____    ______ ____
ROOT
ATOM      1  N   UNL     1       6.538   4.444  17.984  0.00  0.00    +0.000 N 
ATOM      2  C   UNL     1       5.533   4.759  19.017  0.00  0.00    +0.000 C 
ATOM      3  N   UNL     1       4.182   5.079  18.567  0.00  0.00    +0.000 NA
ATOM      4  S   UNL     1       3.631   3.999  17.395  0.00  0.00    +0.000 S 
ATOM      5  O   UNL     1       2.413   4.549  16.839  0.00  0.00    +0.000 OA
ATOM      6  O   UNL     1       3.658   2.668  17.962  0.00  0.00    +0.000 OA
ATOM      7  C   UNL     1       4.889   4.100  16.192  0.00  0.00    +0.000 A 
ATOM      8  C   UNL     1       4.527   3.945  14.844  0.00  0.00    +0.000 A 
ATOM      9  C   UNL     1       5.499   4.023  13.859  0.00  0.00    +0.000 A 
ATOM     10  C   UNL     1       6.811   4.274  14.232  0.00  0.00    +0.000 A 
ATOM     11  C   UNL     1       7.144   4.437  15.589  0.00  0.00    +0.000 A 
ATOM     12  C   UNL     1       6.194   4.350  16.627  0.00  0.00    +0.000 A 
ENDROOT
BRANCH   1  13
ATOM     13  C   UNL     1       7.950   4.808  18.304  0.00  0.00    +0.000 C 
BRANCH  13  15
ATOM     14  O   UNL     1       8.295   7.129  18.934  0.00  0.00    +0.000 OA
ATOM     15  C   UNL     1       8.120   5.971  19.277  0.00  0.00    +0.000 C 
BRANCH  15  16
ATOM     16  O   UNL     1       8.136   5.591  20.581  0.00  0.00    +0.000 OA
ATOM     17  H   UNL     1       7.442   4.922  20.769  0.00  0.00    +0.000 HD
ENDBRANCH  15  16
ENDBRANCH  13  15
ENDBRANCH   1  13
BRANCH   3  18
ATOM     18  C   UNL     1       3.214   5.116  19.704  0.00  0.00    +0.000 C 
BRANCH  18  19
ATOM     19  C   UNL     1       2.385   6.377  19.826  0.00  0.00    +0.000 A 
ATOM     20  C   UNL     1       1.604   6.610  20.965  0.00  0.00    +0.000 A 
ATOM     21  C   UNL     1       0.956   7.836  21.137  0.00  0.00    +0.000 A 
ATOM     22  C   UNL     1       1.076   8.850  20.175  0.00  0.00    +0.000 A 
ATOM     23  C   UNL     1       1.812   8.592  19.010  0.00  0.00    +0.000 A 
ATOM     24  C   UNL     1       2.459   7.368  18.836  0.00  0.00    +0.000 A 
BRANCH  22  25
ATOM     25  C   UNL     1       0.473  10.217  20.392  0.00  0.00    +0.000 C 
ATOM     26  F   UNL     1      -0.591  10.217  21.242  0.00  0.00    +0.000 F 
ATOM     27  F   UNL     1       1.371  11.094  20.923  0.00  0.00    +0.000 F 
ATOM     28  F   UNL     1       0.032  10.787  19.239  0.00  0.00    +0.000 F 
ENDBRANCH  22  25
ENDBRANCH  18  19
ENDBRANCH   3  18
TORSDOF 6
ENDMDL
MODEL 6
REMARK VINA RESULT:      -7.1      2.472      3.486
REMARK  Name = 
REMARK  6 active torsions:
REMARK  status: ('A' for Active; 'I' for Inactive)
REMARK    1  A    between atoms: C_2  and  O_3
REMARK    2  A    between atoms: C_2  and  C_4
REMARK    3  A    between atoms: C_4  and  N_5
REMARK    4  A    between atoms: N_7  and  C_8
REMARK    5  A    between atoms: C_8  and  C_9
REMARK    6  A    between atoms: C_12  and  C_13
REMARK                            x       y       z     vdW  Elec       q    Type
REMARK                         _______ _______ _______ _____ _____    ______ ____
ROOT
ATOM      1  N   UNL     1       4.373   5.248  18.996  0.00  0.00    +0.000 N 
ATOM      2  C   UNL     1       3.751   6.402  19.674  0.00  0.00    +0.000 C 
ATOM      3  N   UNL     1       2.307   6.363  19.880  0.00  0.00    +0.000 NA
ATOM      4  S   UNL     1       1.791   4.871  20.473  0.00  0.00    +0.000 S 
ATOM      5  O   UNL     1       0.346   4.853  20.394  0.00  0.00    +0.000 OA
ATOM      6  O   UNL     1       2.473   4.624  21.725  0.00  0.00    +0.000 OA
ATOM      7  C   UNL     1       2.428   3.770  19.282  0.00  0.00    +0.000 A 
ATOM      8  C   UNL     1       1.695   2.607  18.999  0.00  0.00    +0.000 A 
ATOM      9  C   UNL     1       2.169   1.708  18.055  0.00  0.00    +0.000 A 
ATOM     10  C   UNL     1       3.354   1.996  17.396  0.00  0.00    +0.000 A 
ATOM     11  C   UNL     1       4.064   3.174  17.690  0.00  0.00    +0.000 A 
ATOM     12  C   UNL     1       3.630   4.108  18.653  0.00  0.00    +0.000 A 
ENDROOT
BRANCH   1  13
ATOM     13  C   UNL     1       5.588   5.540  18.178  0.00  0.00    +0.000 C 
BRANCH  13  15
ATOM     14  O   UNL     1       7.318   5.503  19.884  0.00  0.00    +0.000 OA
ATOM     15  C   UNL     1       6.913   5.110  18.802  0.00  0.00    +0.000 C 
BRANCH  15  16
ATOM     16  O   UNL     1       7.651   4.297  18.003  0.00  0.00    +0.000 OA
ATOM     17  H   UNL     1       7.193   3.446  17.836  0.00  0.00    +0.000 HD
ENDBRANCH  15  16
ENDBRANCH  13  15
ENDBRANCH   1  13
BRANCH   3  18
ATOM     18  C   UNL     1       1.850   7.449  20.799  0.00  0.00    +0.000 C 
BRANCH  18  19
ATOM     19  C   UNL     1       1.123   8.605  20.146  0.00  0.00    +0.000 A 
ATOM     20  C   UNL     1       1.365   8.935  18.807  0.00  0.00    +0.000 A 
ATOM     21  C   UNL     1       0.591   9.908  18.170  0.00  0.00    +0.000 A 
ATOM     22  C   UNL     1      -0.438  10.569  18.858  0.00  0.00    +0.000 A 
ATOM     23  C   UNL     1      -0.640  10.275  20.214  0.00  0.00    +0.000 A 
ATOM     24  C   UNL     1       0.134   9.305  20.853  0.00  0.00    +0.000 A 
BRANCH  22  25
ATOM     25  C   UNL     1      -1.355  11.543  18.160  0.00  0.00    +0.000 C 
ATOM     26  F   UNL     1      -1.863  11.072  16.987  0.00  0.00    +0.000 F 
ATOM     27  F   UNL     1      -2.434  11.871  18.925  0.00  0.00    +0.000 F 
ATOM     28  F   UNL     1      -0.742  12.719  17.858  0.00  0.00    +0.000 F 
ENDBRANCH  22  25
ENDBRANCH  18  19
ENDBRANCH   3  18
TORSDOF 6
ENDMDL
MODEL 7
REMARK VINA RESULT:      -7.1      0.869      1.382
REMARK  Name = 
REMARK  6 active torsions:
REMARK  status: ('A' for Active; 'I' for Inactive)
REMARK    1  A    between atoms: C_2  and  O_3
REMARK    2  A    between atoms: C_2  and  C_4
REMARK    3  A    between atoms: C_4  and  N_5
REMARK    4  A    between atoms: N_7  and  C_8
REMARK    5  A    between atoms: C_8  and  C_9
REMARK    6  A    between atoms: C_12  and  C_13
REMARK                            x       y       z     vdW  Elec       q    Type
REMARK                         _______ _______ _______ _____ _____    ______ ____
ROOT
ATOM      1  N   UNL     1       6.103   6.019  17.415  0.00  0.00    +0.000 N 
ATOM      2  C   UNL     1       4.923   6.152  18.292  0.00  0.00    +0.000 C 
ATOM      3  N   UNL     1       3.665   5.585  17.817  0.00  0.00    +0.000 NA
ATOM      4  S   UNL     1       3.866   4.035  17.184  0.00  0.00    +0.000 S 
ATOM      5  O   UNL     1       2.633   3.678  16.516  0.00  0.00    +0.000 OA
ATOM      6  O   UNL     1       4.423   3.194  18.221  0.00  0.00    +0.000 OA
ATOM      7  C   UNL     1       5.098   4.296  15.978  0.00  0.00    +0.000 A 
ATOM      8  C   UNL     1       5.060   3.510  14.815  0.00  0.00    +0.000 A 
ATOM      9  C   UNL     1       6.021   3.690  13.832  0.00  0.00    +0.000 A 
ATOM     10  C   UNL     1       6.990   4.665  14.016  0.00  0.00    +0.000 A 
ATOM     11  C   UNL     1       6.999   5.446  15.186  0.00  0.00    +0.000 A 
ATOM     12  C   UNL     1       6.053   5.288  16.219  0.00  0.00    +0.000 A 
ENDROOT
BRANCH   1  13
ATOM     13  C   UNL     1       7.116   7.113  17.502  0.00  0.00    +0.000 C 
BRANCH  13  15
ATOM     14  O   UNL     1       8.290   5.970  19.296  0.00  0.00    +0.000 OA
ATOM     15  C   UNL     1       8.114   6.990  18.650  0.00  0.00    +0.000 C 
BRANCH  15  16
ATOM     16  O   UNL     1       8.748   8.154  18.946  0.00  0.00    +0.000 OA
ATOM     17  H   UNL     1       8.112   8.850  19.220  0.00  0.00    +0.000 HD
ENDBRANCH  15  16
ENDBRANCH  13  15
ENDBRANCH   1  13
BRANCH   3  18
ATOM     18  C   UNL     1       2.631   5.552  18.894  0.00  0.00    +0.000 C 
BRANCH  18  19
ATOM     19  C   UNL     1       2.146   6.898  19.387  0.00  0.00    +0.000 A 
ATOM     20  C   UNL     1       2.025   7.980  18.506  0.00  0.00    +0.000 A 
ATOM     21  C   UNL     1       1.443   9.176  18.933  0.00  0.00    +0.000 A 
ATOM     22  C   UNL     1       0.971   9.314  20.248  0.00  0.00    +0.000 A 
ATOM     23  C   UNL     1       1.145   8.248  21.143  0.00  0.00    +0.000 A 
ATOM     24  C   UNL     1       1.728   7.053  20.717  0.00  0.00    +0.000 A 
BRANCH  22  25
ATOM     25  C   UNL     1       0.244  10.557  20.698  0.00  0.00    +0.000 C 
ATOM     26  F   UNL     1       0.036  10.613  22.043  0.00  0.00    +0.000 F 
ATOM     27  F   UNL     1       0.927  11.693  20.382  0.00  0.00    +0.000 F 
ATOM     28  F   UNL     1      -0.982  10.687  20.123  0.00  0.00    +0.000 F 
ENDBRANCH  22  25
ENDBRANCH  18  19
ENDBRANCH   3  18
TORSDOF 6
ENDMDL
MODEL 8
REMARK VINA RESULT:      -7.0      5.225      8.366
REMARK  Name = 
REMARK  6 active torsions:
REMARK  status: ('A' for Active; 'I' for Inactive)
REMARK    1  A    between atoms: C_2  and  O_3
REMARK    2  A    between atoms: C_2  and  C_4
REMARK    3  A    between atoms: C_4  and  N_5
REMARK    4  A    between atoms: N_7  and  C_8
REMARK    5  A    between atoms: C_8  and  C_9
REMARK    6  A    between atoms: C_12  and  C_13
REMARK                            x       y       z     vdW  Elec       q    Type
REMARK                         _______ _______ _______ _____ _____    ______ ____
ROOT
ATOM      1  N   UNL     1       0.131  10.544  20.918  0.00  0.00    +0.000 N 
ATOM      2  C   UNL     1       1.201   9.537  20.794  0.00  0.00    +0.000 C 
ATOM      3  N   UNL     1       1.252   8.757  19.562  0.00  0.00    +0.000 NA
ATOM      4  S   UNL     1       1.071   9.722  18.192  0.00  0.00    +0.000 S 
ATOM      5  O   UNL     1       0.877   8.837  17.063  0.00  0.00    +0.000 OA
ATOM      6  O   UNL     1       2.130  10.708  18.193  0.00  0.00    +0.000 OA
ATOM      7  C   UNL     1      -0.431  10.540  18.524  0.00  0.00    +0.000 A 
ATOM      8  C   UNL     1      -1.263  10.860  17.438  0.00  0.00    +0.000 A 
ATOM      9  C   UNL     1      -2.468  11.508  17.663  0.00  0.00    +0.000 A 
ATOM     10  C   UNL     1      -2.832  11.808  18.967  0.00  0.00    +0.000 A 
ATOM     11  C   UNL     1      -1.985  11.467  20.038  0.00  0.00    +0.000 A 
ATOM     12  C   UNL     1      -0.744  10.823  19.857  0.00  0.00    +0.000 A 
ENDROOT
BRANCH   1  13
ATOM     13  C   UNL     1      -0.369  10.810  22.300  0.00  0.00    +0.000 C 
BRANCH  13  15
ATOM     14  O   UNL     1       0.553   9.587  24.186  0.00  0.00    +0.000 OA
ATOM     15  C   UNL     1      -0.254   9.640  23.272  0.00  0.00    +0.000 C 
BRANCH  15  16
ATOM     16  O   UNL     1      -1.092   8.610  22.985  0.00  0.00    +0.000 OA
ATOM     17  H   UNL     1      -1.454   8.202  23.801  0.00  0.00    +0.000 HD
ENDBRANCH  15  16
ENDBRANCH  13  15
ENDBRANCH   1  13
BRANCH   3  18
ATOM     18  C   UNL     1       2.520   7.973  19.455  0.00  0.00    +0.000 C 
BRANCH  18  19
ATOM     19  C   UNL     1       2.361   6.488  19.209  0.00  0.00    +0.000 A 
ATOM     20  C   UNL     1       2.694   5.931  17.968  0.00  0.00    +0.000 A 
ATOM     21  C   UNL     1       2.682   4.545  17.792  0.00  0.00    +0.000 A 
ATOM     22  C   UNL     1       2.337   3.691  18.850  0.00  0.00    +0.000 A 
ATOM     23  C   UNL     1       1.950   4.255  20.074  0.00  0.00    +0.000 A 
ATOM     24  C   UNL     1       1.960   5.640  20.252  0.00  0.00    +0.000 A 
BRANCH  22  25
ATOM     25  C   UNL     1       2.422   2.190  18.712  0.00  0.00    +0.000 C 
ATOM     26  F   UNL     1       3.622   1.672  19.098  0.00  0.00    +0.000 F 
ATOM     27  F   UNL     1       1.484   1.552  19.468  0.00  0.00    +0.000 F 
ATOM     28  F   UNL     1       2.223   1.767  17.436  0.00  0.00    +0.000 F 
ENDBRANCH  22  25
ENDBRANCH  18  19
ENDBRANCH   3  18
TORSDOF 6
ENDMDL
MODEL 9
REMARK VINA RESULT:      -6.9      6.123      9.811
REMARK  Name = 
REMARK  6 active torsions:
REMARK  status: ('A' for Active; 'I' for Inactive)
REMARK    1  A    between atoms: C_2  and  O_3
REMARK    2  A    between atoms: C_2  and  C_4
REMARK    3  A    between atoms: C_4  and  N_5
REMARK    4  A    between atoms: N_7  and  C_8
REMARK    5  A    between atoms: C_8  and  C_9
REMARK    6  A    between atoms: C_12  and  C_13
REMARK                            x       y       z     vdW  Elec       q    Type
REMARK                         _______ _______ _______ _____ _____    ______ ____
ROOT
ATOM      1  N   UNL     1      -2.623  12.958  20.473  0.00  0.00    +0.000 N 
ATOM      2  C   UNL     1      -1.221  12.500  20.443  0.00  0.00    +0.000 C 
ATOM      3  N   UNL     1      -0.921  11.304  19.662  0.00  0.00    +0.000 NA
ATOM      4  S   UNL     1      -1.656  11.336  18.145  0.00  0.00    +0.000 S 
ATOM      5  O   UNL     1      -1.513  10.015  17.568  0.00  0.00    +0.000 OA
ATOM      6  O   UNL     1      -1.187  12.511  17.443  0.00  0.00    +0.000 OA
ATOM      7  C   UNL     1      -3.330  11.585  18.560  0.00  0.00    +0.000 A 
ATOM      8  C   UNL     1      -4.308  11.002  17.739  0.00  0.00    +0.000 A 
ATOM      9  C   UNL     1      -5.650  11.175  18.039  0.00  0.00    +0.000 A 
ATOM     10  C   UNL     1      -5.993  11.909  19.165  0.00  0.00    +0.000 A 
ATOM     11  C   UNL     1      -4.993  12.474  19.977  0.00  0.00    +0.000 A 
ATOM     12  C   UNL     1      -3.617  12.338  19.702  0.00  0.00    +0.000 A 
ENDROOT
BRANCH   1  13
ATOM     13  C   UNL     1      -3.062  13.653  21.721  0.00  0.00    +0.000 C 
BRANCH  13  15
ATOM     14  O   UNL     1      -3.309  11.904  23.389  0.00  0.00    +0.000 OA
ATOM     15  C   UNL     1      -2.745  12.922  23.022  0.00  0.00    +0.000 C 
BRANCH  15  16
ATOM     16  O   UNL     1      -1.816  13.552  23.786  0.00  0.00    +0.000 OA
ATOM     17  H   UNL     1      -1.556  14.415  23.398  0.00  0.00    +0.000 HD
ENDBRANCH  15  16
ENDBRANCH  13  15
ENDBRANCH   1  13
BRANCH   3  18
ATOM     18  C   UNL     1       0.550  11.104  19.498  0.00  0.00    +0.000 C 
BRANCH  18  19
ATOM     19  C   UNL     1       1.028   9.667  19.511  0.00  0.00    +0.000 A 
ATOM     20  C   UNL     1       1.657   9.115  18.388  0.00  0.00    +0.000 A 
ATOM     21  C   UNL     1       2.223   7.839  18.453  0.00  0.00    +0.000 A 
ATOM     22  C   UNL     1       2.170   7.092  19.640  0.00  0.00    +0.000 A 
ATOM     23  C   UNL     1       1.491   7.625  20.744  0.00  0.00    +0.000 A 
ATOM     24  C   UNL     1       0.924   8.900  20.680  0.00  0.00    +0.000 A 
BRANCH  22  25
ATOM     25  C   UNL     1       2.867   5.759  19.763  0.00  0.00    +0.000 C 
ATOM     26  F   UNL     1       4.227   5.851  19.774  0.00  0.00    +0.000 F 
ATOM     27  F   UNL     1       2.532   5.110  20.914  0.00  0.00    +0.000 F 
ATOM     28  F   UNL     1       2.557   4.906  18.751  0.00  0.00    +0.000 F 
ENDBRANCH  22  25
ENDBRANCH  18  19
ENDBRANCH   3  18
TORSDOF 6
ENDMDL
