MODEL 1
REMARK VINA RESULT:     -10.5      0.000      0.000
REMARK  Name = 
REMARK  7 active torsions:
REMARK  status: ('A' for Active; 'I' for Inactive)
REMARK    1  A    between atoms: C_1  and  O_2
REMARK    2  A    between atoms: O_2  and  C_3
REMARK    3  A    between atoms: C_10  and  C_11
REMARK    4  A    between atoms: C_11  and  O_12
REMARK    5  A    between atoms: N_21  and  C_22
REMARK    6  A    between atoms: C_22  and  C_23
REMARK    7  A    between atoms: N_32  and  C_33
REMARK                            x       y       z     vdW  Elec       q    Type
REMARK                         _______ _______ _______ _____ _____    ______ ____
ROOT
ATOM      1  C   UNL     1       3.116   5.983  18.934  0.00  0.00    +0.000 C 
ATOM      2  C   UNL     1       2.275   4.795  19.349  0.00  0.00    +0.000 A 
ATOM      3  C   UNL     1       1.470   4.585  20.459  0.00  0.00    +0.000 A 
ATOM      4  C   UNL     1       0.800   3.358  20.573  0.00  0.00    +0.000 A 
ATOM      5  C   UNL     1       0.940   2.358  19.593  0.00  0.00    +0.000 A 
ATOM      6  C   UNL     1       1.758   2.564  18.485  0.00  0.00    +0.000 A 
ATOM      7  C   UNL     1       2.404   3.783  18.395  0.00  0.00    +0.000 A 
ATOM      8  C   UNL     1       3.289   4.261  17.334  0.00  0.00    +0.000 C 
ATOM      9  O   UNL     1       3.664   3.573  16.404  0.00  0.00    +0.000 OA
ATOM     10  N   UNL     1       3.574   5.584  17.614  0.00  0.00    +0.000 N 
ENDROOT
BRANCH   1  18
ATOM     11  C   UNL     1      -1.051  11.522  22.810  0.00  0.00    +0.000 C 
ATOM     12  O   UNL     1      -0.919  10.533  23.517  0.00  0.00    +0.000 OA
ATOM     13  N   UNL     1      -0.763  11.671  21.483  0.00  0.00    +0.000 N 
ATOM     14  C   UNL     1      -0.077  10.717  20.768  0.00  0.00    +0.000 A 
ATOM     15  N   UNL     1       0.383   9.576  21.227  0.00  0.00    +0.000 NA
ATOM     16  C   UNL     1       1.050   8.978  20.195  0.00  0.00    +0.000 A 
ATOM     17  C   UNL     1       1.752   7.762  20.176  0.00  0.00    +0.000 A 
ATOM     18  C   UNL     1       2.371   7.316  18.986  0.00  0.00    +0.000 A 
ATOM     19  C   UNL     1       2.263   8.128  17.840  0.00  0.00    +0.000 A 
ATOM     20  C   UNL     1       1.572   9.352  17.843  0.00  0.00    +0.000 A 
ATOM     21  C   UNL     1       0.980   9.753  19.045  0.00  0.00    +0.000 A 
ATOM     22  N   UNL     1       0.265  10.865  19.437  0.00  0.00    +0.000 N 
ATOM     23  C   UNL     1      -0.041  11.998  18.598  0.00  0.00    +0.000 C 
ATOM     24  H   UNL     1      -1.004  12.560  21.077  0.00  0.00    +0.000 HD
BRANCH  11  26
ATOM     25  C   UNL     1      -2.954  12.709  23.472  0.00  0.00    +0.000 C 
ATOM     26  O   UNL     1      -1.535  12.710  23.278  0.00  0.00    +0.000 OA
ENDBRANCH  11  26
ENDBRANCH   1  18
BRANCH   1  27
ATOM     27  O   UNL     1       4.267   6.004  19.767  0.00  0.00    +0.000 OA
ATOM     28  H   UNL     1       4.781   5.210  19.543  0.00  0.00    +0.000 HD
ENDBRANCH   1  27
BRANCH  10  29
ATOM     29  C   UNL     1       4.496   6.362  16.807  0.00  0.00    +0.000 C 
BRANCH  29  30
ATOM     30  C   UNL     1       5.877   6.392  17.422  0.00  0.00    +0.000 A 
ATOM     31  C   UNL     1       6.414   5.242  18.019  0.00  0.00    +0.000 A 
ATOM     32  C   UNL     1       7.641   5.295  18.683  0.00  0.00    +0.000 A 
ATOM     33  C   UNL     1       8.355   6.488  18.744  0.00  0.00    +0.000 A 
ATOM     34  C   UNL     1       7.849   7.632  18.125  0.00  0.00    +0.000 A 
ATOM     35  C   UNL     1       6.619   7.583  17.470  0.00  0.00    +0.000 A 
ENDBRANCH  29  30
ENDBRANCH  10  29
TORSDOF 5
ENDMDL
MODEL 2
REMARK VINA RESULT:      -9.7      0.900      1.232
REMARK  Name = 
REMARK  7 active torsions:
REMARK  status: ('A' for Active; 'I' for Inactive)
REMARK    1  A    between atoms: C_1  and  O_2
REMARK    2  A    between atoms: O_2  and  C_3
REMARK    3  A    between atoms: C_10  and  C_11
REMARK    4  A    between atoms: C_11  and  O_12
REMARK    5  A    between atoms: N_21  and  C_22
REMARK    6  A    between atoms: C_22  and  C_23
REMARK    7  A    between atoms: N_32  and  C_33
REMARK                            x       y       z     vdW  Elec       q    Type
REMARK                         _______ _______ _______ _____ _____    ______ ____
ROOT
ATOM      1  C   UNL     1       2.920   6.218  19.019  0.00  0.00    +0.000 C 
ATOM      2  C   UNL     1       2.103   5.017  19.442  0.00  0.00    +0.000 A 
ATOM      3  C   UNL     1       1.307   4.796  20.557  0.00  0.00    +0.000 A 
ATOM      4  C   UNL     1       0.660   3.558  20.679  0.00  0.00    +0.000 A 
ATOM      5  C   UNL     1       0.814   2.556  19.703  0.00  0.00    +0.000 A 
ATOM      6  C   UNL     1       1.624   2.773  18.590  0.00  0.00    +0.000 A 
ATOM      7  C   UNL     1       2.247   4.003  18.493  0.00  0.00    +0.000 A 
ATOM      8  C   UNL     1       3.118   4.493  17.425  0.00  0.00    +0.000 C 
ATOM      9  O   UNL     1       3.502   3.807  16.497  0.00  0.00    +0.000 OA
ATOM     10  N   UNL     1       3.381   5.822  17.699  0.00  0.00    +0.000 N 
ENDROOT
BRANCH   1  18
ATOM     11  C   UNL     1      -1.182  11.782  22.928  0.00  0.00    +0.000 C 
ATOM     12  O   UNL     1      -0.999  10.815  23.655  0.00  0.00    +0.000 OA
ATOM     13  N   UNL     1      -0.957  11.899  21.585  0.00  0.00    +0.000 N 
ATOM     14  C   UNL     1      -0.284  10.939  20.867  0.00  0.00    +0.000 A 
ATOM     15  N   UNL     1       0.219   9.820  21.335  0.00  0.00    +0.000 NA
ATOM     16  C   UNL     1       0.852   9.207  20.291  0.00  0.00    +0.000 A 
ATOM     17  C   UNL     1       1.577   8.004  20.273  0.00  0.00    +0.000 A 
ATOM     18  C   UNL     1       2.152   7.537  19.069  0.00  0.00    +0.000 A 
ATOM     19  C   UNL     1       1.976   8.315  17.907  0.00  0.00    +0.000 A 
ATOM     20  C   UNL     1       1.261   9.525  17.908  0.00  0.00    +0.000 A 
ATOM     21  C   UNL     1       0.715   9.947  19.124  0.00  0.00    +0.000 A 
ATOM     22  N   UNL     1      -0.005  11.056  19.518  0.00  0.00    +0.000 N 
ATOM     23  C   UNL     1      -0.370  12.160  18.664  0.00  0.00    +0.000 C 
ATOM     24  H   UNL     1      -1.234  12.771  21.168  0.00  0.00    +0.000 HD
BRANCH  11  26
ATOM     25  C   UNL     1      -3.052  13.178  23.075  0.00  0.00    +0.000 C 
ATOM     26  O   UNL     1      -1.670  12.972  23.385  0.00  0.00    +0.000 OA
ENDBRANCH  11  26
ENDBRANCH   1  18
BRANCH   1  27
ATOM     27  O   UNL     1       4.075   6.264  19.847  0.00  0.00    +0.000 OA
ATOM     28  H   UNL     1       3.761   6.157  20.760  0.00  0.00    +0.000 HD
ENDBRANCH   1  27
BRANCH  10  29
ATOM     29  C   UNL     1       4.284   6.613  16.885  0.00  0.00    +0.000 C 
BRANCH  29  30
ATOM     30  C   UNL     1       5.580   5.877  16.626  0.00  0.00    +0.000 A 
ATOM     31  C   UNL     1       5.942   5.512  15.322  0.00  0.00    +0.000 A 
ATOM     32  C   UNL     1       7.081   4.738  15.092  0.00  0.00    +0.000 A 
ATOM     33  C   UNL     1       7.882   4.335  16.157  0.00  0.00    +0.000 A 
ATOM     34  C   UNL     1       7.553   4.720  17.457  0.00  0.00    +0.000 A 
ATOM     35  C   UNL     1       6.410   5.485  17.689  0.00  0.00    +0.000 A 
ENDBRANCH  29  30
ENDBRANCH  10  29
TORSDOF 5
ENDMDL
MODEL 3
REMARK VINA RESULT:      -9.6      2.705      8.578
REMARK  Name = 
REMARK  7 active torsions:
REMARK  status: ('A' for Active; 'I' for Inactive)
REMARK    1  A    between atoms: C_1  and  O_2
REMARK    2  A    between atoms: O_2  and  C_3
REMARK    3  A    between atoms: C_10  and  C_11
REMARK    4  A    between atoms: C_11  and  O_12
REMARK    5  A    between atoms: N_21  and  C_22
REMARK    6  A    between atoms: C_22  and  C_23
REMARK    7  A    between atoms: N_32  and  C_33
REMARK                            x       y       z     vdW  Elec       q    Type
REMARK                         _______ _______ _______ _____ _____    ______ ____
ROOT
ATOM      1  C   UNL     1       0.080  11.061  18.768  0.00  0.00    +0.000 C 
ATOM      2  C   UNL     1      -1.307  10.833  18.206  0.00  0.00    +0.000 A 
ATOM      3  C   UNL     1      -1.740  10.125  17.094  0.00  0.00    +0.000 A 
ATOM      4  C   UNL     1      -3.115  10.091  16.820  0.00  0.00    +0.000 A 
ATOM      5  C   UNL     1      -4.039  10.760  17.644  0.00  0.00    +0.000 A 
ATOM      6  C   UNL     1      -3.602  11.482  18.753  0.00  0.00    +0.000 A 
ATOM      7  C   UNL     1      -2.242  11.496  19.002  0.00  0.00    +0.000 A 
ATOM      8  C   UNL     1      -1.532  12.146  20.102  0.00  0.00    +0.000 C 
ATOM      9  O   UNL     1      -2.066  12.875  20.916  0.00  0.00    +0.000 OA
ATOM     10  N   UNL     1      -0.207  11.763  20.008  0.00  0.00    +0.000 N 
ENDROOT
BRANCH   1  18
ATOM     11  C   UNL     1       5.483   5.861  16.154  0.00  0.00    +0.000 C 
ATOM     12  O   UNL     1       5.224   6.667  15.272  0.00  0.00    +0.000 OA
ATOM     13  N   UNL     1       4.847   5.662  17.347  0.00  0.00    +0.000 N 
ATOM     14  C   UNL     1       3.879   6.519  17.815  0.00  0.00    +0.000 A 
ATOM     15  N   UNL     1       3.440   7.604  17.220  0.00  0.00    +0.000 NA
ATOM     16  C   UNL     1       2.534   8.177  18.067  0.00  0.00    +0.000 A 
ATOM     17  C   UNL     1       1.806   9.370  17.917  0.00  0.00    +0.000 A 
ATOM     18  C   UNL     1       0.902   9.783  18.922  0.00  0.00    +0.000 A 
ATOM     19  C   UNL     1       0.765   8.969  20.064  0.00  0.00    +0.000 A 
ATOM     20  C   UNL     1       1.491   7.778  20.235  0.00  0.00    +0.000 A 
ATOM     21  C   UNL     1       2.376   7.413  19.215  0.00  0.00    +0.000 A 
ATOM     22  N   UNL     1       3.254   6.364  19.039  0.00  0.00    +0.000 N 
ATOM     23  C   UNL     1       3.493   5.307  19.991  0.00  0.00    +0.000 C 
ATOM     24  H   UNL     1       5.190   4.900  17.906  0.00  0.00    +0.000 HD
BRANCH  11  26
ATOM     25  C   UNL     1       7.237   4.828  17.305  0.00  0.00    +0.000 C 
ATOM     26  O   UNL     1       6.524   4.982  16.073  0.00  0.00    +0.000 OA
ENDBRANCH  11  26
ENDBRANCH   1  18
BRANCH   1  27
ATOM     27  O   UNL     1       0.736  11.997  17.922  0.00  0.00    +0.000 OA
ATOM     28  H   UNL     1       0.399  12.873  18.172  0.00  0.00    +0.000 HD
ENDBRANCH   1  27
BRANCH  10  29
ATOM     29  C   UNL     1       0.813  12.285  20.898  0.00  0.00    +0.000 C 
BRANCH  29  30
ATOM     30  C   UNL     1       1.444  13.539  20.335  0.00  0.00    +0.000 A 
ATOM     31  C   UNL     1       0.675  14.693  20.131  0.00  0.00    +0.000 A 
ATOM     32  C   UNL     1       1.228  15.815  19.511  0.00  0.00    +0.000 A 
ATOM     33  C   UNL     1       2.561  15.806  19.106  0.00  0.00    +0.000 A 
ATOM     34  C   UNL     1       3.348  14.677  19.334  0.00  0.00    +0.000 A 
ATOM     35  C   UNL     1       2.793  13.552  19.944  0.00  0.00    +0.000 A 
ENDBRANCH  29  30
ENDBRANCH  10  29
TORSDOF 5
ENDMDL
MODEL 4
REMARK VINA RESULT:      -9.5      1.217      1.731
REMARK  Name = 
REMARK  7 active torsions:
REMARK  status: ('A' for Active; 'I' for Inactive)
REMARK    1  A    between atoms: C_1  and  O_2
REMARK    2  A    between atoms: O_2  and  C_3
REMARK    3  A    between atoms: C_10  and  C_11
REMARK    4  A    between atoms: C_11  and  O_12
REMARK    5  A    between atoms: N_21  and  C_22
REMARK    6  A    between atoms: C_22  and  C_23
REMARK    7  A    between atoms: N_32  and  C_33
REMARK                            x       y       z     vdW  Elec       q    Type
REMARK                         _______ _______ _______ _____ _____    ______ ____
ROOT
ATOM      1  C   UNL     1       3.121   5.336  19.566  0.00  0.00    +0.000 C 
ATOM      2  C   UNL     1       2.126   4.206  19.417  0.00  0.00    +0.000 A 
ATOM      3  C   UNL     1       0.903   3.974  20.031  0.00  0.00    +0.000 A 
ATOM      4  C   UNL     1       0.191   2.818  19.682  0.00  0.00    +0.000 A 
ATOM      5  C   UNL     1       0.699   1.906  18.738  0.00  0.00    +0.000 A 
ATOM      6  C   UNL     1       1.932   2.133  18.131  0.00  0.00    +0.000 A 
ATOM      7  C   UNL     1       2.612   3.282  18.490  0.00  0.00    +0.000 A 
ATOM      8  C   UNL     1       3.897   3.766  17.988  0.00  0.00    +0.000 C 
ATOM      9  O   UNL     1       4.609   3.134  17.231  0.00  0.00    +0.000 OA
ATOM     10  N   UNL     1       4.095   5.020  18.535  0.00  0.00    +0.000 N 
ENDROOT
BRANCH   1  18
ATOM     11  C   UNL     1      -0.801  11.489  22.699  0.00  0.00    +0.000 C 
ATOM     12  O   UNL     1      -0.811  10.549  23.482  0.00  0.00    +0.000 OA
ATOM     13  N   UNL     1      -0.404  11.510  21.392  0.00  0.00    +0.000 N 
ATOM     14  C   UNL     1       0.243  10.450  20.803  0.00  0.00    +0.000 A 
ATOM     15  N   UNL     1       0.564   9.312  21.376  0.00  0.00    +0.000 NA
ATOM     16  C   UNL     1       1.248   8.583  20.446  0.00  0.00    +0.000 A 
ATOM     17  C   UNL     1       1.837   7.313  20.568  0.00  0.00    +0.000 A 
ATOM     18  C   UNL     1       2.499   6.726  19.465  0.00  0.00    +0.000 A 
ATOM     19  C   UNL     1       2.549   7.455  18.260  0.00  0.00    +0.000 A 
ATOM     20  C   UNL     1       1.973   8.729  18.122  0.00  0.00    +0.000 A 
ATOM     21  C   UNL     1       1.333   9.270  19.242  0.00  0.00    +0.000 A 
ATOM     22  N   UNL     1       0.694  10.466  19.496  0.00  0.00    +0.000 N 
ATOM     23  C   UNL     1       0.555  11.553  18.559  0.00  0.00    +0.000 C 
ATOM     24  H   UNL     1      -0.534  12.383  20.908  0.00  0.00    +0.000 HD
BRANCH  11  26
ATOM     25  C   UNL     1      -2.617  12.840  23.288  0.00  0.00    +0.000 C 
ATOM     26  O   UNL     1      -1.209  12.745  23.043  0.00  0.00    +0.000 OA
ENDBRANCH  11  26
ENDBRANCH   1  18
BRANCH   1  27
ATOM     27  O   UNL     1       3.786   5.158  20.810  0.00  0.00    +0.000 OA
ATOM     28  H   UNL     1       3.239   4.544  21.328  0.00  0.00    +0.000 HD
ENDBRANCH   1  27
BRANCH  10  29
ATOM     29  C   UNL     1       5.316   5.772  18.315  0.00  0.00    +0.000 C 
BRANCH  29  30
ATOM     30  C   UNL     1       5.843   5.570  16.912  0.00  0.00    +0.000 A 
ATOM     31  C   UNL     1       5.091   5.983  15.803  0.00  0.00    +0.000 A 
ATOM     32  C   UNL     1       5.523   5.700  14.507  0.00  0.00    +0.000 A 
ATOM     33  C   UNL     1       6.720   5.019  14.300  0.00  0.00    +0.000 A 
ATOM     34  C   UNL     1       7.497   4.632  15.393  0.00  0.00    +0.000 A 
ATOM     35  C   UNL     1       7.060   4.906  16.689  0.00  0.00    +0.000 A 
ENDBRANCH  29  30
ENDBRANCH  10  29
TORSDOF 5
ENDMDL
MODEL 5
REMARK VINA RESULT:      -9.3      2.810      8.611
REMARK  Name = 
REMARK  7 active torsions:
REMARK  status: ('A' for Active; 'I' for Inactive)
REMARK    1  A    between atoms: C_1  and  O_2
REMARK    2  A    between atoms: O_2  and  C_3
REMARK    3  A    between atoms: C_10  and  C_11
REMARK    4  A    between atoms: C_11  and  O_12
REMARK    5  A    between atoms: N_21  and  C_22
REMARK    6  A    between atoms: C_22  and  C_23
REMARK    7  A    between atoms: N_32  and  C_33
REMARK                            x       y       z     vdW  Elec       q    Type
REMARK                         _______ _______ _______ _____ _____    ______ ____
ROOT
ATOM      1  C   UNL     1       0.240  11.442  18.862  0.00  0.00    +0.000 C 
ATOM      2  C   UNL     1      -1.242  11.303  18.584  0.00  0.00    +0.000 A 
ATOM      3  C   UNL     1      -1.932  10.549  17.646  0.00  0.00    +0.000 A 
ATOM      4  C   UNL     1      -3.332  10.627  17.628  0.00  0.00    +0.000 A 
ATOM      5  C   UNL     1      -4.028  11.450  18.533  0.00  0.00    +0.000 A 
ATOM      6  C   UNL     1      -3.334  12.217  19.466  0.00  0.00    +0.000 A 
ATOM      7  C   UNL     1      -1.954  12.120  19.464  0.00  0.00    +0.000 A 
ATOM      8  C   UNL     1      -1.000  12.788  20.347  0.00  0.00    +0.000 C 
ATOM      9  O   UNL     1      -1.312  13.632  21.166  0.00  0.00    +0.000 OA
ATOM     10  N   UNL     1       0.248  12.270  20.056  0.00  0.00    +0.000 N 
ENDROOT
BRANCH   1  18
ATOM     11  C   UNL     1       5.291   5.937  16.170  0.00  0.00    +0.000 C 
ATOM     12  O   UNL     1       5.094   6.777  15.304  0.00  0.00    +0.000 OA
ATOM     13  N   UNL     1       4.634   5.758  17.355  0.00  0.00    +0.000 N 
ATOM     14  C   UNL     1       3.724   6.670  17.836  0.00  0.00    +0.000 A 
ATOM     15  N   UNL     1       3.365   7.794  17.261  0.00  0.00    +0.000 NA
ATOM     16  C   UNL     1       2.495   8.411  18.115  0.00  0.00    +0.000 A 
ATOM     17  C   UNL     1       1.852   9.654  17.986  0.00  0.00    +0.000 A 
ATOM     18  C   UNL     1       0.971  10.108  18.994  0.00  0.00    +0.000 A 
ATOM     19  C   UNL     1       0.771   9.282  20.117  0.00  0.00    +0.000 A 
ATOM     20  C   UNL     1       1.412   8.040  20.268  0.00  0.00    +0.000 A 
ATOM     21  C   UNL     1       2.277   7.636  19.246  0.00  0.00    +0.000 A 
ATOM     22  N   UNL     1       3.081   6.533  19.052  0.00  0.00    +0.000 N 
ATOM     23  C   UNL     1       3.241   5.443  19.983  0.00  0.00    +0.000 C 
ATOM     24  H   UNL     1       4.920   4.962  17.900  0.00  0.00    +0.000 HD
BRANCH  11  26
ATOM     25  C   UNL     1       7.080   4.891  17.253  0.00  0.00    +0.000 C 
ATOM     26  O   UNL     1       6.270   4.990  16.077  0.00  0.00    +0.000 OA
ENDBRANCH  11  26
ENDBRANCH   1  18
BRANCH   1  27
ATOM     27  O   UNL     1       0.797  12.234  17.822  0.00  0.00    +0.000 OA
ATOM     28  H   UNL     1       1.244  11.618  17.218  0.00  0.00    +0.000 HD
ENDBRANCH   1  27
BRANCH  10  29
ATOM     29  C   UNL     1       1.456  12.764  20.691  0.00  0.00    +0.000 C 
BRANCH  29  30
ATOM     30  C   UNL     1       2.048  13.924  19.921  0.00  0.00    +0.000 A 
ATOM     31  C   UNL     1       3.223  13.756  19.175  0.00  0.00    +0.000 A 
ATOM     32  C   UNL     1       3.831  14.849  18.554  0.00  0.00    +0.000 A 
ATOM     33  C   UNL     1       3.264  16.117  18.653  0.00  0.00    +0.000 A 
ATOM     34  C   UNL     1       2.076  16.292  19.363  0.00  0.00    +0.000 A 
ATOM     35  C   UNL     1       1.473  15.203  19.992  0.00  0.00    +0.000 A 
ENDBRANCH  29  30
ENDBRANCH  10  29
TORSDOF 5
ENDMDL
MODEL 6
REMARK VINA RESULT:      -9.2      2.830      8.937
REMARK  Name = 
REMARK  7 active torsions:
REMARK  status: ('A' for Active; 'I' for Inactive)
REMARK    1  A    between atoms: C_1  and  O_2
REMARK    2  A    between atoms: O_2  and  C_3
REMARK    3  A    between atoms: C_10  and  C_11
REMARK    4  A    between atoms: C_11  and  O_12
REMARK    5  A    between atoms: N_21  and  C_22
REMARK    6  A    between atoms: C_22  and  C_23
REMARK    7  A    between atoms: N_32  and  C_33
REMARK                            x       y       z     vdW  Elec       q    Type
REMARK                         _______ _______ _______ _____ _____    ______ ____
ROOT
ATOM      1  C   UNL     1       0.016  11.159  18.761  0.00  0.00    +0.000 C 
ATOM      2  C   UNL     1      -1.361  10.927  18.177  0.00  0.00    +0.000 A 
ATOM      3  C   UNL     1      -1.771  10.244  17.041  0.00  0.00    +0.000 A 
ATOM      4  C   UNL     1      -3.142  10.197  16.752  0.00  0.00    +0.000 A 
ATOM      5  C   UNL     1      -4.085  10.829  17.584  0.00  0.00    +0.000 A 
ATOM      6  C   UNL     1      -3.671  11.526  18.717  0.00  0.00    +0.000 A 
ATOM      7  C   UNL     1      -2.315  11.553  18.982  0.00  0.00    +0.000 A 
ATOM      8  C   UNL     1      -1.626  12.182  20.108  0.00  0.00    +0.000 C 
ATOM      9  O   UNL     1      -2.180  12.880  20.935  0.00  0.00    +0.000 OA
ATOM     10  N   UNL     1      -0.295  11.821  20.017  0.00  0.00    +0.000 N 
ENDROOT
BRANCH   1  18
ATOM     11  C   UNL     1       5.394   6.022  15.979  0.00  0.00    +0.000 C 
ATOM     12  O   UNL     1       5.100   6.827  15.106  0.00  0.00    +0.000 OA
ATOM     13  N   UNL     1       4.796   5.814  17.189  0.00  0.00    +0.000 N 
ATOM     14  C   UNL     1       3.833   6.660  17.688  0.00  0.00    +0.000 A 
ATOM     15  N   UNL     1       3.365   7.741  17.108  0.00  0.00    +0.000 NA
ATOM     16  C   UNL     1       2.479   8.303  17.983  0.00  0.00    +0.000 A 
ATOM     17  C   UNL     1       1.734   9.488  17.857  0.00  0.00    +0.000 A 
ATOM     18  C   UNL     1       0.856   9.890  18.889  0.00  0.00    +0.000 A 
ATOM     19  C   UNL     1       0.762   9.073  20.032  0.00  0.00    +0.000 A 
ATOM     20  C   UNL     1       1.505   7.890  20.180  0.00  0.00    +0.000 A 
ATOM     21  C   UNL     1       2.363   7.535  19.133  0.00  0.00    +0.000 A 
ATOM     22  N   UNL     1       3.247   6.496  18.929  0.00  0.00    +0.000 N 
ATOM     23  C   UNL     1       3.525   5.440  19.871  0.00  0.00    +0.000 C 
ATOM     24  H   UNL     1       5.164   5.055  17.737  0.00  0.00    +0.000 HD
BRANCH  11  26
ATOM     25  C   UNL     1       6.086   3.910  15.251  0.00  0.00    +0.000 C 
ATOM     26  O   UNL     1       6.442   5.154  15.865  0.00  0.00    +0.000 OA
ENDBRANCH  11  26
ENDBRANCH   1  18
BRANCH   1  27
ATOM     27  O   UNL     1       0.667  12.129  17.950  0.00  0.00    +0.000 OA
ATOM     28  H   UNL     1      -0.033  12.579  17.448  0.00  0.00    +0.000 HD
ENDBRANCH   1  27
BRANCH  10  29
ATOM     29  C   UNL     1       0.707  12.334  20.933  0.00  0.00    +0.000 C 
BRANCH  29  30
ATOM     30  C   UNL     1       0.731  13.846  20.934  0.00  0.00    +0.000 A 
ATOM     31  C   UNL     1       1.137  14.551  19.792  0.00  0.00    +0.000 A 
ATOM     32  C   UNL     1       1.265  15.941  19.824  0.00  0.00    +0.000 A 
ATOM     33  C   UNL     1       0.970  16.645  20.989  0.00  0.00    +0.000 A 
ATOM     34  C   UNL     1       0.532  15.960  22.122  0.00  0.00    +0.000 A 
ATOM     35  C   UNL     1       0.414  14.570  22.094  0.00  0.00    +0.000 A 
ENDBRANCH  29  30
ENDBRANCH  10  29
TORSDOF 5
ENDMDL
MODEL 7
REMARK VINA RESULT:      -9.2      2.941      8.754
REMARK  Name = 
REMARK  7 active torsions:
REMARK  status: ('A' for Active; 'I' for Inactive)
REMARK    1  A    between atoms: C_1  and  O_2
REMARK    2  A    between atoms: O_2  and  C_3
REMARK    3  A    between atoms: C_10  and  C_11
REMARK    4  A    between atoms: C_11  and  O_12
REMARK    5  A    between atoms: N_21  and  C_22
REMARK    6  A    between atoms: C_22  and  C_23
REMARK    7  A    between atoms: N_32  and  C_33
REMARK                            x       y       z     vdW  Elec       q    Type
REMARK                         _______ _______ _______ _____ _____    ______ ____
ROOT
ATOM      1  C   UNL     1       0.363  11.780  18.902  0.00  0.00    +0.000 C 
ATOM      2  C   UNL     1      -1.150  11.737  18.868  0.00  0.00    +0.000 A 
ATOM      3  C   UNL     1      -2.028  10.991  18.095  0.00  0.00    +0.000 A 
ATOM      4  C   UNL     1      -3.405  11.169  18.293  0.00  0.00    +0.000 A 
ATOM      5  C   UNL     1      -3.892  12.084  19.246  0.00  0.00    +0.000 A 
ATOM      6  C   UNL     1      -3.010  12.841  20.013  0.00  0.00    +0.000 A 
ATOM      7  C   UNL     1      -1.658  12.644  19.800  0.00  0.00    +0.000 A 
ATOM      8  C   UNL     1      -0.533  13.281  20.483  0.00  0.00    +0.000 C 
ATOM      9  O   UNL     1      -0.655  14.184  21.289  0.00  0.00    +0.000 OA
ATOM     10  N   UNL     1       0.616  12.661  20.030  0.00  0.00    +0.000 N 
ENDROOT
BRANCH   1  18
ATOM     11  C   UNL     1       5.148   6.105  16.081  0.00  0.00    +0.000 C 
ATOM     12  O   UNL     1       5.010   6.984  15.243  0.00  0.00    +0.000 OA
ATOM     13  N   UNL     1       4.465   5.920  17.250  0.00  0.00    +0.000 N 
ATOM     14  C   UNL     1       3.598   6.863  17.751  0.00  0.00    +0.000 A 
ATOM     15  N   UNL     1       3.309   8.025  17.212  0.00  0.00    +0.000 NA
ATOM     16  C   UNL     1       2.461   8.658  18.077  0.00  0.00    +0.000 A 
ATOM     17  C   UNL     1       1.889   9.938  17.984  0.00  0.00    +0.000 A 
ATOM     18  C   UNL     1       1.019  10.404  18.996  0.00  0.00    +0.000 A 
ATOM     19  C   UNL     1       0.757   9.551  20.086  0.00  0.00    +0.000 A 
ATOM     20  C   UNL     1       1.327   8.272  20.201  0.00  0.00    +0.000 A 
ATOM     21  C   UNL     1       2.184   7.857  19.176  0.00  0.00    +0.000 A 
ATOM     22  N   UNL     1       2.931   6.718  18.953  0.00  0.00    +0.000 N 
ATOM     23  C   UNL     1       3.017   5.589  19.847  0.00  0.00    +0.000 C 
ATOM     24  H   UNL     1       4.699   5.091  17.770  0.00  0.00    +0.000 HD
BRANCH  11  26
ATOM     25  C   UNL     1       6.562   4.936  14.631  0.00  0.00    +0.000 C 
ATOM     26  O   UNL     1       6.075   5.109  15.966  0.00  0.00    +0.000 OA
ENDBRANCH  11  26
ENDBRANCH   1  18
BRANCH   1  27
ATOM     27  O   UNL     1       0.797  12.479  17.744  0.00  0.00    +0.000 OA
ATOM     28  H   UNL     1       1.185  11.814  17.152  0.00  0.00    +0.000 HD
ENDBRANCH   1  27
BRANCH  10  29
ATOM     29  C   UNL     1       1.939  13.095  20.438  0.00  0.00    +0.000 C 
BRANCH  29  30
ATOM     30  C   UNL     1       2.467  14.182  19.528  0.00  0.00    +0.000 A 
ATOM     31  C   UNL     1       1.804  15.414  19.433  0.00  0.00    +0.000 A 
ATOM     32  C   UNL     1       2.225  16.377  18.514  0.00  0.00    +0.000 A 
ATOM     33  C   UNL     1       3.323  16.131  17.694  0.00  0.00    +0.000 A 
ATOM     34  C   UNL     1       4.013  14.924  17.802  0.00  0.00    +0.000 A 
ATOM     35  C   UNL     1       3.587  13.957  18.712  0.00  0.00    +0.000 A 
ENDBRANCH  29  30
ENDBRANCH  10  29
TORSDOF 5
ENDMDL
MODEL 8
REMARK VINA RESULT:      -8.9      2.728      8.821
REMARK  Name = 
REMARK  7 active torsions:
REMARK  status: ('A' for Active; 'I' for Inactive)
REMARK    1  A    between atoms: C_1  and  O_2
REMARK    2  A    between atoms: O_2  and  C_3
REMARK    3  A    between atoms: C_10  and  C_11
REMARK    4  A    between atoms: C_11  and  O_12
REMARK    5  A    between atoms: N_21  and  C_22
REMARK    6  A    between atoms: C_22  and  C_23
REMARK    7  A    between atoms: N_32  and  C_33
REMARK                            x       y       z     vdW  Elec       q    Type
REMARK                         _______ _______ _______ _____ _____    ______ ____
ROOT
ATOM      1  C   UNL     1       0.415  11.533  20.460  0.00  0.00    +0.000 C 
ATOM      2  C   UNL     1       1.238  12.798  20.353  0.00  0.00    +0.000 A 
ATOM      3  C   UNL     1       2.569  13.053  20.651  0.00  0.00    +0.000 A 
ATOM      4  C   UNL     1       3.061  14.349  20.445  0.00  0.00    +0.000 A 
ATOM      5  C   UNL     1       2.231  15.375  19.954  0.00  0.00    +0.000 A 
ATOM      6  C   UNL     1       0.891  15.121  19.667  0.00  0.00    +0.000 A 
ATOM      7  C   UNL     1       0.433  13.834  19.876  0.00  0.00    +0.000 A 
ATOM      8  C   UNL     1      -0.906  13.301  19.632  0.00  0.00    +0.000 C 
ATOM      9  O   UNL     1      -1.855  13.983  19.295  0.00  0.00    +0.000 OA
ATOM     10  N   UNL     1      -0.843  11.938  19.855  0.00  0.00    +0.000 N 
ENDROOT
BRANCH   1  18
ATOM     11  C   UNL     1       2.584   3.895  20.591  0.00  0.00    +0.000 C 
ATOM     12  O   UNL     1       2.162   4.224  21.690  0.00  0.00    +0.000 OA
ATOM     13  N   UNL     1       2.883   4.684  19.516  0.00  0.00    +0.000 N 
ATOM     14  C   UNL     1       2.558   6.019  19.473  0.00  0.00    +0.000 A 
ATOM     15  N   UNL     1       1.942   6.706  20.407  0.00  0.00    +0.000 NA
ATOM     16  C   UNL     1       1.770   7.969  19.916  0.00  0.00    +0.000 A 
ATOM     17  C   UNL     1       1.135   9.075  20.508  0.00  0.00    +0.000 A 
ATOM     18  C   UNL     1       1.074  10.310  19.824  0.00  0.00    +0.000 A 
ATOM     19  C   UNL     1       1.659  10.388  18.545  0.00  0.00    +0.000 A 
ATOM     20  C   UNL     1       2.290   9.291  17.934  0.00  0.00    +0.000 A 
ATOM     21  C   UNL     1       2.322   8.088  18.648  0.00  0.00    +0.000 A 
ATOM     22  N   UNL     1       2.810   6.827  18.379  0.00  0.00    +0.000 N 
ATOM     23  C   UNL     1       3.446   6.423  17.148  0.00  0.00    +0.000 C 
ATOM     24  H   UNL     1       3.277   4.212  18.720  0.00  0.00    +0.000 HD
BRANCH  11  26
ATOM     25  C   UNL     1       2.000   2.119  19.185  0.00  0.00    +0.000 C 
ATOM     26  O   UNL     1       2.831   2.596  20.249  0.00  0.00    +0.000 OA
ENDBRANCH  11  26
ENDBRANCH   1  18
BRANCH   1  27
ATOM     27  O   UNL     1       0.143  11.314  21.837  0.00  0.00    +0.000 OA
ATOM     28  H   UNL     1       0.955  10.943  22.221  0.00  0.00    +0.000 HD
ENDBRANCH   1  27
BRANCH  10  29
ATOM     29  C   UNL     1      -2.018  11.090  19.783  0.00  0.00    +0.000 C 
BRANCH  29  30
ATOM     30  C   UNL     1      -2.493  10.927  18.356  0.00  0.00    +0.000 A 
ATOM     31  C   UNL     1      -3.686  11.527  17.930  0.00  0.00    +0.000 A 
ATOM     32  C   UNL     1      -4.182  11.289  16.647  0.00  0.00    +0.000 A 
ATOM     33  C   UNL     1      -3.484  10.465  15.767  0.00  0.00    +0.000 A 
ATOM     34  C   UNL     1      -2.278   9.888  16.166  0.00  0.00    +0.000 A 
ATOM     35  C   UNL     1      -1.787  10.117  17.451  0.00  0.00    +0.000 A 
ENDBRANCH  29  30
ENDBRANCH  10  29
TORSDOF 5
ENDMDL
MODEL 9
REMARK VINA RESULT:      -8.8      1.977      2.836
REMARK  Name = 
REMARK  7 active torsions:
REMARK  status: ('A' for Active; 'I' for Inactive)
REMARK    1  A    between atoms: C_1  and  O_2
REMARK    2  A    between atoms: O_2  and  C_3
REMARK    3  A    between atoms: C_10  and  C_11
REMARK    4  A    between atoms: C_11  and  O_12
REMARK    5  A    between atoms: N_21  and  C_22
REMARK    6  A    between atoms: C_22  and  C_23
REMARK    7  A    between atoms: N_32  and  C_33
REMARK                            x       y       z     vdW  Elec       q    Type
REMARK                         _______ _______ _______ _____ _____    ______ ____
ROOT
ATOM      1  C   UNL     1       2.893   5.810  19.491  0.00  0.00    +0.000 C 
ATOM      2  C   UNL     1       2.201   4.508  19.832  0.00  0.00    +0.000 A 
ATOM      3  C   UNL     1       1.637   4.052  21.015  0.00  0.00    +0.000 A 
ATOM      4  C   UNL     1       1.055   2.776  21.027  0.00  0.00    +0.000 A 
ATOM      5  C   UNL     1       1.044   1.969  19.874  0.00  0.00    +0.000 A 
ATOM      6  C   UNL     1       1.621   2.422  18.689  0.00  0.00    +0.000 A 
ATOM      7  C   UNL     1       2.185   3.685  18.704  0.00  0.00    +0.000 A 
ATOM      8  C   UNL     1       2.824   4.402  17.602  0.00  0.00    +0.000 C 
ATOM      9  O   UNL     1       3.040   3.911  16.510  0.00  0.00    +0.000 OA
ATOM     10  N   UNL     1       3.102   5.676  18.059  0.00  0.00    +0.000 N 
ENDROOT
BRANCH   1  18
ATOM     11  C   UNL     1       0.756  13.397  18.528  0.00  0.00    +0.000 C 
ATOM     12  O   UNL     1       1.652  13.117  17.745  0.00  0.00    +0.000 OA
ATOM     13  N   UNL     1       0.281  12.670  19.583  0.00  0.00    +0.000 N 
ATOM     14  C   UNL     1       0.658  11.366  19.805  0.00  0.00    +0.000 A 
ATOM     15  N   UNL     1       1.487  10.656  19.075  0.00  0.00    +0.000 NA
ATOM     16  C   UNL     1       1.516   9.404  19.622  0.00  0.00    +0.000 A 
ATOM     17  C   UNL     1       2.219   8.264  19.196  0.00  0.00    +0.000 A 
ATOM     18  C   UNL     1       2.116   7.054  19.919  0.00  0.00    +0.000 A 
ATOM     19  C   UNL     1       1.292   7.033  21.061  0.00  0.00    +0.000 A 
ATOM     20  C   UNL     1       0.576   8.161  21.497  0.00  0.00    +0.000 A 
ATOM     21  C   UNL     1       0.706   9.334  20.747  0.00  0.00    +0.000 A 
ATOM     22  N   UNL     1       0.157  10.597  20.839  0.00  0.00    +0.000 N 
ATOM     23  C   UNL     1      -0.800  11.020  21.832  0.00  0.00    +0.000 C 
ATOM     24  H   UNL     1      -0.429  13.115  20.140  0.00  0.00    +0.000 HD
BRANCH  11  26
ATOM     25  C   UNL     1       0.783  15.709  18.878  0.00  0.00    +0.000 C 
ATOM     26  O   UNL     1       0.042  14.559  18.455  0.00  0.00    +0.000 OA
ENDBRANCH  11  26
ENDBRANCH   1  18
BRANCH   1  27
ATOM     27  O   UNL     1       4.183   5.778  20.087  0.00  0.00    +0.000 OA
ATOM     28  H   UNL     1       4.044   5.869  21.044  0.00  0.00    +0.000 HD
ENDBRANCH   1  27
BRANCH  10  29
ATOM     29  C   UNL     1       3.814   6.648  17.249  0.00  0.00    +0.000 C 
BRANCH  29  30
ATOM     30  C   UNL     1       5.095   6.067  16.692  0.00  0.00    +0.000 A 
ATOM     31  C   UNL     1       5.252   5.888  15.310  0.00  0.00    +0.000 A 
ATOM     32  C   UNL     1       6.386   5.252  14.802  0.00  0.00    +0.000 A 
ATOM     33  C   UNL     1       7.385   4.805  15.663  0.00  0.00    +0.000 A 
ATOM     34  C   UNL     1       7.258   5.007  17.038  0.00  0.00    +0.000 A 
ATOM     35  C   UNL     1       6.121   5.633  17.547  0.00  0.00    +0.000 A 
ENDBRANCH  29  30
ENDBRANCH  10  29
TORSDOF 5
ENDMDL
