MODEL 1
REMARK VINA RESULT:      -6.5      0.000      0.000
REMARK  Name = 
REMARK  4 active torsions:
REMARK  status: ('A' for Active; 'I' for Inactive)
REMARK    1  A    between atoms: C_1  and  C_2
REMARK    2  A    between atoms: C_8  and  C_9
REMARK    3  A    between atoms: C_9  and  S_10
REMARK    4  A    between atoms: S_10  and  C_11
REMARK                            x       y       z     vdW  Elec       q    Type
REMARK                         _______ _______ _______ _____ _____    ______ ____
ROOT
ATOM      1  C   UNL     1       1.333   5.197  20.142  0.00  0.00    +0.000 C 
ATOM      2  C   UNL     1       2.035   4.065  19.439  0.00  0.00    +0.000 A 
ATOM      3  C   UNL     1       1.694   2.739  19.785  0.00  0.00    +0.000 A 
ATOM      4  C   UNL     1       2.333   1.661  19.155  0.00  0.00    +0.000 A 
ATOM      5  C   UNL     1       3.312   1.893  18.188  0.00  0.00    +0.000 A 
ATOM      6  C   UNL     1       3.623   3.214  17.878  0.00  0.00    +0.000 A 
ATOM      7  N   UNL     1       4.547   3.588  16.975  0.00  0.00    +0.000 NA
ATOM      8  C   UNL     1       4.519   4.936  16.996  0.00  0.00    +0.000 A 
ATOM      9  C   UNL     1       3.557   5.359  17.919  0.00  0.00    +0.000 A 
ATOM     10 BR   UNL     1       3.120   7.192  18.281  0.00  0.00    +0.000 Br
ATOM     11  N   UNL     1       3.004   4.253  18.477  0.00  0.00    +0.000 N 
ENDROOT
BRANCH   8  12
ATOM     12  C   UNL     1       5.409   5.801  16.131  0.00  0.00    +0.000 C 
BRANCH  12  13
ATOM     13  S   UNL     1       6.665   6.653  17.170  0.00  0.00    +0.000 S 
BRANCH  13  14
ATOM     14  C   UNL     1       7.478   5.192  17.851  0.00  0.00    +0.000 C 
ATOM     15  N   UNL     1       7.867   4.242  17.081  0.00  0.00    +0.000 NA
ATOM     16  N   UNL     1       7.608   5.050  19.256  0.00  0.00    +0.000 N 
ATOM     17  H   UNL     1       7.750   4.298  16.060  0.00  0.00    +0.000 HD
ATOM     18  H   UNL     1       7.259   5.786  19.887  0.00  0.00    +0.000 HD
ATOM     19  H   UNL     1       8.007   4.191  19.662  0.00  0.00    +0.000 HD
ENDBRANCH  13  14
ENDBRANCH  12  13
ENDBRANCH   8  12
TORSDOF 3
ENDMDL
MODEL 2
REMARK VINA RESULT:      -6.5      0.900      1.045
REMARK  Name = 
REMARK  4 active torsions:
REMARK  status: ('A' for Active; 'I' for Inactive)
REMARK    1  A    between atoms: C_1  and  C_2
REMARK    2  A    between atoms: C_8  and  C_9
REMARK    3  A    between atoms: C_9  and  S_10
REMARK    4  A    between atoms: S_10  and  C_11
REMARK                            x       y       z     vdW  Elec       q    Type
REMARK                         _______ _______ _______ _____ _____    ______ ____
ROOT
ATOM      1  C   UNL     1       1.168   4.418  20.446  0.00  0.00    +0.000 C 
ATOM      2  C   UNL     1       2.005   3.630  19.473  0.00  0.00    +0.000 A 
ATOM      3  C   UNL     1       1.905   2.221  19.482  0.00  0.00    +0.000 A 
ATOM      4  C   UNL     1       2.676   1.456  18.594  0.00  0.00    +0.000 A 
ATOM      5  C   UNL     1       3.547   2.082  17.702  0.00  0.00    +0.000 A 
ATOM      6  C   UNL     1       3.620   3.472  17.727  0.00  0.00    +0.000 A 
ATOM      7  N   UNL     1       4.417   4.208  16.933  0.00  0.00    +0.000 NA
ATOM      8  C   UNL     1       4.170   5.485  17.289  0.00  0.00    +0.000 A 
ATOM      9  C   UNL     1       3.206   5.498  18.302  0.00  0.00    +0.000 A 
ATOM     10 BR   UNL     1       2.495   7.084  19.116  0.00  0.00    +0.000 Br
ATOM     11  N   UNL     1       2.874   4.211  18.575  0.00  0.00    +0.000 N 
ENDROOT
BRANCH   8  12
ATOM     12  C   UNL     1       4.856   6.675  16.655  0.00  0.00    +0.000 C 
BRANCH  12  13
ATOM     13  S   UNL     1       6.572   6.832  17.298  0.00  0.00    +0.000 S 
BRANCH  13  14
ATOM     14  C   UNL     1       7.293   5.394  16.477  0.00  0.00    +0.000 C 
ATOM     15  N   UNL     1       7.277   5.296  15.198  0.00  0.00    +0.000 NA
ATOM     16  N   UNL     1       7.802   4.323  17.254  0.00  0.00    +0.000 N 
ATOM     17  H   UNL     1       6.877   6.039  14.609  0.00  0.00    +0.000 HD
ATOM     18  H   UNL     1       7.780   4.371  18.283  0.00  0.00    +0.000 HD
ATOM     19  H   UNL     1       8.154   3.466  16.801  0.00  0.00    +0.000 HD
ENDBRANCH  13  14
ENDBRANCH  12  13
ENDBRANCH   8  12
TORSDOF 3
ENDMDL
MODEL 3
REMARK VINA RESULT:      -6.5      1.316      1.486
REMARK  Name = 
REMARK  4 active torsions:
REMARK  status: ('A' for Active; 'I' for Inactive)
REMARK    1  A    between atoms: C_1  and  C_2
REMARK    2  A    between atoms: C_8  and  C_9
REMARK    3  A    between atoms: C_9  and  S_10
REMARK    4  A    between atoms: S_10  and  C_11
REMARK                            x       y       z     vdW  Elec       q    Type
REMARK                         _______ _______ _______ _____ _____    ______ ____
ROOT
ATOM      1  C   UNL     1       1.753   6.379  20.642  0.00  0.00    +0.000 C 
ATOM      2  C   UNL     1       2.202   4.990  20.271  0.00  0.00    +0.000 A 
ATOM      3  C   UNL     1       1.884   3.923  21.139  0.00  0.00    +0.000 A 
ATOM      4  C   UNL     1       2.293   2.617  20.828  0.00  0.00    +0.000 A 
ATOM      5  C   UNL     1       3.020   2.368  19.663  0.00  0.00    +0.000 A 
ATOM      6  C   UNL     1       3.317   3.447  18.836  0.00  0.00    +0.000 A 
ATOM      7  N   UNL     1       4.013   3.359  17.689  0.00  0.00    +0.000 NA
ATOM      8  C   UNL     1       4.063   4.624  17.222  0.00  0.00    +0.000 A 
ATOM      9  C   UNL     1       3.378   5.464  18.104  0.00  0.00    +0.000 A 
ATOM     10 BR   UNL     1       3.141   7.352  17.855  0.00  0.00    +0.000 Br
ATOM     11  N   UNL     1       2.918   4.703  19.129  0.00  0.00    +0.000 N 
ENDROOT
BRANCH   8  12
ATOM     12  C   UNL     1       4.763   5.010  15.938  0.00  0.00    +0.000 C 
BRANCH  12  13
ATOM     13  S   UNL     1       6.332   4.066  15.764  0.00  0.00    +0.000 S 
BRANCH  13  14
ATOM     14  C   UNL     1       7.313   4.960  16.988  0.00  0.00    +0.000 C 
ATOM     15  N   UNL     1       7.734   4.369  18.047  0.00  0.00    +0.000 NA
ATOM     16  N   UNL     1       7.547   6.349  16.824  0.00  0.00    +0.000 N 
ATOM     17  H   UNL     1       7.545   3.371  18.214  0.00  0.00    +0.000 HD
ATOM     18  H   UNL     1       7.176   6.844  16.000  0.00  0.00    +0.000 HD
ATOM     19  H   UNL     1       8.046   6.887  17.549  0.00  0.00    +0.000 HD
ENDBRANCH  13  14
ENDBRANCH  12  13
ENDBRANCH   8  12
TORSDOF 3
ENDMDL
MODEL 4
REMARK VINA RESULT:      -6.4      2.020      2.967
REMARK  Name = 
REMARK  4 active torsions:
REMARK  status: ('A' for Active; 'I' for Inactive)
REMARK    1  A    between atoms: C_1  and  C_2
REMARK    2  A    between atoms: C_8  and  C_9
REMARK    3  A    between atoms: C_9  and  S_10
REMARK    4  A    between atoms: S_10  and  C_11
REMARK                            x       y       z     vdW  Elec       q    Type
REMARK                         _______ _______ _______ _____ _____    ______ ____
ROOT
ATOM      1  C   UNL     1       1.428   3.048  20.658  0.00  0.00    +0.000 C 
ATOM      2  C   UNL     1       1.872   4.392  20.143  0.00  0.00    +0.000 A 
ATOM      3  C   UNL     1       1.402   5.554  20.793  0.00  0.00    +0.000 A 
ATOM      4  C   UNL     1       1.789   6.821  20.335  0.00  0.00    +0.000 A 
ATOM      5  C   UNL     1       2.636   6.940  19.232  0.00  0.00    +0.000 A 
ATOM      6  C   UNL     1       3.074   5.772  18.616  0.00  0.00    +0.000 A 
ATOM      7  N   UNL     1       3.885   5.733  17.544  0.00  0.00    +0.000 NA
ATOM      8  C   UNL     1       4.048   4.419  17.287  0.00  0.00    +0.000 A 
ATOM      9  C   UNL     1       3.330   3.676  18.228  0.00  0.00    +0.000 A 
ATOM     10 BR   UNL     1       3.278   1.759  18.302  0.00  0.00    +0.000 Br
ATOM     11  N   UNL     1       2.709   4.551  19.060  0.00  0.00    +0.000 N 
ENDROOT
BRANCH   8  12
ATOM     12  C   UNL     1       4.892   3.892  16.147  0.00  0.00    +0.000 C 
BRANCH  12  13
ATOM     13  S   UNL     1       5.726   5.285  15.282  0.00  0.00    +0.000 S 
BRANCH  13  14
ATOM     14  C   UNL     1       7.118   5.501  16.412  0.00  0.00    +0.000 C 
ATOM     15  N   UNL     1       7.558   6.674  16.690  0.00  0.00    +0.000 NA
ATOM     16  N   UNL     1       7.788   4.363  16.928  0.00  0.00    +0.000 N 
ATOM     17  H   UNL     1       7.117   7.517  16.299  0.00  0.00    +0.000 HD
ATOM     18  H   UNL     1       7.471   3.415  16.676  0.00  0.00    +0.000 HD
ATOM     19  H   UNL     1       8.626   4.470  17.518  0.00  0.00    +0.000 HD
ENDBRANCH  13  14
ENDBRANCH  12  13
ENDBRANCH   8  12
TORSDOF 3
ENDMDL
MODEL 5
REMARK VINA RESULT:      -6.4      2.455      3.401
REMARK  Name = 
REMARK  4 active torsions:
REMARK  status: ('A' for Active; 'I' for Inactive)
REMARK    1  A    between atoms: C_1  and  C_2
REMARK    2  A    between atoms: C_8  and  C_9
REMARK    3  A    between atoms: C_9  and  S_10
REMARK    4  A    between atoms: S_10  and  C_11
REMARK                            x       y       z     vdW  Elec       q    Type
REMARK                         _______ _______ _______ _____ _____    ______ ____
ROOT
ATOM      1  C   UNL     1       1.519   3.232  20.833  0.00  0.00    +0.000 C 
ATOM      2  C   UNL     1       1.959   4.538  20.225  0.00  0.00    +0.000 A 
ATOM      3  C   UNL     1       1.471   5.740  20.781  0.00  0.00    +0.000 A 
ATOM      4  C   UNL     1       1.855   6.974  20.236  0.00  0.00    +0.000 A 
ATOM      5  C   UNL     1       2.716   7.019  19.138  0.00  0.00    +0.000 A 
ATOM      6  C   UNL     1       3.171   5.812  18.616  0.00  0.00    +0.000 A 
ATOM      7  N   UNL     1       3.997   5.701  17.560  0.00  0.00    +0.000 NA
ATOM      8  C   UNL     1       4.174   4.374  17.403  0.00  0.00    +0.000 A 
ATOM      9  C   UNL     1       3.449   3.696  18.388  0.00  0.00    +0.000 A 
ATOM     10 BR   UNL     1       3.412   1.789  18.602  0.00  0.00    +0.000 Br
ATOM     11  N   UNL     1       2.810   4.624  19.144  0.00  0.00    +0.000 N 
ENDROOT
BRANCH   8  12
ATOM     12  C   UNL     1       5.037   3.772  16.316  0.00  0.00    +0.000 C 
BRANCH  12  13
ATOM     13  S   UNL     1       6.699   4.560  16.319  0.00  0.00    +0.000 S 
BRANCH  13  14
ATOM     14  C   UNL     1       6.986   4.575  14.537  0.00  0.00    +0.000 C 
ATOM     15  N   UNL     1       7.710   5.488  13.999  0.00  0.00    +0.000 NA
ATOM     16  N   UNL     1       6.334   3.624  13.711  0.00  0.00    +0.000 N 
ATOM     17  H   UNL     1       8.163   6.216  14.568  0.00  0.00    +0.000 HD
ATOM     18  H   UNL     1       5.714   2.914  14.127  0.00  0.00    +0.000 HD
ATOM     19  H   UNL     1       6.433   3.663  12.686  0.00  0.00    +0.000 HD
ENDBRANCH  13  14
ENDBRANCH  12  13
ENDBRANCH   8  12
TORSDOF 3
ENDMDL
MODEL 6
REMARK VINA RESULT:      -6.3      1.647      1.893
REMARK  Name = 
REMARK  4 active torsions:
REMARK  status: ('A' for Active; 'I' for Inactive)
REMARK    1  A    between atoms: C_1  and  C_2
REMARK    2  A    between atoms: C_8  and  C_9
REMARK    3  A    between atoms: C_9  and  S_10
REMARK    4  A    between atoms: S_10  and  C_11
REMARK                            x       y       z     vdW  Elec       q    Type
REMARK                         _______ _______ _______ _____ _____    ______ ____
ROOT
ATOM      1  C   UNL     1       0.970   5.237  20.261  0.00  0.00    +0.000 C 
ATOM      2  C   UNL     1       1.648   4.107  19.532  0.00  0.00    +0.000 A 
ATOM      3  C   UNL     1       1.280   2.781  19.849  0.00  0.00    +0.000 A 
ATOM      4  C   UNL     1       1.897   1.705  19.195  0.00  0.00    +0.000 A 
ATOM      5  C   UNL     1       2.881   1.938  18.233  0.00  0.00    +0.000 A 
ATOM      6  C   UNL     1       3.218   3.259  17.951  0.00  0.00    +0.000 A 
ATOM      7  N   UNL     1       4.149   3.634  17.056  0.00  0.00    +0.000 NA
ATOM      8  C   UNL     1       4.148   4.982  17.107  0.00  0.00    +0.000 A 
ATOM      9  C   UNL     1       3.196   5.404  18.040  0.00  0.00    +0.000 A 
ATOM     10 BR   UNL     1       2.795   7.237  18.443  0.00  0.00    +0.000 Br
ATOM     11  N   UNL     1       2.620   4.297  18.574  0.00  0.00    +0.000 N 
ENDROOT
BRANCH   8  12
ATOM     12  C   UNL     1       5.055   5.847  16.260  0.00  0.00    +0.000 C 
BRANCH  12  13
ATOM     13  S   UNL     1       6.781   5.217  16.336  0.00  0.00    +0.000 S 
BRANCH  13  14
ATOM     14  C   UNL     1       6.967   4.753  14.601  0.00  0.00    +0.000 C 
ATOM     15  N   UNL     1       6.418   3.686  14.146  0.00  0.00    +0.000 NA
ATOM     16  N   UNL     1       7.801   5.525  13.752  0.00  0.00    +0.000 N 
ATOM     17  H   UNL     1       5.841   3.083  14.749  0.00  0.00    +0.000 HD
ATOM     18  H   UNL     1       8.283   6.360  14.117  0.00  0.00    +0.000 HD
ATOM     19  H   UNL     1       7.972   5.234  12.778  0.00  0.00    +0.000 HD
ENDBRANCH  13  14
ENDBRANCH  12  13
ENDBRANCH   8  12
TORSDOF 3
ENDMDL
MODEL 7
REMARK VINA RESULT:      -6.3      1.966      2.862
REMARK  Name = 
REMARK  4 active torsions:
REMARK  status: ('A' for Active; 'I' for Inactive)
REMARK    1  A    between atoms: C_1  and  C_2
REMARK    2  A    between atoms: C_8  and  C_9
REMARK    3  A    between atoms: C_9  and  S_10
REMARK    4  A    between atoms: S_10  and  C_11
REMARK                            x       y       z     vdW  Elec       q    Type
REMARK                         _______ _______ _______ _____ _____    ______ ____
ROOT
ATOM      1  C   UNL     1       1.982   3.329  21.041  0.00  0.00    +0.000 C 
ATOM      2  C   UNL     1       2.217   4.629  20.318  0.00  0.00    +0.000 A 
ATOM      3  C   UNL     1       1.624   5.804  20.830  0.00  0.00    +0.000 A 
ATOM      4  C   UNL     1       1.816   7.030  20.178  0.00  0.00    +0.000 A 
ATOM      5  C   UNL     1       2.589   7.095  19.018  0.00  0.00    +0.000 A 
ATOM      6  C   UNL     1       3.154   5.915  18.543  0.00  0.00    +0.000 A 
ATOM      7  N   UNL     1       3.914   5.824  17.438  0.00  0.00    +0.000 NA
ATOM      8  C   UNL     1       4.242   4.519  17.355  0.00  0.00    +0.000 A 
ATOM      9  C   UNL     1       3.672   3.835  18.433  0.00  0.00    +0.000 A 
ATOM     10 BR   UNL     1       3.884   1.958  18.773  0.00  0.00    +0.000 Br
ATOM     11  N   UNL     1       2.976   4.735  19.174  0.00  0.00    +0.000 N 
ENDROOT
BRANCH   8  12
ATOM     12  C   UNL     1       5.097   3.944  16.248  0.00  0.00    +0.000 C 
BRANCH  12  13
ATOM     13  S   UNL     1       6.430   5.129  15.799  0.00  0.00    +0.000 S 
BRANCH  13  14
ATOM     14  C   UNL     1       7.347   5.096  17.354  0.00  0.00    +0.000 C 
ATOM     15  N   UNL     1       8.074   4.084  17.663  0.00  0.00    +0.000 NA
ATOM     16  N   UNL     1       7.194   6.155  18.283  0.00  0.00    +0.000 N 
ATOM     17  H   UNL     1       8.171   3.281  17.026  0.00  0.00    +0.000 HD
ATOM     18  H   UNL     1       6.579   6.952  18.065  0.00  0.00    +0.000 HD
ATOM     19  H   UNL     1       7.657   6.117  19.204  0.00  0.00    +0.000 HD
ENDBRANCH  13  14
ENDBRANCH  12  13
ENDBRANCH   8  12
TORSDOF 3
ENDMDL
MODEL 8
REMARK VINA RESULT:      -6.2      2.259      3.258
REMARK  Name = 
REMARK  4 active torsions:
REMARK  status: ('A' for Active; 'I' for Inactive)
REMARK    1  A    between atoms: C_1  and  C_2
REMARK    2  A    between atoms: C_8  and  C_9
REMARK    3  A    between atoms: C_9  and  S_10
REMARK    4  A    between atoms: S_10  and  C_11
REMARK                            x       y       z     vdW  Elec       q    Type
REMARK                         _______ _______ _______ _____ _____    ______ ____
ROOT
ATOM      1  C   UNL     1       1.270   3.447  20.556  0.00  0.00    +0.000 C 
ATOM      2  C   UNL     1       1.898   4.690  19.980  0.00  0.00    +0.000 A 
ATOM      3  C   UNL     1       1.523   5.944  20.509  0.00  0.00    +0.000 A 
ATOM      4  C   UNL     1       2.082   7.121  19.991  0.00  0.00    +0.000 A 
ATOM      5  C   UNL     1       3.008   7.059  18.949  0.00  0.00    +0.000 A 
ATOM      6  C   UNL     1       3.349   5.804  18.452  0.00  0.00    +0.000 A 
ATOM      7  N   UNL     1       4.219   5.592  17.449  0.00  0.00    +0.000 NA
ATOM      8  C   UNL     1       4.247   4.252  17.299  0.00  0.00    +0.000 A 
ATOM      9  C   UNL     1       3.387   3.669  18.235  0.00  0.00    +0.000 A 
ATOM     10 BR   UNL     1       3.112   1.781  18.441  0.00  0.00    +0.000 Br
ATOM     11  N   UNL     1       2.817   4.670  18.954  0.00  0.00    +0.000 N 
ENDROOT
BRANCH   8  12
ATOM     12  C   UNL     1       5.097   3.547  16.265  0.00  0.00    +0.000 C 
BRANCH  12  13
ATOM     13  S   UNL     1       5.406   4.662  14.835  0.00  0.00    +0.000 S 
BRANCH  13  14
ATOM     14  C   UNL     1       7.176   4.922  15.082  0.00  0.00    +0.000 C 
ATOM     15  N   UNL     1       7.727   4.643  16.207  0.00  0.00    +0.000 NA
ATOM     16  N   UNL     1       7.948   5.523  14.056  0.00  0.00    +0.000 N 
ATOM     17  H   UNL     1       7.184   4.243  16.984  0.00  0.00    +0.000 HD
ATOM     18  H   UNL     1       7.507   5.793  13.165  0.00  0.00    +0.000 HD
ATOM     19  H   UNL     1       8.944   5.742  14.208  0.00  0.00    +0.000 HD
ENDBRANCH  13  14
ENDBRANCH  12  13
ENDBRANCH   8  12
TORSDOF 3
ENDMDL
MODEL 9
REMARK VINA RESULT:      -6.1      1.231      1.282
REMARK  Name = 
REMARK  4 active torsions:
REMARK  status: ('A' for Active; 'I' for Inactive)
REMARK    1  A    between atoms: C_1  and  C_2
REMARK    2  A    between atoms: C_8  and  C_9
REMARK    3  A    between atoms: C_9  and  S_10
REMARK    4  A    between atoms: S_10  and  C_11
REMARK                            x       y       z     vdW  Elec       q    Type
REMARK                         _______ _______ _______ _____ _____    ______ ____
ROOT
ATOM      1  C   UNL     1       0.935   4.752  20.367  0.00  0.00    +0.000 C 
ATOM      2  C   UNL     1       1.703   3.814  19.473  0.00  0.00    +0.000 A 
ATOM      3  C   UNL     1       1.418   2.432  19.541  0.00  0.00    +0.000 A 
ATOM      4  C   UNL     1       2.119   1.530  18.728  0.00  0.00    +0.000 A 
ATOM      5  C   UNL     1       3.104   1.991  17.853  0.00  0.00    +0.000 A 
ATOM      6  C   UNL     1       3.358   3.359  17.819  0.00  0.00    +0.000 A 
ATOM      7  N   UNL     1       4.279   3.944  17.034  0.00  0.00    +0.000 NA
ATOM      8  C   UNL     1       4.187   5.258  17.321  0.00  0.00    +0.000 A 
ATOM      9  C   UNL     1       3.190   5.448  18.282  0.00  0.00    +0.000 A 
ATOM     10 BR   UNL     1       2.660   7.152  18.988  0.00  0.00    +0.000 Br
ATOM     11  N   UNL     1       2.679   4.230  18.595  0.00  0.00    +0.000 N 
ENDROOT
BRANCH   8  12
ATOM     12  C   UNL     1       5.051   6.315  16.669  0.00  0.00    +0.000 C 
BRANCH  12  13
ATOM     13  S   UNL     1       6.796   5.740  16.581  0.00  0.00    +0.000 S 
BRANCH  13  14
ATOM     14  C   UNL     1       7.533   6.967  17.682  0.00  0.00    +0.000 C 
ATOM     15  N   UNL     1       7.649   8.190  17.312  0.00  0.00    +0.000 NA
ATOM     16  N   UNL     1       8.071   6.560  18.929  0.00  0.00    +0.000 N 
ATOM     17  H   UNL     1       7.305   8.507  16.396  0.00  0.00    +0.000 HD
ATOM     18  H   UNL     1       8.024   5.572  19.217  0.00  0.00    +0.000 HD
ATOM     19  H   UNL     1       8.556   7.236  19.537  0.00  0.00    +0.000 HD
ENDBRANCH  13  14
ENDBRANCH  12  13
ENDBRANCH   8  12
TORSDOF 3
ENDMDL
