MODEL 1
REMARK VINA RESULT:      -7.8      0.000      0.000
REMARK  Name = 
REMARK  11 active torsions:
REMARK  status: ('A' for Active; 'I' for Inactive)
REMARK    1  A    between atoms: C_2  and  C_3
REMARK    2  A    between atoms: C_4  and  C_5
REMARK    3  A    between atoms: C_12  and  C_13
REMARK    4  A    between atoms: C_13  and  O_14
REMARK    5  A    between atoms: O_14  and  C_15
REMARK    6  A    between atoms: C_15  and  C_16
REMARK    7  A    between atoms: N_22  and  C_23
REMARK    8  A    between atoms: C_23  and  C_24
REMARK    9  A    between atoms: C_24  and  C_25
REMARK   10  A    between atoms: C_25  and  O_26
REMARK   11  A    between atoms: N_27  and  O_28
REMARK                            x       y       z     vdW  Elec       q    Type
REMARK                         _______ _______ _______ _____ _____    ______ ____
ROOT
ATOM      1  C   UNL     1       5.196   4.777  16.360  0.00  0.00    +0.000 A 
ATOM      2  C   UNL     1       4.985   3.722  17.255  0.00  0.00    +0.000 A 
ATOM      3  C   UNL     1       4.194   3.858  18.413  0.00  0.00    +0.000 A 
ATOM      4  C   UNL     1       3.625   5.114  18.656  0.00  0.00    +0.000 A 
ATOM      5  C   UNL     1       3.803   6.168  17.775  0.00  0.00    +0.000 A 
ATOM      6  C   UNL     1       4.613   6.023  16.636  0.00  0.00    +0.000 A 
ATOM      7  N   UNL     1       3.097   7.256  18.173  0.00  0.00    +0.000 NA
ATOM      8  C   UNL     1       2.570   6.957  19.345  0.00  0.00    +0.000 A 
ATOM      9  N   UNL     1       2.841   5.638  19.669  0.00  0.00    +0.000 N 
ENDROOT
BRANCH   1  11
ATOM     10  C   UNL     1       5.525   4.093  13.995  0.00  0.00    +0.000 C 
ATOM     11  C   UNL     1       6.021   4.548  15.158  0.00  0.00    +0.000 C 
BRANCH  10  13
ATOM     12  O   UNL     1       7.293   4.518  12.437  0.00  0.00    +0.000 OA
ATOM     13  C   UNL     1       6.420   3.772  12.849  0.00  0.00    +0.000 C 
ATOM     14  N   UNL     1       6.183   2.514  12.345  0.00  0.00    +0.000 N 
ATOM     15  H   UNL     1       5.507   1.855  12.711  0.00  0.00    +0.000 HD
BRANCH  14  16
ATOM     16  O   UNL     1       7.067   2.023  11.359  0.00  0.00    +0.000 OA
ATOM     17  H   UNL     1       7.942   2.103  11.798  0.00  0.00    +0.000 HD
ENDBRANCH  14  16
ENDBRANCH  10  13
ENDBRANCH   1  11
BRANCH   8  18
ATOM     18  C   UNL     1       1.802   7.944  20.167  0.00  0.00    +0.000 C 
BRANCH  18  19
ATOM     19  O   UNL     1       1.495   9.087  19.360  0.00  0.00    +0.000 OA
BRANCH  19  20
ATOM     20  C   UNL     1       0.720  10.067  20.056  0.00  0.00    +0.000 C 
BRANCH  20  21
ATOM     21  C   UNL     1      -0.319  10.613  19.114  0.00  0.00    +0.000 A 
ATOM     22  C   UNL     1      -0.466  11.999  18.970  0.00  0.00    +0.000 A 
ATOM     23  C   UNL     1      -1.419  12.521  18.100  0.00  0.00    +0.000 A 
ATOM     24  C   UNL     1      -2.239  11.659  17.377  0.00  0.00    +0.000 A 
ATOM     25  C   UNL     1      -2.106  10.282  17.519  0.00  0.00    +0.000 A 
ATOM     26  C   UNL     1      -1.148   9.753  18.389  0.00  0.00    +0.000 A 
ENDBRANCH  20  21
ENDBRANCH  19  20
ENDBRANCH  18  19
ENDBRANCH   8  18
BRANCH   9  27
ATOM     27  C   UNL     1       2.322   4.899  20.804  0.00  0.00    +0.000 C 
BRANCH  27  28
ATOM     28  C   UNL     1       1.254   3.848  20.510  0.00  0.00    +0.000 C 
BRANCH  28  29
ATOM     29  C   UNL     1       1.557   2.472  21.081  0.00  0.00    +0.000 C 
BRANCH  29  30
ATOM     30  O   UNL     1       2.612   2.590  22.034  0.00  0.00    +0.000 OA
ATOM     31  H   UNL     1       3.014   3.466  21.936  0.00  0.00    +0.000 HD
ENDBRANCH  29  30
ENDBRANCH  28  29
ENDBRANCH  27  28
ENDBRANCH   9  27
TORSDOF 11
ENDMDL
MODEL 2
REMARK VINA RESULT:      -7.7      0.752      1.182
REMARK  Name = 
REMARK  11 active torsions:
REMARK  status: ('A' for Active; 'I' for Inactive)
REMARK    1  A    between atoms: C_2  and  C_3
REMARK    2  A    between atoms: C_4  and  C_5
REMARK    3  A    between atoms: C_12  and  C_13
REMARK    4  A    between atoms: C_13  and  O_14
REMARK    5  A    between atoms: O_14  and  C_15
REMARK    6  A    between atoms: C_15  and  C_16
REMARK    7  A    between atoms: N_22  and  C_23
REMARK    8  A    between atoms: C_23  and  C_24
REMARK    9  A    between atoms: C_24  and  C_25
REMARK   10  A    between atoms: C_25  and  O_26
REMARK   11  A    between atoms: N_27  and  O_28
REMARK                            x       y       z     vdW  Elec       q    Type
REMARK                         _______ _______ _______ _____ _____    ______ ____
ROOT
ATOM      1  C   UNL     1       5.187   4.799  16.237  0.00  0.00    +0.000 A 
ATOM      2  C   UNL     1       4.937   3.689  17.053  0.00  0.00    +0.000 A 
ATOM      3  C   UNL     1       4.132   3.764  18.207  0.00  0.00    +0.000 A 
ATOM      4  C   UNL     1       3.590   5.013  18.530  0.00  0.00    +0.000 A 
ATOM      5  C   UNL     1       3.807   6.122  17.727  0.00  0.00    +0.000 A 
ATOM      6  C   UNL     1       4.630   6.036  16.591  0.00  0.00    +0.000 A 
ATOM      7  N   UNL     1       3.121   7.196  18.191  0.00  0.00    +0.000 NA
ATOM      8  C   UNL     1       2.570   6.830  19.332  0.00  0.00    +0.000 A 
ATOM      9  N   UNL     1       2.803   5.486  19.566  0.00  0.00    +0.000 N 
ENDROOT
BRANCH   1  11
ATOM     10  C   UNL     1       5.605   4.008  13.920  0.00  0.00    +0.000 C 
ATOM     11  C   UNL     1       6.024   4.632  15.033  0.00  0.00    +0.000 C 
BRANCH  10  13
ATOM     12  O   UNL     1       7.357   4.577  12.390  0.00  0.00    +0.000 OA
ATOM     13  C   UNL     1       6.528   3.770  12.776  0.00  0.00    +0.000 C 
ATOM     14  N   UNL     1       6.375   2.511  12.242  0.00  0.00    +0.000 N 
ATOM     15  H   UNL     1       5.738   1.803  12.586  0.00  0.00    +0.000 HD
BRANCH  14  16
ATOM     16  O   UNL     1       7.297   2.098  11.255  0.00  0.00    +0.000 OA
ATOM     17  H   UNL     1       6.909   2.466  10.432  0.00  0.00    +0.000 HD
ENDBRANCH  14  16
ENDBRANCH  10  13
ENDBRANCH   1  11
BRANCH   8  18
ATOM     18  C   UNL     1       1.813   7.777  20.210  0.00  0.00    +0.000 C 
BRANCH  18  19
ATOM     19  O   UNL     1       1.519   8.968  19.471  0.00  0.00    +0.000 OA
BRANCH  19  20
ATOM     20  C   UNL     1       0.741   9.908  20.218  0.00  0.00    +0.000 C 
BRANCH  20  21
ATOM     21  C   UNL     1      -0.232  10.574  19.283  0.00  0.00    +0.000 A 
ATOM     22  C   UNL     1      -1.051   9.790  18.459  0.00  0.00    +0.000 A 
ATOM     23  C   UNL     1      -1.960  10.390  17.592  0.00  0.00    +0.000 A 
ATOM     24  C   UNL     1      -2.046  11.778  17.534  0.00  0.00    +0.000 A 
ATOM     25  C   UNL     1      -1.232  12.565  18.342  0.00  0.00    +0.000 A 
ATOM     26  C   UNL     1      -0.321  11.967  19.217  0.00  0.00    +0.000 A 
ENDBRANCH  20  21
ENDBRANCH  19  20
ENDBRANCH  18  19
ENDBRANCH   8  18
BRANCH   9  27
ATOM     27  C   UNL     1       2.250   4.683  20.639  0.00  0.00    +0.000 C 
BRANCH  27  28
ATOM     28  C   UNL     1       1.033   3.825  20.299  0.00  0.00    +0.000 C 
BRANCH  28  29
ATOM     29  C   UNL     1       1.348   2.355  20.072  0.00  0.00    +0.000 C 
BRANCH  29  30
ATOM     30  O   UNL     1       1.056   2.025  18.715  0.00  0.00    +0.000 OA
ATOM     31  H   UNL     1       1.255   1.086  18.581  0.00  0.00    +0.000 HD
ENDBRANCH  29  30
ENDBRANCH  28  29
ENDBRANCH  27  28
ENDBRANCH   9  27
TORSDOF 11
ENDMDL
MODEL 3
REMARK VINA RESULT:      -7.5      0.922      1.416
REMARK  Name = 
REMARK  11 active torsions:
REMARK  status: ('A' for Active; 'I' for Inactive)
REMARK    1  A    between atoms: C_2  and  C_3
REMARK    2  A    between atoms: C_4  and  C_5
REMARK    3  A    between atoms: C_12  and  C_13
REMARK    4  A    between atoms: C_13  and  O_14
REMARK    5  A    between atoms: O_14  and  C_15
REMARK    6  A    between atoms: C_15  and  C_16
REMARK    7  A    between atoms: N_22  and  C_23
REMARK    8  A    between atoms: C_23  and  C_24
REMARK    9  A    between atoms: C_24  and  C_25
REMARK   10  A    between atoms: C_25  and  O_26
REMARK   11  A    between atoms: N_27  and  O_28
REMARK                            x       y       z     vdW  Elec       q    Type
REMARK                         _______ _______ _______ _____ _____    ______ ____
ROOT
ATOM      1  C   UNL     1       5.082   5.108  16.386  0.00  0.00    +0.000 A 
ATOM      2  C   UNL     1       4.885   4.025  17.251  0.00  0.00    +0.000 A 
ATOM      3  C   UNL     1       4.085   4.114  18.408  0.00  0.00    +0.000 A 
ATOM      4  C   UNL     1       3.492   5.352  18.681  0.00  0.00    +0.000 A 
ATOM      5  C   UNL     1       3.655   6.434  17.831  0.00  0.00    +0.000 A 
ATOM      6  C   UNL     1       4.474   6.334  16.693  0.00  0.00    +0.000 A 
ATOM      7  N   UNL     1       2.926   7.496  18.254  0.00  0.00    +0.000 NA
ATOM      8  C   UNL     1       2.399   7.156  19.414  0.00  0.00    +0.000 A 
ATOM      9  N   UNL     1       2.691   5.834  19.702  0.00  0.00    +0.000 N 
ENDROOT
BRANCH   1  11
ATOM     10  C   UNL     1       5.562   4.154  14.144  0.00  0.00    +0.000 C 
ATOM     11  C   UNL     1       5.918   4.926  15.185  0.00  0.00    +0.000 C 
BRANCH  10  13
ATOM     12  O   UNL     1       7.353   4.707  12.653  0.00  0.00    +0.000 OA
ATOM     13  C   UNL     1       6.492   3.917  13.006  0.00  0.00    +0.000 C 
ATOM     14  N   UNL     1       6.306   2.679  12.435  0.00  0.00    +0.000 N 
ATOM     15  H   UNL     1       5.641   1.984  12.752  0.00  0.00    +0.000 HD
BRANCH  14  16
ATOM     16  O   UNL     1       7.227   2.263  11.449  0.00  0.00    +0.000 OA
ATOM     17  H   UNL     1       8.068   2.205  11.953  0.00  0.00    +0.000 HD
ENDBRANCH  14  16
ENDBRANCH  10  13
ENDBRANCH   1  11
BRANCH   8  18
ATOM     18  C   UNL     1       1.607   8.106  20.257  0.00  0.00    +0.000 C 
BRANCH  18  19
ATOM     19  O   UNL     1       1.241   9.241  19.465  0.00  0.00    +0.000 OA
BRANCH  19  20
ATOM     20  C   UNL     1       0.185  10.010  20.049  0.00  0.00    +0.000 C 
BRANCH  20  21
ATOM     21  C   UNL     1       0.334  11.441  19.607  0.00  0.00    +0.000 A 
ATOM     22  C   UNL     1       1.329  12.245  20.179  0.00  0.00    +0.000 A 
ATOM     23  C   UNL     1       1.482  13.570  19.778  0.00  0.00    +0.000 A 
ATOM     24  C   UNL     1       0.633  14.101  18.811  0.00  0.00    +0.000 A 
ATOM     25  C   UNL     1      -0.362  13.313  18.244  0.00  0.00    +0.000 A 
ATOM     26  C   UNL     1      -0.518  11.982  18.640  0.00  0.00    +0.000 A 
ENDBRANCH  20  21
ENDBRANCH  19  20
ENDBRANCH  18  19
ENDBRANCH   8  18
BRANCH   9  27
ATOM     27  C   UNL     1       2.180   5.055  20.813  0.00  0.00    +0.000 C 
BRANCH  27  28
ATOM     28  C   UNL     1       1.126   3.999  20.485  0.00  0.00    +0.000 C 
BRANCH  28  29
ATOM     29  C   UNL     1       1.562   2.571  20.769  0.00  0.00    +0.000 C 
BRANCH  29  30
ATOM     30  O   UNL     1       1.488   2.337  22.174  0.00  0.00    +0.000 OA
ATOM     31  H   UNL     1       2.108   2.936  22.616  0.00  0.00    +0.000 HD
ENDBRANCH  29  30
ENDBRANCH  28  29
ENDBRANCH  27  28
ENDBRANCH   9  27
TORSDOF 11
ENDMDL
MODEL 4
REMARK VINA RESULT:      -7.5      2.248      3.302
REMARK  Name = 
REMARK  11 active torsions:
REMARK  status: ('A' for Active; 'I' for Inactive)
REMARK    1  A    between atoms: C_2  and  C_3
REMARK    2  A    between atoms: C_4  and  C_5
REMARK    3  A    between atoms: C_12  and  C_13
REMARK    4  A    between atoms: C_13  and  O_14
REMARK    5  A    between atoms: O_14  and  C_15
REMARK    6  A    between atoms: C_15  and  C_16
REMARK    7  A    between atoms: N_22  and  C_23
REMARK    8  A    between atoms: C_23  and  C_24
REMARK    9  A    between atoms: C_24  and  C_25
REMARK   10  A    between atoms: C_25  and  O_26
REMARK   11  A    between atoms: N_27  and  O_28
REMARK                            x       y       z     vdW  Elec       q    Type
REMARK                         _______ _______ _______ _____ _____    ______ ____
ROOT
ATOM      1  C   UNL     1       4.284   5.872  17.496  0.00  0.00    +0.000 A 
ATOM      2  C   UNL     1       3.875   5.260  18.686  0.00  0.00    +0.000 A 
ATOM      3  C   UNL     1       2.992   5.880  19.593  0.00  0.00    +0.000 A 
ATOM      4  C   UNL     1       2.538   7.163  19.267  0.00  0.00    +0.000 A 
ATOM      5  C   UNL     1       2.912   7.782  18.084  0.00  0.00    +0.000 A 
ATOM      6  C   UNL     1       3.810   7.159  17.202  0.00  0.00    +0.000 A 
ATOM      7  N   UNL     1       2.288   8.978  17.946  0.00  0.00    +0.000 NA
ATOM      8  C   UNL     1       1.620   9.189  19.064  0.00  0.00    +0.000 A 
ATOM      9  N   UNL     1       1.716   8.085  19.893  0.00  0.00    +0.000 N 
ENDROOT
BRANCH   1  11
ATOM     10  C   UNL     1       5.630   5.646  15.421  0.00  0.00    +0.000 C 
ATOM     11  C   UNL     1       5.195   5.146  16.590  0.00  0.00    +0.000 C 
BRANCH  10  13
ATOM     12  O   UNL     1       7.677   4.871  14.449  0.00  0.00    +0.000 OA
ATOM     13  C   UNL     1       6.459   4.827  14.494  0.00  0.00    +0.000 C 
ATOM     14  N   UNL     1       5.693   3.974  13.733  0.00  0.00    +0.000 N 
ATOM     15  H   UNL     1       4.687   3.876  13.798  0.00  0.00    +0.000 HD
BRANCH  14  16
ATOM     16  O   UNL     1       6.364   3.029  12.926  0.00  0.00    +0.000 OA
ATOM     17  H   UNL     1       7.294   3.339  12.962  0.00  0.00    +0.000 HD
ENDBRANCH  14  16
ENDBRANCH  10  13
ENDBRANCH   1  11
BRANCH   8  18
ATOM     18  C   UNL     1       0.882  10.461  19.342  0.00  0.00    +0.000 C 
BRANCH  18  19
ATOM     19  O   UNL     1      -0.096  10.670  18.318  0.00  0.00    +0.000 OA
BRANCH  19  20
ATOM     20  C   UNL     1      -1.430  10.741  18.827  0.00  0.00    +0.000 C 
BRANCH  20  21
ATOM     21  C   UNL     1      -2.389  10.690  17.668  0.00  0.00    +0.000 A 
ATOM     22  C   UNL     1      -2.065   9.938  16.531  0.00  0.00    +0.000 A 
ATOM     23  C   UNL     1      -2.942   9.878  15.452  0.00  0.00    +0.000 A 
ATOM     24  C   UNL     1      -4.144  10.578  15.500  0.00  0.00    +0.000 A 
ATOM     25  C   UNL     1      -4.472  11.332  16.621  0.00  0.00    +0.000 A 
ATOM     26  C   UNL     1      -3.596  11.394  17.708  0.00  0.00    +0.000 A 
ENDBRANCH  20  21
ENDBRANCH  19  20
ENDBRANCH  18  19
ENDBRANCH   8  18
BRANCH   9  27
ATOM     27  C   UNL     1       1.013   7.875  21.144  0.00  0.00    +0.000 C 
BRANCH  27  28
ATOM     28  C   UNL     1       1.236   8.914  22.241  0.00  0.00    +0.000 C 
BRANCH  28  29
ATOM     29  C   UNL     1      -0.041   9.540  22.778  0.00  0.00    +0.000 C 
BRANCH  29  30
ATOM     30  O   UNL     1       0.069   9.669  24.194  0.00  0.00    +0.000 OA
ATOM     31  H   UNL     1       0.112   8.780  24.579  0.00  0.00    +0.000 HD
ENDBRANCH  29  30
ENDBRANCH  28  29
ENDBRANCH  27  28
ENDBRANCH   9  27
TORSDOF 11
ENDMDL
MODEL 5
REMARK VINA RESULT:      -7.4      2.839      8.758
REMARK  Name = 
REMARK  11 active torsions:
REMARK  status: ('A' for Active; 'I' for Inactive)
REMARK    1  A    between atoms: C_2  and  C_3
REMARK    2  A    between atoms: C_4  and  C_5
REMARK    3  A    between atoms: C_12  and  C_13
REMARK    4  A    between atoms: C_13  and  O_14
REMARK    5  A    between atoms: O_14  and  C_15
REMARK    6  A    between atoms: C_15  and  C_16
REMARK    7  A    between atoms: N_22  and  C_23
REMARK    8  A    between atoms: C_23  and  C_24
REMARK    9  A    between atoms: C_24  and  C_25
REMARK   10  A    between atoms: C_25  and  O_26
REMARK   11  A    between atoms: N_27  and  O_28
REMARK                            x       y       z     vdW  Elec       q    Type
REMARK                         _______ _______ _______ _____ _____    ______ ____
ROOT
ATOM      1  C   UNL     1       1.449   8.675  19.522  0.00  0.00    +0.000 A 
ATOM      2  C   UNL     1       1.832   9.139  18.259  0.00  0.00    +0.000 A 
ATOM      3  C   UNL     1       2.803   8.485  17.474  0.00  0.00    +0.000 A 
ATOM      4  C   UNL     1       3.398   7.339  18.015  0.00  0.00    +0.000 A 
ATOM      5  C   UNL     1       3.021   6.848  19.256  0.00  0.00    +0.000 A 
ATOM      6  C   UNL     1       2.067   7.525  20.035  0.00  0.00    +0.000 A 
ATOM      7  N   UNL     1       3.669   5.691  19.536  0.00  0.00    +0.000 NA
ATOM      8  C   UNL     1       4.535   5.496  18.559  0.00  0.00    +0.000 A 
ATOM      9  N   UNL     1       4.382   6.466  17.584  0.00  0.00    +0.000 N 
ENDROOT
BRANCH   1  11
ATOM     10  C   UNL     1       0.619   9.961  21.478  0.00  0.00    +0.000 C 
ATOM     11  C   UNL     1       0.410   9.406  20.272  0.00  0.00    +0.000 C 
BRANCH  10  13
ATOM     12  O   UNL     1      -0.700  10.403  23.428  0.00  0.00    +0.000 OA
ATOM     13  C   UNL     1      -0.495  10.591  22.240  0.00  0.00    +0.000 C 
ATOM     14  N   UNL     1      -1.231  11.454  21.461  0.00  0.00    +0.000 N 
ATOM     15  H   UNL     1      -1.040  11.673  20.490  0.00  0.00    +0.000 HD
BRANCH  14  16
ATOM     16  O   UNL     1      -2.218  12.237  22.098  0.00  0.00    +0.000 OA
ATOM     17  H   UNL     1      -1.688  12.785  22.718  0.00  0.00    +0.000 HD
ENDBRANCH  14  16
ENDBRANCH  10  13
ENDBRANCH   1  11
BRANCH   8  18
ATOM     18  C   UNL     1       5.522   4.371  18.560  0.00  0.00    +0.000 C 
BRANCH  18  19
ATOM     19  O   UNL     1       5.272   3.529  19.691  0.00  0.00    +0.000 OA
BRANCH  19  20
ATOM     20  C   UNL     1       4.594   2.318  19.345  0.00  0.00    +0.000 C 
BRANCH  20  21
ATOM     21  C   UNL     1       3.122   2.503  19.600  0.00  0.00    +0.000 A 
ATOM     22  C   UNL     1       2.671   2.772  20.899  0.00  0.00    +0.000 A 
ATOM     23  C   UNL     1       1.313   2.950  21.151  0.00  0.00    +0.000 A 
ATOM     24  C   UNL     1       0.398   2.848  20.108  0.00  0.00    +0.000 A 
ATOM     25  C   UNL     1       0.835   2.573  18.816  0.00  0.00    +0.000 A 
ATOM     26  C   UNL     1       2.198   2.398  18.557  0.00  0.00    +0.000 A 
ENDBRANCH  20  21
ENDBRANCH  19  20
ENDBRANCH  18  19
ENDBRANCH   8  18
BRANCH   9  27
ATOM     27  C   UNL     1       5.050   6.517  16.298  0.00  0.00    +0.000 C 
BRANCH  27  28
ATOM     28  C   UNL     1       5.099   5.218  15.496  0.00  0.00    +0.000 C 
BRANCH  28  29
ATOM     29  C   UNL     1       6.496   4.806  15.058  0.00  0.00    +0.000 C 
BRANCH  29  30
ATOM     30  O   UNL     1       7.440   5.727  15.601  0.00  0.00    +0.000 OA
ATOM     31  H   UNL     1       6.965   6.346  16.176  0.00  0.00    +0.000 HD
ENDBRANCH  29  30
ENDBRANCH  28  29
ENDBRANCH  27  28
ENDBRANCH   9  27
TORSDOF 11
ENDMDL
MODEL 6
REMARK VINA RESULT:      -7.4      0.972      1.449
REMARK  Name = 
REMARK  11 active torsions:
REMARK  status: ('A' for Active; 'I' for Inactive)
REMARK    1  A    between atoms: C_2  and  C_3
REMARK    2  A    between atoms: C_4  and  C_5
REMARK    3  A    between atoms: C_12  and  C_13
REMARK    4  A    between atoms: C_13  and  O_14
REMARK    5  A    between atoms: O_14  and  C_15
REMARK    6  A    between atoms: C_15  and  C_16
REMARK    7  A    between atoms: N_22  and  C_23
REMARK    8  A    between atoms: C_23  and  C_24
REMARK    9  A    between atoms: C_24  and  C_25
REMARK   10  A    between atoms: C_25  and  O_26
REMARK   11  A    between atoms: N_27  and  O_28
REMARK                            x       y       z     vdW  Elec       q    Type
REMARK                         _______ _______ _______ _____ _____    ______ ____
ROOT
ATOM      1  C   UNL     1       5.315   4.725  15.975  0.00  0.00    +0.000 A 
ATOM      2  C   UNL     1       5.116   3.739  16.948  0.00  0.00    +0.000 A 
ATOM      3  C   UNL     1       4.333   3.957  18.099  0.00  0.00    +0.000 A 
ATOM      4  C   UNL     1       3.760   5.225  18.253  0.00  0.00    +0.000 A 
ATOM      5  C   UNL     1       3.927   6.212  17.294  0.00  0.00    +0.000 A 
ATOM      6  C   UNL     1       4.728   5.985  16.162  0.00  0.00    +0.000 A 
ATOM      7  N   UNL     1       3.218   7.323  17.615  0.00  0.00    +0.000 NA
ATOM      8  C   UNL     1       2.702   7.110  18.811  0.00  0.00    +0.000 A 
ATOM      9  N   UNL     1       2.980   5.821  19.229  0.00  0.00    +0.000 N 
ENDROOT
BRANCH   1  11
ATOM     10  C   UNL     1       5.611   4.028  13.610  0.00  0.00    +0.000 C 
ATOM     11  C   UNL     1       6.133   4.410  14.788  0.00  0.00    +0.000 C 
BRANCH  10  13
ATOM     12  O   UNL     1       7.337   4.329  11.978  0.00  0.00    +0.000 OA
ATOM     13  C   UNL     1       6.486   3.614  12.478  0.00  0.00    +0.000 C 
ATOM     14  N   UNL     1       6.259   2.310  12.100  0.00  0.00    +0.000 N 
ATOM     15  H   UNL     1       5.602   1.679  12.542  0.00  0.00    +0.000 HD
BRANCH  14  16
ATOM     16  O   UNL     1       7.129   1.741  11.145  0.00  0.00    +0.000 OA
ATOM     17  H   UNL     1       7.093   0.785  11.365  0.00  0.00    +0.000 HD
ENDBRANCH  14  16
ENDBRANCH  10  13
ENDBRANCH   1  11
BRANCH   8  18
ATOM     18  C   UNL     1       1.935   8.153  19.562  0.00  0.00    +0.000 C 
BRANCH  18  19
ATOM     19  O   UNL     1       1.926   9.366  18.803  0.00  0.00    +0.000 OA
BRANCH  19  20
ATOM     20  C   UNL     1       0.631   9.693  18.290  0.00  0.00    +0.000 C 
BRANCH  20  21
ATOM     21  C   UNL     1       0.133  10.925  18.996  0.00  0.00    +0.000 A 
ATOM     22  C   UNL     1      -1.209  11.005  19.390  0.00  0.00    +0.000 A 
ATOM     23  C   UNL     1      -1.685  12.137  20.048  0.00  0.00    +0.000 A 
ATOM     24  C   UNL     1      -0.823  13.199  20.306  0.00  0.00    +0.000 A 
ATOM     25  C   UNL     1       0.509  13.132  19.912  0.00  0.00    +0.000 A 
ATOM     26  C   UNL     1       0.992  11.997  19.254  0.00  0.00    +0.000 A 
ENDBRANCH  20  21
ENDBRANCH  19  20
ENDBRANCH  18  19
ENDBRANCH   8  18
BRANCH   9  27
ATOM     27  C   UNL     1       2.474   5.166  20.420  0.00  0.00    +0.000 C 
BRANCH  27  28
ATOM     28  C   UNL     1       1.211   4.322  20.256  0.00  0.00    +0.000 C 
BRANCH  28  29
ATOM     29  C   UNL     1       1.285   2.953  20.913  0.00  0.00    +0.000 C 
BRANCH  29  30
ATOM     30  O   UNL     1       1.973   3.073  22.156  0.00  0.00    +0.000 OA
ATOM     31  H   UNL     1       2.897   3.301  21.971  0.00  0.00    +0.000 HD
ENDBRANCH  29  30
ENDBRANCH  28  29
ENDBRANCH  27  28
ENDBRANCH   9  27
TORSDOF 11
ENDMDL
MODEL 7
REMARK VINA RESULT:      -7.4      1.651      1.886
REMARK  Name = 
REMARK  11 active torsions:
REMARK  status: ('A' for Active; 'I' for Inactive)
REMARK    1  A    between atoms: C_2  and  C_3
REMARK    2  A    between atoms: C_4  and  C_5
REMARK    3  A    between atoms: C_12  and  C_13
REMARK    4  A    between atoms: C_13  and  O_14
REMARK    5  A    between atoms: O_14  and  C_15
REMARK    6  A    between atoms: C_15  and  C_16
REMARK    7  A    between atoms: N_22  and  C_23
REMARK    8  A    between atoms: C_23  and  C_24
REMARK    9  A    between atoms: C_24  and  C_25
REMARK   10  A    between atoms: C_25  and  O_26
REMARK   11  A    between atoms: N_27  and  O_28
REMARK                            x       y       z     vdW  Elec       q    Type
REMARK                         _______ _______ _______ _____ _____    ______ ____
ROOT
ATOM      1  C   UNL     1       4.834   5.676  16.856  0.00  0.00    +0.000 A 
ATOM      2  C   UNL     1       4.648   4.492  17.579  0.00  0.00    +0.000 A 
ATOM      3  C   UNL     1       3.809   4.418  18.710  0.00  0.00    +0.000 A 
ATOM      4  C   UNL     1       3.166   5.596  19.107  0.00  0.00    +0.000 A 
ATOM      5  C   UNL     1       3.319   6.776  18.396  0.00  0.00    +0.000 A 
ATOM      6  C   UNL     1       4.176   6.838  17.284  0.00  0.00    +0.000 A 
ATOM      7  N   UNL     1       2.541   7.758  18.916  0.00  0.00    +0.000 NA
ATOM      8  C   UNL     1       1.989   7.266  20.008  0.00  0.00    +0.000 A 
ATOM      9  N   UNL     1       2.318   5.929  20.149  0.00  0.00    +0.000 N 
ENDROOT
BRANCH   1  11
ATOM     10  C   UNL     1       5.844   4.604  14.856  0.00  0.00    +0.000 C 
ATOM     11  C   UNL     1       5.714   5.664  15.671  0.00  0.00    +0.000 C 
BRANCH  10  13
ATOM     12  O   UNL     1       6.726   3.919  12.738  0.00  0.00    +0.000 OA
ATOM     13  C   UNL     1       6.829   4.607  13.740  0.00  0.00    +0.000 C 
ATOM     14  N   UNL     1       7.839   5.519  13.944  0.00  0.00    +0.000 N 
ATOM     15  H   UNL     1       7.910   6.144  14.738  0.00  0.00    +0.000 HD
BRANCH  14  16
ATOM     16  O   UNL     1       8.752   5.737  12.890  0.00  0.00    +0.000 OA
ATOM     17  H   UNL     1       9.004   6.678  13.016  0.00  0.00    +0.000 HD
ENDBRANCH  14  16
ENDBRANCH  10  13
ENDBRANCH   1  11
BRANCH   8  18
ATOM     18  C   UNL     1       1.140   8.084  20.929  0.00  0.00    +0.000 C 
BRANCH  18  19
ATOM     19  O   UNL     1       0.726   9.276  20.251  0.00  0.00    +0.000 OA
BRANCH  19  20
ATOM     20  C   UNL     1       0.756  10.433  21.091  0.00  0.00    +0.000 C 
BRANCH  20  21
ATOM     21  C   UNL     1       0.381  11.634  20.265  0.00  0.00    +0.000 A 
ATOM     22  C   UNL     1       1.257  12.095  19.273  0.00  0.00    +0.000 A 
ATOM     23  C   UNL     1       0.924  13.202  18.497  0.00  0.00    +0.000 A 
ATOM     24  C   UNL     1      -0.282  13.861  18.717  0.00  0.00    +0.000 A 
ATOM     25  C   UNL     1      -1.155  13.416  19.704  0.00  0.00    +0.000 A 
ATOM     26  C   UNL     1      -0.826  12.303  20.483  0.00  0.00    +0.000 A 
ENDBRANCH  20  21
ENDBRANCH  19  20
ENDBRANCH  18  19
ENDBRANCH   8  18
BRANCH   9  27
ATOM     27  C   UNL     1       1.799   5.007  21.141  0.00  0.00    +0.000 C 
BRANCH  27  28
ATOM     28  C   UNL     1       1.033   3.794  20.619  0.00  0.00    +0.000 C 
BRANCH  28  29
ATOM     29  C   UNL     1       1.562   2.458  21.118  0.00  0.00    +0.000 C 
BRANCH  29  30
ATOM     30  O   UNL     1       2.653   2.696  22.004  0.00  0.00    +0.000 OA
ATOM     31  H   UNL     1       2.870   3.641  21.974  0.00  0.00    +0.000 HD
ENDBRANCH  29  30
ENDBRANCH  28  29
ENDBRANCH  27  28
ENDBRANCH   9  27
TORSDOF 11
ENDMDL
MODEL 8
REMARK VINA RESULT:      -7.4      2.900      8.499
REMARK  Name = 
REMARK  11 active torsions:
REMARK  status: ('A' for Active; 'I' for Inactive)
REMARK    1  A    between atoms: C_2  and  C_3
REMARK    2  A    between atoms: C_4  and  C_5
REMARK    3  A    between atoms: C_12  and  C_13
REMARK    4  A    between atoms: C_13  and  O_14
REMARK    5  A    between atoms: O_14  and  C_15
REMARK    6  A    between atoms: C_15  and  C_16
REMARK    7  A    between atoms: N_22  and  C_23
REMARK    8  A    between atoms: C_23  and  C_24
REMARK    9  A    between atoms: C_24  and  C_25
REMARK   10  A    between atoms: C_25  and  O_26
REMARK   11  A    between atoms: N_27  and  O_28
REMARK                            x       y       z     vdW  Elec       q    Type
REMARK                         _______ _______ _______ _____ _____    ______ ____
ROOT
ATOM      1  C   UNL     1       1.804   7.298  20.262  0.00  0.00    +0.000 A 
ATOM      2  C   UNL     1       1.239   6.091  20.688  0.00  0.00    +0.000 A 
ATOM      3  C   UNL     1       1.537   4.856  20.075  0.00  0.00    +0.000 A 
ATOM      4  C   UNL     1       2.424   4.877  18.993  0.00  0.00    +0.000 A 
ATOM      5  C   UNL     1       3.012   6.057  18.565  0.00  0.00    +0.000 A 
ATOM      6  C   UNL     1       2.688   7.282  19.173  0.00  0.00    +0.000 A 
ATOM      7  N   UNL     1       3.893   5.822  17.561  0.00  0.00    +0.000 NA
ATOM      8  C   UNL     1       3.791   4.541  17.260  0.00  0.00    +0.000 A 
ATOM      9  N   UNL     1       2.924   3.912  18.136  0.00  0.00    +0.000 N 
ENDROOT
BRANCH   1  11
ATOM     10  C   UNL     1       0.227   9.088  20.951  0.00  0.00    +0.000 C 
ATOM     11  C   UNL     1       1.456   8.544  20.970  0.00  0.00    +0.000 C 
BRANCH  10  13
ATOM     12  O   UNL     1       0.200  11.480  21.066  0.00  0.00    +0.000 OA
ATOM     13  C   UNL     1      -0.042  10.406  21.590  0.00  0.00    +0.000 C 
ATOM     14  N   UNL     1      -0.648  10.270  22.818  0.00  0.00    +0.000 N 
ATOM     15  H   UNL     1      -0.915   9.391  23.245  0.00  0.00    +0.000 HD
BRANCH  14  16
ATOM     16  O   UNL     1      -1.102  11.442  23.461  0.00  0.00    +0.000 OA
ATOM     17  H   UNL     1      -0.302  12.011  23.460  0.00  0.00    +0.000 HD
ENDBRANCH  14  16
ENDBRANCH  10  13
ENDBRANCH   1  11
BRANCH   8  18
ATOM     18  C   UNL     1       4.530   3.913  16.120  0.00  0.00    +0.000 C 
BRANCH  18  19
ATOM     19  O   UNL     1       5.253   4.928  15.414  0.00  0.00    +0.000 OA
BRANCH  19  20
ATOM     20  C   UNL     1       6.670   4.748  15.479  0.00  0.00    +0.000 C 
BRANCH  20  21
ATOM     21  C   UNL     1       7.189   5.469  16.694  0.00  0.00    +0.000 A 
ATOM     22  C   UNL     1       7.589   4.734  17.819  0.00  0.00    +0.000 A 
ATOM     23  C   UNL     1       8.075   5.385  18.950  0.00  0.00    +0.000 A 
ATOM     24  C   UNL     1       8.153   6.775  18.967  0.00  0.00    +0.000 A 
ATOM     25  C   UNL     1       7.750   7.512  17.859  0.00  0.00    +0.000 A 
ATOM     26  C   UNL     1       7.265   6.864  16.720  0.00  0.00    +0.000 A 
ENDBRANCH  20  21
ENDBRANCH  19  20
ENDBRANCH  18  19
ENDBRANCH   8  18
BRANCH   9  27
ATOM     27  C   UNL     1       2.655   2.489  18.218  0.00  0.00    +0.000 C 
BRANCH  27  28
ATOM     28  C   UNL     1       3.166   1.764  19.461  0.00  0.00    +0.000 C 
BRANCH  28  29
ATOM     29  C   UNL     1       4.489   2.292  19.994  0.00  0.00    +0.000 C 
BRANCH  29  30
ATOM     30  O   UNL     1       5.345   1.188  20.279  0.00  0.00    +0.000 OA
ATOM     31  H   UNL     1       5.578   0.759  19.442  0.00  0.00    +0.000 HD
ENDBRANCH  29  30
ENDBRANCH  28  29
ENDBRANCH  27  28
ENDBRANCH   9  27
TORSDOF 11
ENDMDL
MODEL 9
REMARK VINA RESULT:      -7.4      2.623      8.123
REMARK  Name = 
REMARK  11 active torsions:
REMARK  status: ('A' for Active; 'I' for Inactive)
REMARK    1  A    between atoms: C_2  and  C_3
REMARK    2  A    between atoms: C_4  and  C_5
REMARK    3  A    between atoms: C_12  and  C_13
REMARK    4  A    between atoms: C_13  and  O_14
REMARK    5  A    between atoms: O_14  and  C_15
REMARK    6  A    between atoms: C_15  and  C_16
REMARK    7  A    between atoms: N_22  and  C_23
REMARK    8  A    between atoms: C_23  and  C_24
REMARK    9  A    between atoms: C_24  and  C_25
REMARK   10  A    between atoms: C_25  and  O_26
REMARK   11  A    between atoms: N_27  and  O_28
REMARK                            x       y       z     vdW  Elec       q    Type
REMARK                         _______ _______ _______ _____ _____    ______ ____
ROOT
ATOM      1  C   UNL     1       1.632   8.354  19.504  0.00  0.00    +0.000 A 
ATOM      2  C   UNL     1       1.575   7.509  20.618  0.00  0.00    +0.000 A 
ATOM      3  C   UNL     1       2.128   6.212  20.614  0.00  0.00    +0.000 A 
ATOM      4  C   UNL     1       2.735   5.779  19.429  0.00  0.00    +0.000 A 
ATOM      5  C   UNL     1       2.822   6.605  18.320  0.00  0.00    +0.000 A 
ATOM      6  C   UNL     1       2.247   7.887  18.333  0.00  0.00    +0.000 A 
ATOM      7  N   UNL     1       3.520   6.005  17.324  0.00  0.00    +0.000 NA
ATOM      8  C   UNL     1       3.776   4.776  17.728  0.00  0.00    +0.000 A 
ATOM      9  N   UNL     1       3.342   4.601  19.030  0.00  0.00    +0.000 N 
ENDROOT
BRANCH   1  11
ATOM     10  C   UNL     1       1.192  10.642  18.643  0.00  0.00    +0.000 C 
ATOM     11  C   UNL     1       1.047   9.706  19.596  0.00  0.00    +0.000 C 
BRANCH  10  13
ATOM     12  O   UNL     1       1.189  13.019  18.351  0.00  0.00    +0.000 OA
ATOM     13  C   UNL     1       0.675  12.025  18.837  0.00  0.00    +0.000 C 
ATOM     14  N   UNL     1      -0.482  12.045  19.582  0.00  0.00    +0.000 N 
ATOM     15  H   UNL     1      -0.960  11.228  19.942  0.00  0.00    +0.000 HD
BRANCH  14  16
ATOM     16  O   UNL     1      -1.163  13.275  19.707  0.00  0.00    +0.000 OA
ATOM     17  H   UNL     1      -0.714  13.838  19.039  0.00  0.00    +0.000 HD
ENDBRANCH  14  16
ENDBRANCH  10  13
ENDBRANCH   1  11
BRANCH   8  18
ATOM     18  C   UNL     1       4.443   3.756  16.858  0.00  0.00    +0.000 C 
BRANCH  18  19
ATOM     19  O   UNL     1       5.132   4.425  15.796  0.00  0.00    +0.000 OA
BRANCH  19  20
ATOM     20  C   UNL     1       6.552   4.264  15.867  0.00  0.00    +0.000 C 
BRANCH  20  21
ATOM     21  C   UNL     1       7.096   5.246  16.869  0.00  0.00    +0.000 A 
ATOM     22  C   UNL     1       7.609   4.781  18.088  0.00  0.00    +0.000 A 
ATOM     23  C   UNL     1       8.120   5.675  19.025  0.00  0.00    +0.000 A 
ATOM     24  C   UNL     1       8.111   7.040  18.753  0.00  0.00    +0.000 A 
ATOM     25  C   UNL     1       7.597   7.511  17.550  0.00  0.00    +0.000 A 
ATOM     26  C   UNL     1       7.086   6.618  16.605  0.00  0.00    +0.000 A 
ENDBRANCH  20  21
ENDBRANCH  19  20
ENDBRANCH  18  19
ENDBRANCH   8  18
BRANCH   9  27
ATOM     27  C   UNL     1       3.563   3.439  19.870  0.00  0.00    +0.000 C 
BRANCH  27  28
ATOM     28  C   UNL     1       2.455   2.387  19.893  0.00  0.00    +0.000 C 
BRANCH  28  29
ATOM     29  C   UNL     1       1.382   2.632  20.942  0.00  0.00    +0.000 C 
BRANCH  29  30
ATOM     30  O   UNL     1       0.256   3.243  20.316  0.00  0.00    +0.000 OA
ATOM     31  H   UNL     1       0.077   2.775  19.486  0.00  0.00    +0.000 HD
ENDBRANCH  29  30
ENDBRANCH  28  29
ENDBRANCH  27  28
ENDBRANCH   9  27
TORSDOF 11
ENDMDL
