MODEL 1
REMARK VINA RESULT:      -7.3      0.000      0.000
REMARK  Name = 
REMARK  7 active torsions:
REMARK  status: ('A' for Active; 'I' for Inactive)
REMARK    1  A    between atoms: C_1  and  N_2
REMARK    2  A    between atoms: N_2  and  C_3
REMARK    3  A    between atoms: N_2  and  C_15
REMARK    4  A    between atoms: C_3  and  C_4
REMARK    5  A    between atoms: C_7  and  C_8
REMARK    6  A    between atoms: C_15  and  C_16
REMARK    7  A    between atoms: C_19  and  C_20
REMARK                            x       y       z     vdW  Elec       q    Type
REMARK                         _______ _______ _______ _____ _____    ______ ____
ROOT
ATOM      1  C   UNL     1       1.519   2.551  19.606  0.00  0.00    +0.000 C 
ATOM      2  N   UNL     1       2.481   3.658  19.499  0.00  0.00    +0.000 NA
ENDROOT
BRANCH   2   3
ATOM      3  C   UNL     1       2.369   4.573  20.657  0.00  0.00    +0.000 C 
BRANCH   3   4
ATOM      4  C   UNL     1       2.151   5.992  20.210  0.00  0.00    +0.000 A 
ATOM      5  C   UNL     1       2.593   6.551  19.026  0.00  0.00    +0.000 A 
ATOM      6  S   UNL     1       2.096   8.180  18.925  0.00  0.00    +0.000 S 
ATOM      7  C   UNL     1       1.327   8.044  20.463  0.00  0.00    +0.000 A 
ATOM      8  N   UNL     1       1.442   6.858  21.032  0.00  0.00    +0.000 NA
BRANCH   7   9
ATOM      9  C   UNL     1       0.654   9.200  21.079  0.00  0.00    +0.000 A 
ATOM     10  C   UNL     1       0.517  10.431  20.419  0.00  0.00    +0.000 A 
ATOM     11  C   UNL     1      -0.111  11.513  21.037  0.00  0.00    +0.000 A 
ATOM     12  C   UNL     1      -0.620  11.381  22.326  0.00  0.00    +0.000 A 
ATOM     13  C   UNL     1      -0.514  10.160  22.994  0.00  0.00    +0.000 A 
ATOM     14  C   UNL     1       0.114   9.077  22.371  0.00  0.00    +0.000 A 
ENDBRANCH   7   9
ENDBRANCH   3   4
ENDBRANCH   2   3
BRANCH   2  15
ATOM     15  C   UNL     1       3.845   3.079  19.414  0.00  0.00    +0.000 C 
BRANCH  15  16
ATOM     16  C   UNL     1       4.707   3.736  18.380  0.00  0.00    +0.000 A 
ATOM     17  N   UNL     1       5.875   4.330  18.660  0.00  0.00    +0.000 NA
ATOM     18  O   UNL     1       6.294   4.812  17.418  0.00  0.00    +0.000 OA
ATOM     19  C   UNL     1       5.325   4.468  16.519  0.00  0.00    +0.000 A 
ATOM     20  N   UNL     1       4.322   3.812  17.062  0.00  0.00    +0.000 NA
BRANCH  19  21
ATOM     21  C   UNL     1       5.501   4.963  15.129  0.00  0.00    +0.000 C 
ATOM     22  C   UNL     1       5.502   3.828  14.113  0.00  0.00    +0.000 C 
ATOM     23  C   UNL     1       6.539   4.271  13.113  0.00  0.00    +0.000 C 
ATOM     24  C   UNL     1       7.538   4.990  13.990  0.00  0.00    +0.000 C 
ATOM     25  O   UNL     1       6.781   5.625  15.028  0.00  0.00    +0.000 OA
ENDBRANCH  19  21
ENDBRANCH  15  16
ENDBRANCH   2  15
TORSDOF 6
ENDMDL
MODEL 2
REMARK VINA RESULT:      -7.1      2.756      8.724
REMARK  Name = 
REMARK  7 active torsions:
REMARK  status: ('A' for Active; 'I' for Inactive)
REMARK    1  A    between atoms: C_1  and  N_2
REMARK    2  A    between atoms: N_2  and  C_3
REMARK    3  A    between atoms: N_2  and  C_15
REMARK    4  A    between atoms: C_3  and  C_4
REMARK    5  A    between atoms: C_7  and  C_8
REMARK    6  A    between atoms: C_15  and  C_16
REMARK    7  A    between atoms: C_19  and  C_20
REMARK                            x       y       z     vdW  Elec       q    Type
REMARK                         _______ _______ _______ _____ _____    ______ ____
ROOT
ATOM      1  C   UNL     1       1.468   4.234  17.708  0.00  0.00    +0.000 C 
ATOM      2  N   UNL     1       2.472   4.734  18.660  0.00  0.00    +0.000 NA
ENDROOT
BRANCH   2   3
ATOM      3  C   UNL     1       3.591   3.776  18.804  0.00  0.00    +0.000 C 
BRANCH   3   4
ATOM      4  C   UNL     1       4.798   4.230  18.031  0.00  0.00    +0.000 A 
ATOM      5  C   UNL     1       5.905   4.875  18.550  0.00  0.00    +0.000 A 
ATOM      6  S   UNL     1       7.041   5.179  17.314  0.00  0.00    +0.000 S 
ATOM      7  C   UNL     1       5.991   4.438  16.163  0.00  0.00    +0.000 A 
ATOM      8  N   UNL     1       4.850   3.999  16.663  0.00  0.00    +0.000 NA
BRANCH   7   9
ATOM      9  C   UNL     1       6.355   4.371  14.738  0.00  0.00    +0.000 A 
ATOM     10  C   UNL     1       7.424   5.104  14.199  0.00  0.00    +0.000 A 
ATOM     11  C   UNL     1       7.733   5.032  12.839  0.00  0.00    +0.000 A 
ATOM     12  C   UNL     1       6.982   4.219  11.995  0.00  0.00    +0.000 A 
ATOM     13  C   UNL     1       5.928   3.465  12.513  0.00  0.00    +0.000 A 
ATOM     14  C   UNL     1       5.622   3.537  13.876  0.00  0.00    +0.000 A 
ENDBRANCH   7   9
ENDBRANCH   3   4
ENDBRANCH   2   3
BRANCH   2  15
ATOM     15  C   UNL     1       2.960   6.046  18.169  0.00  0.00    +0.000 C 
BRANCH  15  16
ATOM     16  C   UNL     1       2.354   7.214  18.885  0.00  0.00    +0.000 A 
ATOM     17  N   UNL     1       2.089   8.388  18.295  0.00  0.00    +0.000 NA
ATOM     18  O   UNL     1       1.570   9.159  19.338  0.00  0.00    +0.000 OA
ATOM     19  C   UNL     1       1.587   8.370  20.453  0.00  0.00    +0.000 A 
ATOM     20  N   UNL     1       2.069   7.166  20.230  0.00  0.00    +0.000 NA
BRANCH  19  21
ATOM     21  C   UNL     1       1.167   9.010  21.727  0.00  0.00    +0.000 C 
ATOM     22  C   UNL     1      -0.268   8.659  22.098  0.00  0.00    +0.000 C 
ATOM     23  C   UNL     1      -0.788   9.945  22.688  0.00  0.00    +0.000 C 
ATOM     24  C   UNL     1      -0.067  10.986  21.863  0.00  0.00    +0.000 C 
ATOM     25  O   UNL     1       1.227  10.445  21.570  0.00  0.00    +0.000 OA
ENDBRANCH  19  21
ENDBRANCH  15  16
ENDBRANCH   2  15
TORSDOF 6
ENDMDL
MODEL 3
REMARK VINA RESULT:      -7.1      0.394      1.038
REMARK  Name = 
REMARK  7 active torsions:
REMARK  status: ('A' for Active; 'I' for Inactive)
REMARK    1  A    between atoms: C_1  and  N_2
REMARK    2  A    between atoms: N_2  and  C_3
REMARK    3  A    between atoms: N_2  and  C_15
REMARK    4  A    between atoms: C_3  and  C_4
REMARK    5  A    between atoms: C_7  and  C_8
REMARK    6  A    between atoms: C_15  and  C_16
REMARK    7  A    between atoms: C_19  and  C_20
REMARK                            x       y       z     vdW  Elec       q    Type
REMARK                         _______ _______ _______ _____ _____    ______ ____
ROOT
ATOM      1  C   UNL     1       2.157   2.359  19.631  0.00  0.00    +0.000 C 
ATOM      2  N   UNL     1       2.896   3.630  19.633  0.00  0.00    +0.000 NA
ENDROOT
BRANCH   2   3
ATOM      3  C   UNL     1       2.455   4.500  20.747  0.00  0.00    +0.000 C 
BRANCH   3   4
ATOM      4  C   UNL     1       2.213   5.907  20.275  0.00  0.00    +0.000 A 
ATOM      5  C   UNL     1       2.630   6.448  19.074  0.00  0.00    +0.000 A 
ATOM      6  S   UNL     1       2.112   8.069  18.949  0.00  0.00    +0.000 S 
ATOM      7  C   UNL     1       1.367   7.954  20.501  0.00  0.00    +0.000 A 
ATOM      8  N   UNL     1       1.505   6.780  21.091  0.00  0.00    +0.000 NA
BRANCH   7   9
ATOM      9  C   UNL     1       0.688   9.113  21.104  0.00  0.00    +0.000 A 
ATOM     10  C   UNL     1       0.015   9.035  22.333  0.00  0.00    +0.000 A 
ATOM     11  C   UNL     1      -0.634  10.149  22.870  0.00  0.00    +0.000 A 
ATOM     12  C   UNL     1      -0.614  11.363  22.189  0.00  0.00    +0.000 A 
ATOM     13  C   UNL     1       0.068  11.469  20.976  0.00  0.00    +0.000 A 
ATOM     14  C   UNL     1       0.719  10.352  20.442  0.00  0.00    +0.000 A 
ENDBRANCH   7   9
ENDBRANCH   3   4
ENDBRANCH   2   3
BRANCH   2  15
ATOM     15  C   UNL     1       4.344   3.323  19.744  0.00  0.00    +0.000 C 
BRANCH  15  16
ATOM     16  C   UNL     1       5.175   3.982  18.687  0.00  0.00    +0.000 A 
ATOM     17  N   UNL     1       6.358   4.564  18.932  0.00  0.00    +0.000 NA
ATOM     18  O   UNL     1       6.737   5.054  17.680  0.00  0.00    +0.000 OA
ATOM     19  C   UNL     1       5.735   4.727  16.812  0.00  0.00    +0.000 A 
ATOM     20  N   UNL     1       4.746   4.074  17.383  0.00  0.00    +0.000 NA
BRANCH  19  21
ATOM     21  C   UNL     1       5.867   5.233  15.421  0.00  0.00    +0.000 C 
ATOM     22  C   UNL     1       5.484   4.179  14.390  0.00  0.00    +0.000 C 
ATOM     23  C   UNL     1       6.478   4.415  13.281  0.00  0.00    +0.000 C 
ATOM     24  C   UNL     1       7.711   4.836  14.046  0.00  0.00    +0.000 C 
ATOM     25  O   UNL     1       7.248   5.580  15.180  0.00  0.00    +0.000 OA
ENDBRANCH  19  21
ENDBRANCH  15  16
ENDBRANCH   2  15
TORSDOF 6
ENDMDL
MODEL 4
REMARK VINA RESULT:      -7.1      2.081      2.497
REMARK  Name = 
REMARK  7 active torsions:
REMARK  status: ('A' for Active; 'I' for Inactive)
REMARK    1  A    between atoms: C_1  and  N_2
REMARK    2  A    between atoms: N_2  and  C_3
REMARK    3  A    between atoms: N_2  and  C_15
REMARK    4  A    between atoms: C_3  and  C_4
REMARK    5  A    between atoms: C_7  and  C_8
REMARK    6  A    between atoms: C_15  and  C_16
REMARK    7  A    between atoms: C_19  and  C_20
REMARK                            x       y       z     vdW  Elec       q    Type
REMARK                         _______ _______ _______ _____ _____    ______ ____
ROOT
ATOM      1  C   UNL     1       1.404   3.120  18.372  0.00  0.00    +0.000 C 
ATOM      2  N   UNL     1       2.510   4.079  18.232  0.00  0.00    +0.000 NA
ENDROOT
BRANCH   2   3
ATOM      3  C   UNL     1       2.728   4.827  19.491  0.00  0.00    +0.000 C 
BRANCH   3   4
ATOM      4  C   UNL     1       2.406   6.286  19.319  0.00  0.00    +0.000 A 
ATOM      5  C   UNL     1       2.730   7.070  18.228  0.00  0.00    +0.000 A 
ATOM      6  S   UNL     1       2.146   8.658  18.452  0.00  0.00    +0.000 S 
ATOM      7  C   UNL     1       1.500   8.207  19.987  0.00  0.00    +0.000 A 
ATOM      8  N   UNL     1       1.716   6.948  20.326  0.00  0.00    +0.000 NA
BRANCH   7   9
ATOM      9  C   UNL     1       0.817   9.192  20.841  0.00  0.00    +0.000 A 
ATOM     10  C   UNL     1       0.663  10.536  20.465  0.00  0.00    +0.000 A 
ATOM     11  C   UNL     1       0.025  11.450  21.306  0.00  0.00    +0.000 A 
ATOM     12  C   UNL     1      -0.478  11.033  22.536  0.00  0.00    +0.000 A 
ATOM     13  C   UNL     1      -0.355   9.698  22.920  0.00  0.00    +0.000 A 
ATOM     14  C   UNL     1       0.283   8.784  22.075  0.00  0.00    +0.000 A 
ENDBRANCH   7   9
ENDBRANCH   3   4
ENDBRANCH   2   3
BRANCH   2  15
ATOM     15  C   UNL     1       3.729   3.326  17.848  0.00  0.00    +0.000 C 
BRANCH  15  16
ATOM     16  C   UNL     1       5.001   4.050  18.166  0.00  0.00    +0.000 A 
ATOM     17  N   UNL     1       5.635   3.950  19.344  0.00  0.00    +0.000 NA
ATOM     18  O   UNL     1       6.729   4.804  19.191  0.00  0.00    +0.000 OA
ATOM     19  C   UNL     1       6.634   5.340  17.938  0.00  0.00    +0.000 A 
ATOM     20  N   UNL     1       5.583   4.916  17.270  0.00  0.00    +0.000 NA
BRANCH  19  21
ATOM     21  C   UNL     1       7.646   6.366  17.575  0.00  0.00    +0.000 C 
ATOM     22  C   UNL     1       8.231   7.052  18.803  0.00  0.00    +0.000 C 
ATOM     23  C   UNL     1       8.390   8.481  18.347  0.00  0.00    +0.000 C 
ATOM     24  C   UNL     1       7.205   8.653  17.426  0.00  0.00    +0.000 C 
ATOM     25  O   UNL     1       7.008   7.389  16.780  0.00  0.00    +0.000 OA
ENDBRANCH  19  21
ENDBRANCH  15  16
ENDBRANCH   2  15
TORSDOF 6
ENDMDL
MODEL 5
REMARK VINA RESULT:      -7.0      4.457      5.618
REMARK  Name = 
REMARK  7 active torsions:
REMARK  status: ('A' for Active; 'I' for Inactive)
REMARK    1  A    between atoms: C_1  and  N_2
REMARK    2  A    between atoms: N_2  and  C_3
REMARK    3  A    between atoms: N_2  and  C_15
REMARK    4  A    between atoms: C_3  and  C_4
REMARK    5  A    between atoms: C_7  and  C_8
REMARK    6  A    between atoms: C_15  and  C_16
REMARK    7  A    between atoms: C_19  and  C_20
REMARK                            x       y       z     vdW  Elec       q    Type
REMARK                         _______ _______ _______ _____ _____    ______ ____
ROOT
ATOM      1  C   UNL     1       7.049   4.979  16.149  0.00  0.00    +0.000 C 
ATOM      2  N   UNL     1       6.444   5.400  17.422  0.00  0.00    +0.000 NA
ENDROOT
BRANCH   2   3
ATOM      3  C   UNL     1       5.700   4.286  18.051  0.00  0.00    +0.000 C 
BRANCH   3   4
ATOM      4  C   UNL     1       4.466   4.783  18.752  0.00  0.00    +0.000 A 
ATOM      5  C   UNL     1       3.706   4.076  19.664  0.00  0.00    +0.000 A 
ATOM      6  S   UNL     1       2.413   5.039  20.222  0.00  0.00    +0.000 S 
ATOM      7  C   UNL     1       2.941   6.336  19.214  0.00  0.00    +0.000 A 
ATOM      8  N   UNL     1       4.012   6.068  18.489  0.00  0.00    +0.000 NA
BRANCH   7   9
ATOM      9  C   UNL     1       2.195   7.604  19.157  0.00  0.00    +0.000 A 
ATOM     10  C   UNL     1       2.044   8.337  17.969  0.00  0.00    +0.000 A 
ATOM     11  C   UNL     1       1.345   9.545  17.952  0.00  0.00    +0.000 A 
ATOM     12  C   UNL     1       0.778  10.039  19.124  0.00  0.00    +0.000 A 
ATOM     13  C   UNL     1       0.896   9.317  20.311  0.00  0.00    +0.000 A 
ATOM     14  C   UNL     1       1.596   8.106  20.325  0.00  0.00    +0.000 A 
ENDBRANCH   7   9
ENDBRANCH   3   4
ENDBRANCH   2   3
BRANCH   2  15
ATOM     15  C   UNL     1       7.529   5.880  18.313  0.00  0.00    +0.000 C 
BRANCH  15  16
ATOM     16  C   UNL     1       7.805   7.347  18.179  0.00  0.00    +0.000 A 
ATOM     17  N   UNL     1       7.202   8.133  17.277  0.00  0.00    +0.000 NA
ATOM     18  O   UNL     1       7.784   9.382  17.503  0.00  0.00    +0.000 OA
ATOM     19  C   UNL     1       8.688   9.215  18.513  0.00  0.00    +0.000 A 
ATOM     20  N   UNL     1       8.746   7.978  18.958  0.00  0.00    +0.000 NA
BRANCH  19  21
ATOM     21  C   UNL     1       9.513  10.398  18.871  0.00  0.00    +0.000 C 
ATOM     22  C   UNL     1       9.296  10.832  20.315  0.00  0.00    +0.000 C 
ATOM     23  C   UNL     1       9.350  12.336  20.227  0.00  0.00    +0.000 C 
ATOM     24  C   UNL     1       8.730  12.596  18.874  0.00  0.00    +0.000 C 
ATOM     25  O   UNL     1       9.127  11.507  18.031  0.00  0.00    +0.000 OA
ENDBRANCH  19  21
ENDBRANCH  15  16
ENDBRANCH   2  15
TORSDOF 6
ENDMDL
MODEL 6
REMARK VINA RESULT:      -6.9      0.980      1.361
REMARK  Name = 
REMARK  7 active torsions:
REMARK  status: ('A' for Active; 'I' for Inactive)
REMARK    1  A    between atoms: C_1  and  N_2
REMARK    2  A    between atoms: N_2  and  C_3
REMARK    3  A    between atoms: N_2  and  C_15
REMARK    4  A    between atoms: C_3  and  C_4
REMARK    5  A    between atoms: C_7  and  C_8
REMARK    6  A    between atoms: C_15  and  C_16
REMARK    7  A    between atoms: C_19  and  C_20
REMARK                            x       y       z     vdW  Elec       q    Type
REMARK                         _______ _______ _______ _____ _____    ______ ____
ROOT
ATOM      1  C   UNL     1       1.213   3.847  20.338  0.00  0.00    +0.000 C 
ATOM      2  N   UNL     1       2.299   4.502  19.593  0.00  0.00    +0.000 NA
ENDROOT
BRANCH   2   3
ATOM      3  C   UNL     1       2.798   5.693  20.318  0.00  0.00    +0.000 C 
BRANCH   3   4
ATOM      4  C   UNL     1       2.368   6.963  19.638  0.00  0.00    +0.000 A 
ATOM      5  C   UNL     1       2.717   7.363  18.362  0.00  0.00    +0.000 A 
ATOM      6  S   UNL     1       1.982   8.859  17.995  0.00  0.00    +0.000 S 
ATOM      7  C   UNL     1       1.249   8.885  19.556  0.00  0.00    +0.000 A 
ATOM      8  N   UNL     1       1.542   7.847  20.319  0.00  0.00    +0.000 NA
BRANCH   7   9
ATOM      9  C   UNL     1       0.414  10.021  19.982  0.00  0.00    +0.000 A 
ATOM     10  C   UNL     1       0.646  10.719  21.178  0.00  0.00    +0.000 A 
ATOM     11  C   UNL     1      -0.175  11.781  21.562  0.00  0.00    +0.000 A 
ATOM     12  C   UNL     1      -1.240  12.167  20.753  0.00  0.00    +0.000 A 
ATOM     13  C   UNL     1      -1.477  11.501  19.550  0.00  0.00    +0.000 A 
ATOM     14  C   UNL     1      -0.651  10.439  19.166  0.00  0.00    +0.000 A 
ENDBRANCH   7   9
ENDBRANCH   3   4
ENDBRANCH   2   3
BRANCH   2  15
ATOM     15  C   UNL     1       3.386   3.512  19.394  0.00  0.00    +0.000 C 
BRANCH  15  16
ATOM     16  C   UNL     1       4.370   3.912  18.337  0.00  0.00    +0.000 A 
ATOM     17  N   UNL     1       5.656   4.191  18.591  0.00  0.00    +0.000 NA
ATOM     18  O   UNL     1       6.162   4.533  17.335  0.00  0.00    +0.000 OA
ATOM     19  C   UNL     1       5.122   4.436  16.455  0.00  0.00    +0.000 A 
ATOM     20  N   UNL     1       3.994   4.066  17.023  0.00  0.00    +0.000 NA
BRANCH  19  21
ATOM     21  C   UNL     1       5.395   4.850  15.055  0.00  0.00    +0.000 C 
ATOM     22  C   UNL     1       5.624   3.654  14.139  0.00  0.00    +0.000 C 
ATOM     23  C   UNL     1       6.711   4.140  13.215  0.00  0.00    +0.000 C 
ATOM     24  C   UNL     1       7.528   5.026  14.126  0.00  0.00    +0.000 C 
ATOM     25  O   UNL     1       6.602   5.642  15.029  0.00  0.00    +0.000 OA
ENDBRANCH  19  21
ENDBRANCH  15  16
ENDBRANCH   2  15
TORSDOF 6
ENDMDL
MODEL 7
REMARK VINA RESULT:      -6.9      2.788      4.861
REMARK  Name = 
REMARK  7 active torsions:
REMARK  status: ('A' for Active; 'I' for Inactive)
REMARK    1  A    between atoms: C_1  and  N_2
REMARK    2  A    between atoms: N_2  and  C_3
REMARK    3  A    between atoms: N_2  and  C_15
REMARK    4  A    between atoms: C_3  and  C_4
REMARK    5  A    between atoms: C_7  and  C_8
REMARK    6  A    between atoms: C_15  and  C_16
REMARK    7  A    between atoms: C_19  and  C_20
REMARK                            x       y       z     vdW  Elec       q    Type
REMARK                         _______ _______ _______ _____ _____    ______ ____
ROOT
ATOM      1  C   UNL     1       6.711   7.511  17.334  0.00  0.00    +0.000 C 
ATOM      2  N   UNL     1       5.619   6.570  17.622  0.00  0.00    +0.000 NA
ENDROOT
BRANCH   2   3
ATOM      3  C   UNL     1       4.382   6.954  16.905  0.00  0.00    +0.000 C 
BRANCH   3   4
ATOM      4  C   UNL     1       3.334   7.457  17.858  0.00  0.00    +0.000 A 
ATOM      5  C   UNL     1       3.000   6.892  19.074  0.00  0.00    +0.000 A 
ATOM      6  S   UNL     1       1.775   7.808  19.831  0.00  0.00    +0.000 S 
ATOM      7  C   UNL     1       1.761   8.898  18.493  0.00  0.00    +0.000 A 
ATOM      8  N   UNL     1       2.610   8.594  17.527  0.00  0.00    +0.000 NA
BRANCH   7   9
ATOM      9  C   UNL     1       0.823  10.032  18.450  0.00  0.00    +0.000 A 
ATOM     10  C   UNL     1      -0.517   9.886  18.061  0.00  0.00    +0.000 A 
ATOM     11  C   UNL     1      -1.377  10.985  18.014  0.00  0.00    +0.000 A 
ATOM     12  C   UNL     1      -0.911  12.250  18.361  0.00  0.00    +0.000 A 
ATOM     13  C   UNL     1       0.412  12.416  18.771  0.00  0.00    +0.000 A 
ATOM     14  C   UNL     1       1.271  11.312  18.820  0.00  0.00    +0.000 A 
ENDBRANCH   7   9
ENDBRANCH   3   4
ENDBRANCH   2   3
BRANCH   2  15
ATOM     15  C   UNL     1       6.061   5.211  17.221  0.00  0.00    +0.000 C 
BRANCH  15  16
ATOM     16  C   UNL     1       5.068   4.140  17.553  0.00  0.00    +0.000 A 
ATOM     17  N   UNL     1       4.513   3.335  16.635  0.00  0.00    +0.000 NA
ATOM     18  O   UNL     1       3.651   2.537  17.390  0.00  0.00    +0.000 OA
ATOM     19  C   UNL     1       3.768   2.953  18.686  0.00  0.00    +0.000 A 
ATOM     20  N   UNL     1       4.621   3.943  18.839  0.00  0.00    +0.000 NA
BRANCH  19  21
ATOM     21  C   UNL     1       2.865   2.310  19.675  0.00  0.00    +0.000 C 
ATOM     22  C   UNL     1       1.444   2.852  19.591  0.00  0.00    +0.000 C 
ATOM     23  C   UNL     1       1.012   2.893  21.034  0.00  0.00    +0.000 C 
ATOM     24  C   UNL     1       2.302   3.238  21.741  0.00  0.00    +0.000 C 
ATOM     25  O   UNL     1       3.351   2.596  21.005  0.00  0.00    +0.000 OA
ENDBRANCH  19  21
ENDBRANCH  15  16
ENDBRANCH   2  15
TORSDOF 6
ENDMDL
MODEL 8
REMARK VINA RESULT:      -6.9      2.745      8.827
REMARK  Name = 
REMARK  7 active torsions:
REMARK  status: ('A' for Active; 'I' for Inactive)
REMARK    1  A    between atoms: C_1  and  N_2
REMARK    2  A    between atoms: N_2  and  C_3
REMARK    3  A    between atoms: N_2  and  C_15
REMARK    4  A    between atoms: C_3  and  C_4
REMARK    5  A    between atoms: C_7  and  C_8
REMARK    6  A    between atoms: C_15  and  C_16
REMARK    7  A    between atoms: C_19  and  C_20
REMARK                            x       y       z     vdW  Elec       q    Type
REMARK                         _______ _______ _______ _____ _____    ______ ____
ROOT
ATOM      1  C   UNL     1       1.854   4.424  20.121  0.00  0.00    +0.000 C 
ATOM      2  N   UNL     1       3.128   4.965  19.624  0.00  0.00    +0.000 NA
ENDROOT
BRANCH   2   3
ATOM      3  C   UNL     1       3.956   3.900  19.015  0.00  0.00    +0.000 C 
BRANCH   3   4
ATOM      4  C   UNL     1       5.013   4.480  18.116  0.00  0.00    +0.000 A 
ATOM      5  C   UNL     1       5.989   5.387  18.485  0.00  0.00    +0.000 A 
ATOM      6  S   UNL     1       6.987   5.750  17.149  0.00  0.00    +0.000 S 
ATOM      7  C   UNL     1       6.058   4.683  16.161  0.00  0.00    +0.000 A 
ATOM      8  N   UNL     1       5.051   4.096  16.783  0.00  0.00    +0.000 NA
BRANCH   7   9
ATOM      9  C   UNL     1       6.367   4.513  14.732  0.00  0.00    +0.000 A 
ATOM     10  C   UNL     1       5.625   3.662  13.898  0.00  0.00    +0.000 A 
ATOM     11  C   UNL     1       5.953   3.509  12.550  0.00  0.00    +0.000 A 
ATOM     12  C   UNL     1       7.028   4.210  12.010  0.00  0.00    +0.000 A 
ATOM     13  C   UNL     1       7.767   5.078  12.815  0.00  0.00    +0.000 A 
ATOM     14  C   UNL     1       7.434   5.231  14.165  0.00  0.00    +0.000 A 
ENDBRANCH   7   9
ENDBRANCH   3   4
ENDBRANCH   2   3
BRANCH   2  15
ATOM     15  C   UNL     1       2.823   6.027  18.633  0.00  0.00    +0.000 C 
BRANCH  15  16
ATOM     16  C   UNL     1       2.199   7.246  19.241  0.00  0.00    +0.000 A 
ATOM     17  N   UNL     1       1.836   8.324  18.530  0.00  0.00    +0.000 NA
ATOM     18  O   UNL     1       1.341   9.195  19.503  0.00  0.00    +0.000 OA
ATOM     19  C   UNL     1       1.468   8.555  20.702  0.00  0.00    +0.000 A 
ATOM     20  N   UNL     1       2.000   7.356  20.597  0.00  0.00    +0.000 NA
BRANCH  19  21
ATOM     21  C   UNL     1       1.093   9.330  21.913  0.00  0.00    +0.000 C 
ATOM     22  C   UNL     1      -0.316   9.000  22.390  0.00  0.00    +0.000 C 
ATOM     23  C   UNL     1      -0.836  10.337  22.853  0.00  0.00    +0.000 C 
ATOM     24  C   UNL     1      -0.176  11.288  21.882  0.00  0.00    +0.000 C 
ATOM     25  O   UNL     1       1.115  10.737  21.592  0.00  0.00    +0.000 OA
ENDBRANCH  19  21
ENDBRANCH  15  16
ENDBRANCH   2  15
TORSDOF 6
ENDMDL
MODEL 9
REMARK VINA RESULT:      -6.8      2.280      3.499
REMARK  Name = 
REMARK  7 active torsions:
REMARK  status: ('A' for Active; 'I' for Inactive)
REMARK    1  A    between atoms: C_1  and  N_2
REMARK    2  A    between atoms: N_2  and  C_3
REMARK    3  A    between atoms: N_2  and  C_15
REMARK    4  A    between atoms: C_3  and  C_4
REMARK    5  A    between atoms: C_7  and  C_8
REMARK    6  A    between atoms: C_15  and  C_16
REMARK    7  A    between atoms: C_19  and  C_20
REMARK                            x       y       z     vdW  Elec       q    Type
REMARK                         _______ _______ _______ _____ _____    ______ ____
ROOT
ATOM      1  C   UNL     1       5.016   6.260  16.058  0.00  0.00    +0.000 C 
ATOM      2  N   UNL     1       5.451   5.422  17.185  0.00  0.00    +0.000 NA
ENDROOT
BRANCH   2   3
ATOM      3  C   UNL     1       4.430   4.400  17.513  0.00  0.00    +0.000 C 
BRANCH   3   4
ATOM      4  C   UNL     1       3.511   4.881  18.602  0.00  0.00    +0.000 A 
ATOM      5  C   UNL     1       2.992   4.114  19.628  0.00  0.00    +0.000 A 
ATOM      6  S   UNL     1       2.018   5.078  20.645  0.00  0.00    +0.000 S 
ATOM      7  C   UNL     1       2.343   6.454  19.657  0.00  0.00    +0.000 A 
ATOM      8  N   UNL     1       3.122   6.213  18.618  0.00  0.00    +0.000 NA
BRANCH   7   9
ATOM      9  C   UNL     1       1.736   7.762  19.956  0.00  0.00    +0.000 A 
ATOM     10  C   UNL     1       1.656   8.790  19.004  0.00  0.00    +0.000 A 
ATOM     11  C   UNL     1       1.089  10.025  19.323  0.00  0.00    +0.000 A 
ATOM     12  C   UNL     1       0.586  10.251  20.602  0.00  0.00    +0.000 A 
ATOM     13  C   UNL     1       0.636   9.237  21.558  0.00  0.00    +0.000 A 
ATOM     14  C   UNL     1       1.202   8.000  21.234  0.00  0.00    +0.000 A 
ENDBRANCH   7   9
ENDBRANCH   3   4
ENDBRANCH   2   3
BRANCH   2  15
ATOM     15  C   UNL     1       6.738   4.782  16.816  0.00  0.00    +0.000 C 
BRANCH  15  16
ATOM     16  C   UNL     1       6.980   4.740  15.338  0.00  0.00    +0.000 A 
ATOM     17  N   UNL     1       7.772   5.608  14.694  0.00  0.00    +0.000 NA
ATOM     18  O   UNL     1       7.670   5.205  13.361  0.00  0.00    +0.000 OA
ATOM     19  C   UNL     1       6.814   4.140  13.339  0.00  0.00    +0.000 A 
ATOM     20  N   UNL     1       6.354   3.820  14.530  0.00  0.00    +0.000 NA
BRANCH  19  21
ATOM     21  C   UNL     1       6.467   3.592  12.003  0.00  0.00    +0.000 C 
ATOM     22  C   UNL     1       5.203   2.744  12.042  0.00  0.00    +0.000 C 
ATOM     23  C   UNL     1       5.514   1.628  11.079  0.00  0.00    +0.000 C 
ATOM     24  C   UNL     1       6.998   1.435  11.287  0.00  0.00    +0.000 C 
ATOM     25  O   UNL     1       7.541   2.734  11.558  0.00  0.00    +0.000 OA
ENDBRANCH  19  21
ENDBRANCH  15  16
ENDBRANCH   2  15
TORSDOF 6
ENDMDL
