MODEL 1
REMARK VINA RESULT:      -6.5      0.000      0.000
REMARK  Name = 
REMARK  6 active torsions:
REMARK  status: ('A' for Active; 'I' for Inactive)
REMARK    1  A    between atoms: C_1  and  O_2
REMARK    2  A    between atoms: O_2  and  C_3
REMARK    3  A    between atoms: N_11  and  C_12
REMARK    4  A    between atoms: C_19  and  C_20
REMARK    5  A    between atoms: C_31  and  O_32
REMARK    6  A    between atoms: O_32  and  C_33
REMARK                            x       y       z     vdW  Elec       q    Type
REMARK                         _______ _______ _______ _____ _____    ______ ____
ROOT
ATOM      1  C   UNL     1      -6.070  12.942  17.806  0.00  0.00    +0.000 A 
ATOM      2  C   UNL     1      -6.136  13.772  18.936  0.00  0.00    +0.000 A 
ATOM      3  C   UNL     1      -5.198  13.726  19.956  0.00  0.00    +0.000 A 
ATOM      4  N   UNL     1      -5.305  14.648  20.907  0.00  0.00    +0.000 NA
ATOM      5  C   UNL     1      -4.395  14.696  21.877  0.00  0.00    +0.000 A 
ATOM      6  N   UNL     1      -4.521  15.668  22.855  0.00  0.00    +0.000 N 
ATOM      7  C   UNL     1      -3.269  16.281  23.327  0.00  0.00    +0.000 C 
ATOM      8  C   UNL     1      -3.537  17.010  24.666  0.00  0.00    +0.000 C 
ATOM      9  N   UNL     1      -4.615  18.024  24.568  0.00  0.00    +0.000 NA
ATOM     10  C   UNL     1      -4.871  18.628  25.874  0.00  0.00    +0.000 C 
ATOM     11  C   UNL     1      -5.842  17.380  24.042  0.00  0.00    +0.000 C 
ATOM     12  C   UNL     1      -5.605  16.655  22.692  0.00  0.00    +0.000 C 
ATOM     13  N   UNL     1      -3.399  13.798  21.967  0.00  0.00    +0.000 NA
ATOM     14  C   UNL     1      -3.281  12.851  20.987  0.00  0.00    +0.000 A 
ATOM     15  N   UNL     1      -2.134  11.981  21.057  0.00  0.00    +0.000 N 
ATOM     16  N   UNL     1      -1.614  11.327  19.980  0.00  0.00    +0.000 NA
ATOM     17  C   UNL     1      -0.514  10.743  20.473  0.00  0.00    +0.000 A 
ATOM     18  N   UNL     1      -0.334  10.939  21.823  0.00  0.00    +0.000 NA
ATOM     19  C   UNL     1      -1.340  11.706  22.169  0.00  0.00    +0.000 A 
ATOM     20  N   UNL     1      -1.590  12.110  23.421  0.00  0.00    +0.000 N 
ATOM     21  C   UNL     1      -4.194  12.761  19.919  0.00  0.00    +0.000 A 
ATOM     22  C   UNL     1      -4.239  11.809  18.860  0.00  0.00    +0.000 A 
ATOM     23  C   UNL     1      -5.136  11.912  17.793  0.00  0.00    +0.000 A 
ATOM     24  H   UNL     1      -0.962  11.861  24.179  0.00  0.00    +0.000 HD
ATOM     25  H   UNL     1      -2.363  12.744  23.640  0.00  0.00    +0.000 HD
ENDROOT
BRANCH  17  26
ATOM     26  C   UNL     1       0.474   9.969  19.692  0.00  0.00    +0.000 A 
ATOM     27  C   UNL     1       1.004   8.789  20.230  0.00  0.00    +0.000 A 
ATOM     28  C   UNL     1       1.986   8.090  19.529  0.00  0.00    +0.000 A 
ATOM     29  C   UNL     1       2.416   8.581  18.304  0.00  0.00    +0.000 A 
ATOM     30  C   UNL     1       1.838   9.746  17.823  0.00  0.00    +0.000 A 
ATOM     31  N   UNL     1       0.886  10.446  18.484  0.00  0.00    +0.000 NA
ENDBRANCH  17  26
BRANCH   1  33
ATOM     32  C   UNL     1      -7.523  14.422  16.673  0.00  0.00    +0.000 C 
ATOM     33  O   UNL     1      -6.914  13.131  16.745  0.00  0.00    +0.000 OA
ENDBRANCH   1  33
BRANCH  23  34
ATOM     34  O   UNL     1      -4.920  10.934  16.867  0.00  0.00    +0.000 OA
ATOM     35  C   UNL     1      -3.791  11.010  16.017  0.00  0.00    +0.000 C 
ENDBRANCH  23  34
TORSDOF 3
ENDMDL
MODEL 2
REMARK VINA RESULT:      -6.5      1.945      2.902
REMARK  Name = 
REMARK  6 active torsions:
REMARK  status: ('A' for Active; 'I' for Inactive)
REMARK    1  A    between atoms: C_1  and  O_2
REMARK    2  A    between atoms: O_2  and  C_3
REMARK    3  A    between atoms: N_11  and  C_12
REMARK    4  A    between atoms: C_19  and  C_20
REMARK    5  A    between atoms: C_31  and  O_32
REMARK    6  A    between atoms: O_32  and  C_33
REMARK                            x       y       z     vdW  Elec       q    Type
REMARK                         _______ _______ _______ _____ _____    ______ ____
ROOT
ATOM      1  C   UNL     1      -3.951  11.574  17.472  0.00  0.00    +0.000 A 
ATOM      2  C   UNL     1      -3.936  12.358  18.636  0.00  0.00    +0.000 A 
ATOM      3  C   UNL     1      -3.023  12.163  19.661  0.00  0.00    +0.000 A 
ATOM      4  N   UNL     1      -3.036  13.051  20.649  0.00  0.00    +0.000 NA
ATOM      5  C   UNL     1      -2.140  12.954  21.627  0.00  0.00    +0.000 A 
ATOM      6  N   UNL     1      -2.167  13.894  22.645  0.00  0.00    +0.000 N 
ATOM      7  C   UNL     1      -0.860  14.340  23.153  0.00  0.00    +0.000 C 
ATOM      8  C   UNL     1      -1.060  15.039  24.519  0.00  0.00    +0.000 C 
ATOM      9  N   UNL     1      -2.015  16.172  24.456  0.00  0.00    +0.000 NA
ATOM     10  C   UNL     1      -2.217  16.747  25.784  0.00  0.00    +0.000 C 
ATOM     11  C   UNL     1      -3.300  15.695  23.893  0.00  0.00    +0.000 C 
ATOM     12  C   UNL     1      -3.129  15.004  22.515  0.00  0.00    +0.000 C 
ATOM     13  N   UNL     1      -1.253  11.946  21.687  0.00  0.00    +0.000 NA
ATOM     14  C   UNL     1      -1.231  11.033  20.669  0.00  0.00    +0.000 A 
ATOM     15  N   UNL     1      -0.192  10.035  20.711  0.00  0.00    +0.000 N 
ATOM     16  N   UNL     1       0.264   9.371  19.612  0.00  0.00    +0.000 NA
ATOM     17  C   UNL     1       1.285   8.646  20.088  0.00  0.00    +0.000 A 
ATOM     18  N   UNL     1       1.468   8.764  21.446  0.00  0.00    +0.000 NA
ATOM     19  C   UNL     1       0.552   9.626  21.817  0.00  0.00    +0.000 A 
ATOM     20  N   UNL     1       0.333  10.004  23.083  0.00  0.00    +0.000 N 
ATOM     21  C   UNL     1      -2.135  11.092  19.591  0.00  0.00    +0.000 A 
ATOM     22  C   UNL     1      -2.274  10.196  18.492  0.00  0.00    +0.000 A 
ATOM     23  C   UNL     1      -3.140  10.445  17.423  0.00  0.00    +0.000 A 
ATOM     24  H   UNL     1       0.919   9.653  23.834  0.00  0.00    +0.000 HD
ATOM     25  H   UNL     1      -0.366  10.712  23.322  0.00  0.00    +0.000 HD
ENDROOT
BRANCH  17  26
ATOM     26  C   UNL     1       2.188   7.797  19.283  0.00  0.00    +0.000 A 
ATOM     27  C   UNL     1       2.636   8.256  18.038  0.00  0.00    +0.000 A 
ATOM     28  C   UNL     1       3.434   7.433  17.243  0.00  0.00    +0.000 A 
ATOM     29  C   UNL     1       3.770   6.170  17.710  0.00  0.00    +0.000 A 
ATOM     30  C   UNL     1       3.306   5.785  18.958  0.00  0.00    +0.000 A 
ATOM     31  N   UNL     1       2.528   6.563  19.749  0.00  0.00    +0.000 NA
ENDBRANCH  17  26
BRANCH   1  33
ATOM     32  C   UNL     1      -5.912  12.671  16.743  0.00  0.00    +0.000 C 
ATOM     33  O   UNL     1      -4.754  11.901  16.413  0.00  0.00    +0.000 OA
ENDBRANCH   1  33
BRANCH  23  34
ATOM     34  O   UNL     1      -3.025   9.487  16.458  0.00  0.00    +0.000 OA
ATOM     35  C   UNL     1      -2.707   9.863  15.131  0.00  0.00    +0.000 C 
ENDBRANCH  23  34
TORSDOF 3
ENDMDL
MODEL 3
REMARK VINA RESULT:      -6.4      4.672      7.509
REMARK  Name = 
REMARK  6 active torsions:
REMARK  status: ('A' for Active; 'I' for Inactive)
REMARK    1  A    between atoms: C_1  and  O_2
REMARK    2  A    between atoms: O_2  and  C_3
REMARK    3  A    between atoms: N_11  and  C_12
REMARK    4  A    between atoms: C_19  and  C_20
REMARK    5  A    between atoms: C_31  and  O_32
REMARK    6  A    between atoms: O_32  and  C_33
REMARK                            x       y       z     vdW  Elec       q    Type
REMARK                         _______ _______ _______ _____ _____    ______ ____
ROOT
ATOM      1  C   UNL     1      -2.680  13.899  23.845  0.00  0.00    +0.000 A 
ATOM      2  C   UNL     1      -3.084  13.418  22.590  0.00  0.00    +0.000 A 
ATOM      3  C   UNL     1      -2.215  13.295  21.518  0.00  0.00    +0.000 A 
ATOM      4  N   UNL     1      -2.694  12.711  20.425  0.00  0.00    +0.000 NA
ATOM      5  C   UNL     1      -1.888  12.505  19.386  0.00  0.00    +0.000 A 
ATOM      6  N   UNL     1      -2.406  11.889  18.259  0.00  0.00    +0.000 N 
ATOM      7  C   UNL     1      -1.516  10.939  17.572  0.00  0.00    +0.000 C 
ATOM      8  C   UNL     1      -2.065  10.670  16.149  0.00  0.00    +0.000 C 
ATOM      9  N   UNL     1      -3.463  10.175  16.152  0.00  0.00    +0.000 NA
ATOM     10  C   UNL     1      -3.950  10.006  14.785  0.00  0.00    +0.000 C 
ATOM     11  C   UNL     1      -4.317  11.131  16.896  0.00  0.00    +0.000 C 
ATOM     12  C   UNL     1      -3.797  11.405  18.331  0.00  0.00    +0.000 C 
ATOM     13  N   UNL     1      -0.612  12.928  19.377  0.00  0.00    +0.000 NA
ATOM     14  C   UNL     1      -0.113  13.525  20.501  0.00  0.00    +0.000 A 
ATOM     15  N   UNL     1       1.289  13.860  20.493  0.00  0.00    +0.000 N 
ATOM     16  N   UNL     1       2.036  14.015  21.622  0.00  0.00    +0.000 NA
ATOM     17  C   UNL     1       3.276  14.199  21.151  0.00  0.00    +0.000 A 
ATOM     18  N   UNL     1       3.354  14.231  19.778  0.00  0.00    +0.000 NA
ATOM     19  C   UNL     1       2.120  14.019  19.385  0.00  0.00    +0.000 A 
ATOM     20  N   UNL     1       1.720  14.016  18.107  0.00  0.00    +0.000 N 
ATOM     21  C   UNL     1      -0.904  13.750  21.644  0.00  0.00    +0.000 A 
ATOM     22  C   UNL     1      -0.551  14.399  22.862  0.00  0.00    +0.000 A 
ATOM     23  C   UNL     1      -1.406  14.445  23.966  0.00  0.00    +0.000 A 
ATOM     24  H   UNL     1       2.392  14.144  17.357  0.00  0.00    +0.000 HD
ATOM     25  H   UNL     1       0.754  13.803  17.844  0.00  0.00    +0.000 HD
ENDROOT
BRANCH  17  26
ATOM     26  C   UNL     1       4.499  14.335  21.971  0.00  0.00    +0.000 A 
ATOM     27  C   UNL     1       5.722  14.601  21.344  0.00  0.00    +0.000 A 
ATOM     28  C   UNL     1       6.890  14.664  22.104  0.00  0.00    +0.000 A 
ATOM     29  C   UNL     1       6.811  14.464  23.475  0.00  0.00    +0.000 A 
ATOM     30  C   UNL     1       5.565  14.222  24.034  0.00  0.00    +0.000 A 
ATOM     31  N   UNL     1       4.417  14.152  23.319  0.00  0.00    +0.000 NA
ENDBRANCH  17  26
BRANCH   1  33
ATOM     32  C   UNL     1      -4.352  12.687  24.993  0.00  0.00    +0.000 C 
ATOM     33  O   UNL     1      -3.521  13.848  24.923  0.00  0.00    +0.000 OA
ENDBRANCH   1  33
BRANCH  23  34
ATOM     34  O   UNL     1      -0.805  15.042  25.035  0.00  0.00    +0.000 OA
ATOM     35  C   UNL     1      -0.820  16.452  25.152  0.00  0.00    +0.000 C 
ENDBRANCH  23  34
TORSDOF 3
ENDMDL
MODEL 4
REMARK VINA RESULT:      -6.3      4.728      6.226
REMARK  Name = 
REMARK  6 active torsions:
REMARK  status: ('A' for Active; 'I' for Inactive)
REMARK    1  A    between atoms: C_1  and  O_2
REMARK    2  A    between atoms: O_2  and  C_3
REMARK    3  A    between atoms: N_11  and  C_12
REMARK    4  A    between atoms: C_19  and  C_20
REMARK    5  A    between atoms: C_31  and  O_32
REMARK    6  A    between atoms: O_32  and  C_33
REMARK                            x       y       z     vdW  Elec       q    Type
REMARK                         _______ _______ _______ _____ _____    ______ ____
ROOT
ATOM      1  C   UNL     1       3.834  16.363  18.758  0.00  0.00    +0.000 A 
ATOM      2  C   UNL     1       2.583  16.880  19.129  0.00  0.00    +0.000 A 
ATOM      3  C   UNL     1       1.446  16.093  19.228  0.00  0.00    +0.000 A 
ATOM      4  N   UNL     1       0.355  16.680  19.708  0.00  0.00    +0.000 NA
ATOM      5  C   UNL     1      -0.750  15.960  19.889  0.00  0.00    +0.000 A 
ATOM      6  N   UNL     1      -1.875  16.589  20.396  0.00  0.00    +0.000 N 
ATOM      7  C   UNL     1      -2.683  15.808  21.346  0.00  0.00    +0.000 C 
ATOM      8  C   UNL     1      -4.077  16.467  21.485  0.00  0.00    +0.000 C 
ATOM      9  N   UNL     1      -4.007  17.889  21.899  0.00  0.00    +0.000 NA
ATOM     10  C   UNL     1      -5.344  18.476  21.945  0.00  0.00    +0.000 C 
ATOM     11  C   UNL     1      -3.145  18.630  20.948  0.00  0.00    +0.000 C 
ATOM     12  C   UNL     1      -1.736  18.000  20.802  0.00  0.00    +0.000 C 
ATOM     13  N   UNL     1      -0.822  14.664  19.540  0.00  0.00    +0.000 NA
ATOM     14  C   UNL     1       0.300  14.055  19.051  0.00  0.00    +0.000 A 
ATOM     15  N   UNL     1       0.214  12.638  18.797  0.00  0.00    +0.000 N 
ATOM     16  N   UNL     1       1.295  11.808  18.763  0.00  0.00    +0.000 NA
ATOM     17  C   UNL     1       0.749  10.594  18.619  0.00  0.00    +0.000 A 
ATOM     18  N   UNL     1      -0.621  10.606  18.498  0.00  0.00    +0.000 NA
ATOM     19  C   UNL     1      -0.938  11.874  18.612  0.00  0.00    +0.000 A 
ATOM     20  N   UNL     1      -2.182  12.358  18.505  0.00  0.00    +0.000 N 
ATOM     21  C   UNL     1       1.508  14.751  18.859  0.00  0.00    +0.000 A 
ATOM     22  C   UNL     1       2.736  14.278  18.316  0.00  0.00    +0.000 A 
ATOM     23  C   UNL     1       3.899  15.053  18.297  0.00  0.00    +0.000 A 
ATOM     24  H   UNL     1      -2.968  11.731  18.364  0.00  0.00    +0.000 HD
ATOM     25  H   UNL     1      -2.389  13.351  18.643  0.00  0.00    +0.000 HD
ENDROOT
BRANCH  17  26
ATOM     26  C   UNL     1       1.488   9.313  18.609  0.00  0.00    +0.000 A 
ATOM     27  C   UNL     1       1.469   8.499  19.749  0.00  0.00    +0.000 A 
ATOM     28  C   UNL     1       2.219   7.323  19.771  0.00  0.00    +0.000 A 
ATOM     29  C   UNL     1       2.969   6.983  18.654  0.00  0.00    +0.000 A 
ATOM     30  C   UNL     1       2.929   7.825  17.554  0.00  0.00    +0.000 A 
ATOM     31  N   UNL     1       2.214   8.975  17.507  0.00  0.00    +0.000 NA
ENDBRANCH  17  26
BRANCH   1  33
ATOM     32  C   UNL     1       5.283  17.618  20.140  0.00  0.00    +0.000 C 
ATOM     33  O   UNL     1       4.963  17.133  18.834  0.00  0.00    +0.000 OA
ENDBRANCH   1  33
BRANCH  23  34
ATOM     34  O   UNL     1       4.959  14.346  17.809  0.00  0.00    +0.000 OA
ATOM     35  C   UNL     1       6.277  14.804  18.045  0.00  0.00    +0.000 C 
ENDBRANCH  23  34
TORSDOF 3
ENDMDL
MODEL 5
REMARK VINA RESULT:      -6.3      4.285      5.621
REMARK  Name = 
REMARK  6 active torsions:
REMARK  status: ('A' for Active; 'I' for Inactive)
REMARK    1  A    between atoms: C_1  and  O_2
REMARK    2  A    between atoms: O_2  and  C_3
REMARK    3  A    between atoms: N_11  and  C_12
REMARK    4  A    between atoms: C_19  and  C_20
REMARK    5  A    between atoms: C_31  and  O_32
REMARK    6  A    between atoms: O_32  and  C_33
REMARK                            x       y       z     vdW  Elec       q    Type
REMARK                         _______ _______ _______ _____ _____    ______ ____
ROOT
ATOM      1  C   UNL     1       2.810  16.633  19.193  0.00  0.00    +0.000 A 
ATOM      2  C   UNL     1       1.550  17.000  19.687  0.00  0.00    +0.000 A 
ATOM      3  C   UNL     1       0.518  16.091  19.862  0.00  0.00    +0.000 A 
ATOM      4  N   UNL     1      -0.582  16.543  20.454  0.00  0.00    +0.000 NA
ATOM      5  C   UNL     1      -1.580  15.701  20.709  0.00  0.00    +0.000 A 
ATOM      6  N   UNL     1      -2.717  16.191  21.332  0.00  0.00    +0.000 N 
ATOM      7  C   UNL     1      -3.345  15.306  22.326  0.00  0.00    +0.000 C 
ATOM      8  C   UNL     1      -4.784  15.804  22.606  0.00  0.00    +0.000 C 
ATOM      9  N   UNL     1      -4.832  17.217  23.055  0.00  0.00    +0.000 NA
ATOM     10  C   UNL     1      -6.215  17.651  23.237  0.00  0.00    +0.000 C 
ATOM     11  C   UNL     1      -4.145  18.068  22.055  0.00  0.00    +0.000 C 
ATOM     12  C   UNL     1      -2.695  17.601  21.767  0.00  0.00    +0.000 C 
ATOM     13  N   UNL     1      -1.543  14.412  20.329  0.00  0.00    +0.000 NA
ATOM     14  C   UNL     1      -0.411  13.941  19.725  0.00  0.00    +0.000 A 
ATOM     15  N   UNL     1      -0.365  12.529  19.438  0.00  0.00    +0.000 N 
ATOM     16  N   UNL     1       0.792  11.825  19.284  0.00  0.00    +0.000 NA
ATOM     17  C   UNL     1       0.371  10.561  19.151  0.00  0.00    +0.000 A 
ATOM     18  N   UNL     1      -0.998  10.424  19.152  0.00  0.00    +0.000 NA
ATOM     19  C   UNL     1      -1.439  11.646  19.331  0.00  0.00    +0.000 A 
ATOM     20  N   UNL     1      -2.733  11.992  19.348  0.00  0.00    +0.000 N 
ATOM     21  C   UNL     1       0.692  14.771  19.449  0.00  0.00    +0.000 A 
ATOM     22  C   UNL     1       1.910  14.448  18.786  0.00  0.00    +0.000 A 
ATOM     23  C   UNL     1       2.976  15.348  18.688  0.00  0.00    +0.000 A 
ATOM     24  H   UNL     1      -3.456  11.285  19.259  0.00  0.00    +0.000 HD
ATOM     25  H   UNL     1      -3.034  12.952  19.534  0.00  0.00    +0.000 HD
ENDROOT
BRANCH  17  26
ATOM     26  C   UNL     1       1.240   9.371  19.038  0.00  0.00    +0.000 A 
ATOM     27  C   UNL     1       1.903   9.116  17.831  0.00  0.00    +0.000 A 
ATOM     28  C   UNL     1       2.671   7.959  17.695  0.00  0.00    +0.000 A 
ATOM     29  C   UNL     1       2.763   7.084  18.768  0.00  0.00    +0.000 A 
ATOM     30  C   UNL     1       2.094   7.405  19.939  0.00  0.00    +0.000 A 
ATOM     31  N   UNL     1       1.339   8.519  20.096  0.00  0.00    +0.000 NA
ENDBRANCH  17  26
BRANCH   1  33
ATOM     32  C   UNL     1       4.383  17.838  20.481  0.00  0.00    +0.000 C 
ATOM     33  O   UNL     1       3.852  17.521  19.192  0.00  0.00    +0.000 OA
ENDBRANCH   1  33
BRANCH  23  34
ATOM     34  O   UNL     1       4.058  14.772  18.088  0.00  0.00    +0.000 OA
ATOM     35  C   UNL     1       5.288  14.697  18.784  0.00  0.00    +0.000 C 
ENDBRANCH  23  34
TORSDOF 3
ENDMDL
MODEL 6
REMARK VINA RESULT:      -6.2      3.984      7.250
REMARK  Name = 
REMARK  6 active torsions:
REMARK  status: ('A' for Active; 'I' for Inactive)
REMARK    1  A    between atoms: C_1  and  O_2
REMARK    2  A    between atoms: O_2  and  C_3
REMARK    3  A    between atoms: N_11  and  C_12
REMARK    4  A    between atoms: C_19  and  C_20
REMARK    5  A    between atoms: C_31  and  O_32
REMARK    6  A    between atoms: O_32  and  C_33
REMARK                            x       y       z     vdW  Elec       q    Type
REMARK                         _______ _______ _______ _____ _____    ______ ____
ROOT
ATOM      1  C   UNL     1       0.312  10.261  18.332  0.00  0.00    +0.000 A 
ATOM      2  C   UNL     1       1.172  11.312  18.687  0.00  0.00    +0.000 A 
ATOM      3  C   UNL     1       0.747  12.419  19.406  0.00  0.00    +0.000 A 
ATOM      4  N   UNL     1       1.684  13.281  19.784  0.00  0.00    +0.000 NA
ATOM      5  C   UNL     1       1.346  14.327  20.533  0.00  0.00    +0.000 A 
ATOM      6  N   UNL     1       2.340  15.211  20.921  0.00  0.00    +0.000 N 
ATOM      7  C   UNL     1       2.230  15.754  22.285  0.00  0.00    +0.000 C 
ATOM      8  C   UNL     1       3.139  17.000  22.408  0.00  0.00    +0.000 C 
ATOM      9  N   UNL     1       4.555  16.720  22.066  0.00  0.00    +0.000 NA
ATOM     10  C   UNL     1       5.351  17.945  22.132  0.00  0.00    +0.000 C 
ATOM     11  C   UNL     1       4.620  16.129  20.709  0.00  0.00    +0.000 C 
ATOM     12  C   UNL     1       3.729  14.869  20.562  0.00  0.00    +0.000 C 
ATOM     13  N   UNL     1       0.071  14.583  20.871  0.00  0.00    +0.000 NA
ATOM     14  C   UNL     1      -0.896  13.695  20.489  0.00  0.00    +0.000 A 
ATOM     15  N   UNL     1      -2.234  13.943  20.968  0.00  0.00    +0.000 N 
ATOM     16  N   UNL     1      -3.186  12.975  21.087  0.00  0.00    +0.000 NA
ATOM     17  C   UNL     1      -4.209  13.616  21.668  0.00  0.00    +0.000 A 
ATOM     18  N   UNL     1      -3.984  14.957  21.872  0.00  0.00    +0.000 NA
ATOM     19  C   UNL     1      -2.761  15.145  21.438  0.00  0.00    +0.000 A 
ATOM     20  N   UNL     1      -2.142  16.332  21.401  0.00  0.00    +0.000 N 
ATOM     21  C   UNL     1      -0.604  12.554  19.718  0.00  0.00    +0.000 A 
ATOM     22  C   UNL     1      -1.497  11.572  19.201  0.00  0.00    +0.000 A 
ATOM     23  C   UNL     1      -1.052  10.418  18.549  0.00  0.00    +0.000 A 
ATOM     24  H   UNL     1      -2.600  17.163  21.760  0.00  0.00    +0.000 HD
ATOM     25  H   UNL     1      -1.170  16.425  21.093  0.00  0.00    +0.000 HD
ENDROOT
BRANCH  17  26
ATOM     26  C   UNL     1      -5.479  12.996  22.100  0.00  0.00    +0.000 A 
ATOM     27  C   UNL     1      -6.290  12.356  21.154  0.00  0.00    +0.000 A 
ATOM     28  C   UNL     1      -7.521  11.829  21.542  0.00  0.00    +0.000 A 
ATOM     29  C   UNL     1      -7.916  11.949  22.867  0.00  0.00    +0.000 A 
ATOM     30  C   UNL     1      -7.059  12.580  23.754  0.00  0.00    +0.000 A 
ATOM     31  N   UNL     1      -5.860  13.104  23.404  0.00  0.00    +0.000 NA
ENDBRANCH  17  26
BRANCH   1  33
ATOM     32  C   UNL     1       2.211   8.919  17.907  0.00  0.00    +0.000 C 
ATOM     33  O   UNL     1       0.801   9.112  17.771  0.00  0.00    +0.000 OA
ENDBRANCH   1  33
BRANCH  23  34
ATOM     34  O   UNL     1      -2.093   9.596  18.230  0.00  0.00    +0.000 OA
ATOM     35  C   UNL     1      -2.948   9.932  17.154  0.00  0.00    +0.000 C 
ENDBRANCH  23  34
TORSDOF 3
ENDMDL
MODEL 7
REMARK VINA RESULT:      -6.1      4.060      5.296
REMARK  Name = 
REMARK  6 active torsions:
REMARK  status: ('A' for Active; 'I' for Inactive)
REMARK    1  A    between atoms: C_1  and  O_2
REMARK    2  A    between atoms: O_2  and  C_3
REMARK    3  A    between atoms: N_11  and  C_12
REMARK    4  A    between atoms: C_19  and  C_20
REMARK    5  A    between atoms: C_31  and  O_32
REMARK    6  A    between atoms: O_32  and  C_33
REMARK                            x       y       z     vdW  Elec       q    Type
REMARK                         _______ _______ _______ _____ _____    ______ ____
ROOT
ATOM      1  C   UNL     1       2.302  17.080  19.792  0.00  0.00    +0.000 A 
ATOM      2  C   UNL     1       1.029  17.432  20.264  0.00  0.00    +0.000 A 
ATOM      3  C   UNL     1      -0.018  16.527  20.346  0.00  0.00    +0.000 A 
ATOM      4  N   UNL     1      -1.134  16.957  20.925  0.00  0.00    +0.000 NA
ATOM      5  C   UNL     1      -2.150  16.114  21.092  0.00  0.00    +0.000 A 
ATOM      6  N   UNL     1      -3.303  16.580  21.704  0.00  0.00    +0.000 N 
ATOM      7  C   UNL     1      -3.976  15.644  22.618  0.00  0.00    +0.000 C 
ATOM      8  C   UNL     1      -5.419  16.141  22.878  0.00  0.00    +0.000 C 
ATOM      9  N   UNL     1      -5.467  17.525  23.411  0.00  0.00    +0.000 NA
ATOM     10  C   UNL     1      -6.852  17.965  23.571  0.00  0.00    +0.000 C 
ATOM     11  C   UNL     1      -4.736  18.427  22.491  0.00  0.00    +0.000 C 
ATOM     12  C   UNL     1      -3.282  17.959  22.226  0.00  0.00    +0.000 C 
ATOM     13  N   UNL     1      -2.113  14.850  20.635  0.00  0.00    +0.000 NA
ATOM     14  C   UNL     1      -0.965  14.403  20.043  0.00  0.00    +0.000 A 
ATOM     15  N   UNL     1      -0.925  13.010  19.671  0.00  0.00    +0.000 N 
ATOM     16  N   UNL     1       0.230  12.302  19.515  0.00  0.00    +0.000 NA
ATOM     17  C   UNL     1      -0.200  11.054  19.290  0.00  0.00    +0.000 A 
ATOM     18  N   UNL     1      -1.569  10.935  19.233  0.00  0.00    +0.000 NA
ATOM     19  C   UNL     1      -2.003  12.150  19.472  0.00  0.00    +0.000 A 
ATOM     20  N   UNL     1      -3.293  12.510  19.465  0.00  0.00    +0.000 N 
ATOM     21  C   UNL     1       0.156  15.234  19.858  0.00  0.00    +0.000 A 
ATOM     22  C   UNL     1       1.394  14.936  19.220  0.00  0.00    +0.000 A 
ATOM     23  C   UNL     1       2.472  15.826  19.215  0.00  0.00    +0.000 A 
ATOM     24  H   UNL     1      -4.020  11.820  19.307  0.00  0.00    +0.000 HD
ATOM     25  H   UNL     1      -3.590  13.461  19.700  0.00  0.00    +0.000 HD
ENDROOT
BRANCH  17  26
ATOM     26  C   UNL     1       0.660   9.862  19.134  0.00  0.00    +0.000 A 
ATOM     27  C   UNL     1       0.939   9.063  20.250  0.00  0.00    +0.000 A 
ATOM     28  C   UNL     1       1.803   7.976  20.125  0.00  0.00    +0.000 A 
ATOM     29  C   UNL     1       2.369   7.707  18.886  0.00  0.00    +0.000 A 
ATOM     30  C   UNL     1       2.038   8.528  17.820  0.00  0.00    +0.000 A 
ATOM     31  N   UNL     1       1.205   9.592  17.915  0.00  0.00    +0.000 NA
ENDBRANCH  17  26
BRANCH   1  33
ATOM     32  C   UNL     1       3.686  18.368  21.209  0.00  0.00    +0.000 C 
ATOM     33  O   UNL     1       3.353  17.952  19.883  0.00  0.00    +0.000 OA
ENDBRANCH   1  33
BRANCH  23  34
ATOM     34  O   UNL     1       3.568  15.274  18.620  0.00  0.00    +0.000 OA
ATOM     35  C   UNL     1       3.530  13.925  18.193  0.00  0.00    +0.000 C 
ENDBRANCH  23  34
TORSDOF 3
ENDMDL
MODEL 8
REMARK VINA RESULT:      -6.1      4.109      5.861
REMARK  Name = 
REMARK  6 active torsions:
REMARK  status: ('A' for Active; 'I' for Inactive)
REMARK    1  A    between atoms: C_1  and  O_2
REMARK    2  A    between atoms: O_2  and  C_3
REMARK    3  A    between atoms: N_11  and  C_12
REMARK    4  A    between atoms: C_19  and  C_20
REMARK    5  A    between atoms: C_31  and  O_32
REMARK    6  A    between atoms: O_32  and  C_33
REMARK                            x       y       z     vdW  Elec       q    Type
REMARK                         _______ _______ _______ _____ _____    ______ ____
ROOT
ATOM      1  C   UNL     1       2.750  15.881  22.436  0.00  0.00    +0.000 A 
ATOM      2  C   UNL     1       1.400  16.237  22.574  0.00  0.00    +0.000 A 
ATOM      3  C   UNL     1       0.366  15.478  22.048  0.00  0.00    +0.000 A 
ATOM      4  N   UNL     1      -0.869  15.858  22.355  0.00  0.00    +0.000 NA
ATOM      5  C   UNL     1      -1.901  15.131  21.934  0.00  0.00    +0.000 A 
ATOM      6  N   UNL     1      -3.181  15.541  22.270  0.00  0.00    +0.000 N 
ATOM      7  C   UNL     1      -4.139  14.474  22.599  0.00  0.00    +0.000 C 
ATOM      8  C   UNL     1      -5.576  15.048  22.538  0.00  0.00    +0.000 C 
ATOM      9  N   UNL     1      -5.769  16.221  23.425  0.00  0.00    +0.000 NA
ATOM     10  C   UNL     1      -7.118  16.762  23.274  0.00  0.00    +0.000 C 
ATOM     11  C   UNL     1      -4.755  17.251  23.097  0.00  0.00    +0.000 C 
ATOM     12  C   UNL     1      -3.305  16.705  23.166  0.00  0.00    +0.000 C 
ATOM     13  N   UNL     1      -1.742  14.052  21.148  0.00  0.00    +0.000 NA
ATOM     14  C   UNL     1      -0.472  13.654  20.834  0.00  0.00    +0.000 A 
ATOM     15  N   UNL     1      -0.339  12.428  20.087  0.00  0.00    +0.000 N 
ATOM     16  N   UNL     1       0.786  11.659  20.088  0.00  0.00    +0.000 NA
ATOM     17  C   UNL     1       0.429  10.585  19.372  0.00  0.00    +0.000 A 
ATOM     18  N   UNL     1      -0.846  10.653  18.861  0.00  0.00    +0.000 NA
ATOM     19  C   UNL     1      -1.309  11.794  19.312  0.00  0.00    +0.000 A 
ATOM     20  N   UNL     1      -2.516  12.294  19.016  0.00  0.00    +0.000 N 
ATOM     21  C   UNL     1       0.665  14.362  21.269  0.00  0.00    +0.000 A 
ATOM     22  C   UNL     1       2.037  14.110  20.986  0.00  0.00    +0.000 A 
ATOM     23  C   UNL     1       3.075  14.829  21.587  0.00  0.00    +0.000 A 
ATOM     24  H   UNL     1      -3.164  11.769  18.437  0.00  0.00    +0.000 HD
ATOM     25  H   UNL     1      -2.853  13.170  19.425  0.00  0.00    +0.000 HD
ENDROOT
BRANCH  17  26
ATOM     26  C   UNL     1       1.267   9.391  19.134  0.00  0.00    +0.000 A 
ATOM     27  C   UNL     1       1.860   9.205  17.880  0.00  0.00    +0.000 A 
ATOM     28  C   UNL     1       2.596   8.047  17.627  0.00  0.00    +0.000 A 
ATOM     29  C   UNL     1       2.726   7.101  18.634  0.00  0.00    +0.000 A 
ATOM     30  C   UNL     1       2.127   7.355  19.858  0.00  0.00    +0.000 A 
ATOM     31  N   UNL     1       1.404   8.469  20.128  0.00  0.00    +0.000 NA
ENDBRANCH  17  26
BRANCH   1  33
ATOM     32  C   UNL     1       4.065  17.840  22.569  0.00  0.00    +0.000 C 
ATOM     33  O   UNL     1       3.729  16.560  23.110  0.00  0.00    +0.000 OA
ENDBRANCH   1  33
BRANCH  23  34
ATOM     34  O   UNL     1       4.294  14.339  21.222  0.00  0.00    +0.000 OA
ATOM     35  C   UNL     1       5.038  14.990  20.209  0.00  0.00    +0.000 C 
ENDBRANCH  23  34
TORSDOF 3
ENDMDL
MODEL 9
REMARK VINA RESULT:      -6.0      4.654      7.968
REMARK  Name = 
REMARK  6 active torsions:
REMARK  status: ('A' for Active; 'I' for Inactive)
REMARK    1  A    between atoms: C_1  and  O_2
REMARK    2  A    between atoms: O_2  and  C_3
REMARK    3  A    between atoms: N_11  and  C_12
REMARK    4  A    between atoms: C_19  and  C_20
REMARK    5  A    between atoms: C_31  and  O_32
REMARK    6  A    between atoms: O_32  and  C_33
REMARK                            x       y       z     vdW  Elec       q    Type
REMARK                         _______ _______ _______ _____ _____    ______ ____
ROOT
ATOM      1  C   UNL     1       1.258  10.491  18.115  0.00  0.00    +0.000 A 
ATOM      2  C   UNL     1       2.214  11.514  18.200  0.00  0.00    +0.000 A 
ATOM      3  C   UNL     1       1.996  12.688  18.905  0.00  0.00    +0.000 A 
ATOM      4  N   UNL     1       3.026  13.520  19.010  0.00  0.00    +0.000 NA
ATOM      5  C   UNL     1       2.897  14.632  19.730  0.00  0.00    +0.000 A 
ATOM      6  N   UNL     1       3.985  15.484  19.832  0.00  0.00    +0.000 N 
ATOM      7  C   UNL     1       4.189  16.122  21.143  0.00  0.00    +0.000 C 
ATOM      8  C   UNL     1       5.153  17.322  20.976  0.00  0.00    +0.000 C 
ATOM      9  N   UNL     1       6.451  16.942  20.367  0.00  0.00    +0.000 NA
ATOM     10  C   UNL     1       7.290  18.123  20.170  0.00  0.00    +0.000 C 
ATOM     11  C   UNL     1       6.201  16.259  19.076  0.00  0.00    +0.000 C 
ATOM     12  C   UNL     1       5.251  15.042  19.217  0.00  0.00    +0.000 C 
ATOM     13  N   UNL     1       1.734  14.979  20.307  0.00  0.00    +0.000 NA
ATOM     14  C   UNL     1       0.673  14.122  20.206  0.00  0.00    +0.000 A 
ATOM     15  N   UNL     1      -0.520  14.475  20.935  0.00  0.00    +0.000 N 
ATOM     16  N   UNL     1      -1.463  13.571  21.325  0.00  0.00    +0.000 NA
ATOM     17  C   UNL     1      -2.312  14.304  22.056  0.00  0.00    +0.000 A 
ATOM     18  N   UNL     1      -1.996  15.642  22.106  0.00  0.00    +0.000 NA
ATOM     19  C   UNL     1      -0.888  15.732  21.411  0.00  0.00    +0.000 A 
ATOM     20  N   UNL     1      -0.244  16.878  21.154  0.00  0.00    +0.000 N 
ATOM     21  C   UNL     1       0.749  12.917  19.482  0.00  0.00    +0.000 A 
ATOM     22  C   UNL     1      -0.272  11.954  19.241  0.00  0.00    +0.000 A 
ATOM     23  C   UNL     1      -0.022  10.737  18.601  0.00  0.00    +0.000 A 
ATOM     24  H   UNL     1      -0.582  17.756  21.536  0.00  0.00    +0.000 HD
ATOM     25  H   UNL     1       0.643  16.897  20.643  0.00  0.00    +0.000 HD
ENDROOT
BRANCH  17  26
ATOM     26  C   UNL     1      -3.485  13.786  22.792  0.00  0.00    +0.000 A 
ATOM     27  C   UNL     1      -3.288  12.962  23.908  0.00  0.00    +0.000 A 
ATOM     28  C   UNL     1      -4.389  12.415  24.566  0.00  0.00    +0.000 A 
ATOM     29  C   UNL     1      -5.664  12.704  24.098  0.00  0.00    +0.000 A 
ATOM     30  C   UNL     1      -5.787  13.539  22.999  0.00  0.00    +0.000 A 
ATOM     31  N   UNL     1      -4.735  14.081  22.339  0.00  0.00    +0.000 NA
ENDBRANCH  17  26
BRANCH   1  33
ATOM     32  C   UNL     1       2.161   8.332  18.445  0.00  0.00    +0.000 C 
ATOM     33  O   UNL     1       1.570   9.281  17.555  0.00  0.00    +0.000 OA
ENDBRANCH   1  33
BRANCH  23  34
ATOM     34  O   UNL     1      -1.138   9.953  18.572  0.00  0.00    +0.000 OA
ATOM     35  C   UNL     1      -2.186  10.258  17.670  0.00  0.00    +0.000 C 
ENDBRANCH  23  34
TORSDOF 3
ENDMDL
