MODEL 1
REMARK VINA RESULT:      -8.2      0.000      0.000
REMARK  Name = 
REMARK  7 active torsions:
REMARK  status: ('A' for Active; 'I' for Inactive)
REMARK    1  A    between atoms: N_1  and  C_2
REMARK    2  A    between atoms: C_2  and  C_3
REMARK    3  A    between atoms: C_2  and  C_19
REMARK    4  A    between atoms: C_3  and  N_4
REMARK    5  A    between atoms: C_8  and  C_9
REMARK    6  A    between atoms: C_19  and  C_20
REMARK    7  A    between atoms: C_23  and  C_24
REMARK                            x       y       z     vdW  Elec       q    Type
REMARK                         _______ _______ _______ _____ _____    ______ ____
ROOT
ATOM      1  N   UNL     1       0.733   9.208  21.106  0.00  0.00    +0.000 N 
ATOM      2  C   UNL     1       1.323   8.688  20.014  0.00  0.00    +0.000 A 
ATOM      3  N   UNL     1       1.436   9.297  18.859  0.00  0.00    +0.000 NA
ATOM      4  C   UNL     1       2.145   8.508  17.979  0.00  0.00    +0.000 A 
ATOM      5  C   UNL     1       2.585   7.292  18.466  0.00  0.00    +0.000 A 
ATOM      6  S   UNL     1       2.043   7.131  20.089  0.00  0.00    +0.000 S 
ATOM      7  H   UNL     1       0.389   8.576  21.816  0.00  0.00    +0.000 HD
ENDROOT
BRANCH   5   8
ATOM      8  C   UNL     1       3.409   6.266  17.815  0.00  0.00    +0.000 A 
ATOM      9  C   UNL     1       2.957   4.933  17.791  0.00  0.00    +0.000 A 
ATOM     10  C   UNL     1       3.700   3.909  17.186  0.00  0.00    +0.000 A 
ATOM     11  C   UNL     1       4.913   4.270  16.599  0.00  0.00    +0.000 A 
ATOM     12  N   UNL     1       5.860   3.537  15.931  0.00  0.00    +0.000 N 
ATOM     13  N   UNL     1       6.914   4.257  15.508  0.00  0.00    +0.000 NA
ATOM     14  C   UNL     1       6.628   5.495  15.916  0.00  0.00    +0.000 A 
ATOM     15  C   UNL     1       5.397   5.572  16.601  0.00  0.00    +0.000 A 
ATOM     16  C   UNL     1       4.642   6.585  17.217  0.00  0.00    +0.000 A 
ATOM     17  H   UNL     1       5.844   2.543  15.734  0.00  0.00    +0.000 HD
ENDBRANCH   5   8
BRANCH   1  18
ATOM     18  C   UNL     1       0.091  10.511  21.026  0.00  0.00    +0.000 C 
BRANCH  18  19
ATOM     19  C   UNL     1      -0.831  10.734  22.250  0.00  0.00    +0.000 C 
BRANCH  19  20
ATOM     20  N   UNL     1      -0.193  10.213  23.484  0.00  0.00    +0.000 NA
ATOM     21  H   UNL     1      -0.090   9.200  23.407  0.00  0.00    +0.000 HD
ATOM     22  H   UNL     1      -0.815  10.367  24.275  0.00  0.00    +0.000 HD
ENDBRANCH  19  20
BRANCH  19  23
ATOM     23  C   UNL     1      -1.209  12.226  22.432  0.00  0.00    +0.000 C 
BRANCH  23  24
ATOM     24  C   UNL     1      -2.679  12.493  22.677  0.00  0.00    +0.000 A 
ATOM     25  C   UNL     1      -3.557  12.724  21.613  0.00  0.00    +0.000 A 
ATOM     26  C   UNL     1      -4.920  12.931  21.848  0.00  0.00    +0.000 A 
ATOM     27  C   UNL     1      -5.435  12.902  23.152  0.00  0.00    +0.000 A 
ATOM     28  C   UNL     1      -4.552  12.686  24.219  0.00  0.00    +0.000 A 
ATOM     29  C   UNL     1      -3.190  12.483  23.984  0.00  0.00    +0.000 A 
BRANCH  27  30
ATOM     30  C   UNL     1      -6.910  13.078  23.406  0.00  0.00    +0.000 C 
ATOM     31  F   UNL     1      -7.605  13.505  22.313  0.00  0.00    +0.000 F 
ATOM     32  F   UNL     1      -7.513  11.919  23.795  0.00  0.00    +0.000 F 
ATOM     33  F   UNL     1      -7.174  13.983  24.390  0.00  0.00    +0.000 F 
ENDBRANCH  27  30
ENDBRANCH  23  24
ENDBRANCH  19  23
ENDBRANCH  18  19
ENDBRANCH   1  18
TORSDOF 7
ENDMDL
MODEL 2
REMARK VINA RESULT:      -8.1      0.384      1.219
REMARK  Name = 
REMARK  7 active torsions:
REMARK  status: ('A' for Active; 'I' for Inactive)
REMARK    1  A    between atoms: N_1  and  C_2
REMARK    2  A    between atoms: C_2  and  C_3
REMARK    3  A    between atoms: C_2  and  C_19
REMARK    4  A    between atoms: C_3  and  N_4
REMARK    5  A    between atoms: C_8  and  C_9
REMARK    6  A    between atoms: C_19  and  C_20
REMARK    7  A    between atoms: C_23  and  C_24
REMARK                            x       y       z     vdW  Elec       q    Type
REMARK                         _______ _______ _______ _____ _____    ______ ____
ROOT
ATOM      1  N   UNL     1       0.783   9.113  21.112  0.00  0.00    +0.000 N 
ATOM      2  C   UNL     1       1.371   8.601  20.016  0.00  0.00    +0.000 A 
ATOM      3  N   UNL     1       1.491   9.221  18.868  0.00  0.00    +0.000 NA
ATOM      4  C   UNL     1       2.196   8.436  17.981  0.00  0.00    +0.000 A 
ATOM      5  C   UNL     1       2.625   7.211  18.456  0.00  0.00    +0.000 A 
ATOM      6  S   UNL     1       2.077   7.037  20.075  0.00  0.00    +0.000 S 
ATOM      7  H   UNL     1       0.431   8.477  21.815  0.00  0.00    +0.000 HD
ENDROOT
BRANCH   5   8
ATOM      8  C   UNL     1       3.441   6.186  17.795  0.00  0.00    +0.000 A 
ATOM      9  C   UNL     1       3.071   4.833  17.908  0.00  0.00    +0.000 A 
ATOM     10  C   UNL     1       3.812   3.807  17.301  0.00  0.00    +0.000 A 
ATOM     11  C   UNL     1       4.938   4.188  16.571  0.00  0.00    +0.000 A 
ATOM     12  N   UNL     1       5.858   3.460  15.861  0.00  0.00    +0.000 N 
ATOM     13  N   UNL     1       6.820   4.203  15.285  0.00  0.00    +0.000 NA
ATOM     14  C   UNL     1       6.500   5.450  15.636  0.00  0.00    +0.000 A 
ATOM     15  C   UNL     1       5.340   5.511  16.436  0.00  0.00    +0.000 A 
ATOM     16  C   UNL     1       4.589   6.525  17.055  0.00  0.00    +0.000 A 
ATOM     17  H   UNL     1       5.883   2.455  15.735  0.00  0.00    +0.000 HD
ENDBRANCH   5   8
BRANCH   1  18
ATOM     18  C   UNL     1       0.151  10.422  21.045  0.00  0.00    +0.000 C 
BRANCH  18  19
ATOM     19  C   UNL     1      -0.755  10.649  22.281  0.00  0.00    +0.000 C 
BRANCH  19  20
ATOM     20  N   UNL     1      -0.096  10.144  23.510  0.00  0.00    +0.000 NA
ATOM     21  H   UNL     1      -0.419   9.195  23.699  0.00  0.00    +0.000 HD
ATOM     22  H   UNL     1      -0.396  10.702  24.306  0.00  0.00    +0.000 HD
ENDBRANCH  19  20
BRANCH  19  23
ATOM     23  C   UNL     1      -1.144  12.138  22.454  0.00  0.00    +0.000 C 
BRANCH  23  24
ATOM     24  C   UNL     1      -2.621  12.398  22.664  0.00  0.00    +0.000 A 
ATOM     25  C   UNL     1      -3.184  12.365  23.944  0.00  0.00    +0.000 A 
ATOM     26  C   UNL     1      -4.542  12.645  24.131  0.00  0.00    +0.000 A 
ATOM     27  C   UNL     1      -5.362  12.971  23.042  0.00  0.00    +0.000 A 
ATOM     28  C   UNL     1      -4.801  12.989  21.758  0.00  0.00    +0.000 A 
ATOM     29  C   UNL     1      -3.445  12.706  21.571  0.00  0.00    +0.000 A 
BRANCH  27  30
ATOM     30  C   UNL     1      -6.816  13.319  23.245  0.00  0.00    +0.000 C 
ATOM     31  F   UNL     1      -7.259  13.094  24.514  0.00  0.00    +0.000 F 
ATOM     32  F   UNL     1      -7.076  14.632  22.991  0.00  0.00    +0.000 F 
ATOM     33  F   UNL     1      -7.648  12.611  22.431  0.00  0.00    +0.000 F 
ENDBRANCH  27  30
ENDBRANCH  23  24
ENDBRANCH  19  23
ENDBRANCH  18  19
ENDBRANCH   1  18
TORSDOF 7
ENDMDL
MODEL 3
REMARK VINA RESULT:      -7.9      5.000     10.164
REMARK  Name = 
REMARK  7 active torsions:
REMARK  status: ('A' for Active; 'I' for Inactive)
REMARK    1  A    between atoms: N_1  and  C_2
REMARK    2  A    between atoms: C_2  and  C_3
REMARK    3  A    between atoms: C_2  and  C_19
REMARK    4  A    between atoms: C_3  and  N_4
REMARK    5  A    between atoms: C_8  and  C_9
REMARK    6  A    between atoms: C_19  and  C_20
REMARK    7  A    between atoms: C_23  and  C_24
REMARK                            x       y       z     vdW  Elec       q    Type
REMARK                         _______ _______ _______ _____ _____    ______ ____
ROOT
ATOM      1  N   UNL     1       5.018   7.017  17.245  0.00  0.00    +0.000 N 
ATOM      2  C   UNL     1       3.903   7.338  17.927  0.00  0.00    +0.000 A 
ATOM      3  N   UNL     1       3.473   6.721  19.000  0.00  0.00    +0.000 NA
ATOM      4  C   UNL     1       2.340   7.342  19.478  0.00  0.00    +0.000 A 
ATOM      5  C   UNL     1       1.904   8.447  18.771  0.00  0.00    +0.000 A 
ATOM      6  S   UNL     1       2.951   8.678  17.428  0.00  0.00    +0.000 S 
ATOM      7  H   UNL     1       5.090   7.297  16.276  0.00  0.00    +0.000 HD
ENDROOT
BRANCH   5   8
ATOM      8  C   UNL     1       0.785   9.355  19.052  0.00  0.00    +0.000 A 
ATOM      9  C   UNL     1       0.630   9.877  20.350  0.00  0.00    +0.000 A 
ATOM     10  C   UNL     1      -0.420  10.747  20.680  0.00  0.00    +0.000 A 
ATOM     11  C   UNL     1      -1.309  11.080  19.658  0.00  0.00    +0.000 A 
ATOM     12  N   UNL     1      -2.414  11.892  19.635  0.00  0.00    +0.000 N 
ATOM     13  N   UNL     1      -3.021  11.959  18.437  0.00  0.00    +0.000 NA
ATOM     14  C   UNL     1      -2.275  11.165  17.666  0.00  0.00    +0.000 A 
ATOM     15  C   UNL     1      -1.194  10.587  18.364  0.00  0.00    +0.000 A 
ATOM     16  C   UNL     1      -0.139   9.712  18.052  0.00  0.00    +0.000 A 
ATOM     17  H   UNL     1      -2.802  12.425  20.403  0.00  0.00    +0.000 HD
ENDBRANCH   5   8
BRANCH   1  18
ATOM     18  C   UNL     1       5.799   5.858  17.648  0.00  0.00    +0.000 C 
BRANCH  18  19
ATOM     19  C   UNL     1       6.183   5.009  16.411  0.00  0.00    +0.000 C 
BRANCH  19  20
ATOM     20  N   UNL     1       7.630   4.684  16.432  0.00  0.00    +0.000 NA
ATOM     21  H   UNL     1       8.072   5.058  15.591  0.00  0.00    +0.000 HD
ATOM     22  H   UNL     1       7.748   3.674  16.379  0.00  0.00    +0.000 HD
ENDBRANCH  19  20
BRANCH  19  23
ATOM     23  C   UNL     1       5.343   3.711  16.308  0.00  0.00    +0.000 C 
BRANCH  23  24
ATOM     24  C   UNL     1       4.212   3.596  17.308  0.00  0.00    +0.000 A 
ATOM     25  C   UNL     1       2.888   3.836  16.929  0.00  0.00    +0.000 A 
ATOM     26  C   UNL     1       1.846   3.688  17.851  0.00  0.00    +0.000 A 
ATOM     27  C   UNL     1       2.107   3.290  19.169  0.00  0.00    +0.000 A 
ATOM     28  C   UNL     1       3.436   3.064  19.553  0.00  0.00    +0.000 A 
ATOM     29  C   UNL     1       4.477   3.215  18.632  0.00  0.00    +0.000 A 
BRANCH  27  30
ATOM     30  C   UNL     1       0.984   3.085  20.153  0.00  0.00    +0.000 C 
ATOM     31  F   UNL     1       1.331   2.319  21.226  0.00  0.00    +0.000 F 
ATOM     32  F   UNL     1       0.527   4.259  20.672  0.00  0.00    +0.000 F 
ATOM     33  F   UNL     1      -0.101   2.475  19.599  0.00  0.00    +0.000 F 
ENDBRANCH  27  30
ENDBRANCH  23  24
ENDBRANCH  19  23
ENDBRANCH  18  19
ENDBRANCH   1  18
TORSDOF 7
ENDMDL
MODEL 4
REMARK VINA RESULT:      -7.9      4.864     10.378
REMARK  Name = 
REMARK  7 active torsions:
REMARK  status: ('A' for Active; 'I' for Inactive)
REMARK    1  A    between atoms: N_1  and  C_2
REMARK    2  A    between atoms: C_2  and  C_3
REMARK    3  A    between atoms: C_2  and  C_19
REMARK    4  A    between atoms: C_3  and  N_4
REMARK    5  A    between atoms: C_8  and  C_9
REMARK    6  A    between atoms: C_19  and  C_20
REMARK    7  A    between atoms: C_23  and  C_24
REMARK                            x       y       z     vdW  Elec       q    Type
REMARK                         _______ _______ _______ _____ _____    ______ ____
ROOT
ATOM      1  N   UNL     1       4.117   7.492  17.049  0.00  0.00    +0.000 N 
ATOM      2  C   UNL     1       3.211   7.786  17.999  0.00  0.00    +0.000 A 
ATOM      3  N   UNL     1       3.071   7.141  19.131  0.00  0.00    +0.000 NA
ATOM      4  C   UNL     1       2.095   7.739  19.897  0.00  0.00    +0.000 A 
ATOM      5  C   UNL     1       1.489   8.856  19.352  0.00  0.00    +0.000 A 
ATOM      6  S   UNL     1       2.158   9.128  17.793  0.00  0.00    +0.000 S 
ATOM      7  H   UNL     1       3.939   7.795  16.101  0.00  0.00    +0.000 HD
ENDROOT
BRANCH   5   8
ATOM      8  C   UNL     1       0.475   9.746  19.931  0.00  0.00    +0.000 A 
ATOM      9  C   UNL     1      -0.290  10.564  19.079  0.00  0.00    +0.000 A 
ATOM     10  C   UNL     1      -1.272  11.437  19.572  0.00  0.00    +0.000 A 
ATOM     11  C   UNL     1      -1.463  11.456  20.953  0.00  0.00    +0.000 A 
ATOM     12  N   UNL     1      -2.325  12.168  21.747  0.00  0.00    +0.000 N 
ATOM     13  N   UNL     1      -2.204  11.907  23.061  0.00  0.00    +0.000 NA
ATOM     14  C   UNL     1      -1.233  10.992  23.107  0.00  0.00    +0.000 A 
ATOM     15  C   UNL     1      -0.730  10.667  21.830  0.00  0.00    +0.000 A 
ATOM     16  C   UNL     1       0.254   9.803  21.319  0.00  0.00    +0.000 A 
ATOM     17  H   UNL     1      -3.016  12.847  21.452  0.00  0.00    +0.000 HD
ENDBRANCH   5   8
BRANCH   1  18
ATOM     18  C   UNL     1       4.978   6.331  17.211  0.00  0.00    +0.000 C 
BRANCH  18  19
ATOM     19  C   UNL     1       4.986   5.480  15.917  0.00  0.00    +0.000 C 
BRANCH  19  20
ATOM     20  N   UNL     1       6.337   5.473  15.306  0.00  0.00    +0.000 NA
ATOM     21  H   UNL     1       6.680   4.513  15.257  0.00  0.00    +0.000 HD
ATOM     22  H   UNL     1       6.985   5.967  15.916  0.00  0.00    +0.000 HD
ENDBRANCH  19  20
BRANCH  19  23
ATOM     23  C   UNL     1       4.505   4.029  16.171  0.00  0.00    +0.000 C 
BRANCH  23  24
ATOM     24  C   UNL     1       3.831   3.797  17.507  0.00  0.00    +0.000 A 
ATOM     25  C   UNL     1       2.448   3.943  17.651  0.00  0.00    +0.000 A 
ATOM     26  C   UNL     1       1.831   3.688  18.881  0.00  0.00    +0.000 A 
ATOM     27  C   UNL     1       2.584   3.276  19.988  0.00  0.00    +0.000 A 
ATOM     28  C   UNL     1       3.973   3.146  19.847  0.00  0.00    +0.000 A 
ATOM     29  C   UNL     1       4.589   3.403  18.620  0.00  0.00    +0.000 A 
BRANCH  27  30
ATOM     30  C   UNL     1       1.917   2.956  21.302  0.00  0.00    +0.000 C 
ATOM     31  F   UNL     1       2.214   3.843  22.295  0.00  0.00    +0.000 F 
ATOM     32  F   UNL     1       0.558   2.952  21.208  0.00  0.00    +0.000 F 
ATOM     33  F   UNL     1       2.261   1.730  21.786  0.00  0.00    +0.000 F 
ENDBRANCH  27  30
ENDBRANCH  23  24
ENDBRANCH  19  23
ENDBRANCH  18  19
ENDBRANCH   1  18
TORSDOF 7
ENDMDL
MODEL 5
REMARK VINA RESULT:      -7.9      2.340      3.335
REMARK  Name = 
REMARK  7 active torsions:
REMARK  status: ('A' for Active; 'I' for Inactive)
REMARK    1  A    between atoms: N_1  and  C_2
REMARK    2  A    between atoms: C_2  and  C_3
REMARK    3  A    between atoms: C_2  and  C_19
REMARK    4  A    between atoms: C_3  and  N_4
REMARK    5  A    between atoms: C_8  and  C_9
REMARK    6  A    between atoms: C_19  and  C_20
REMARK    7  A    between atoms: C_23  and  C_24
REMARK                            x       y       z     vdW  Elec       q    Type
REMARK                         _______ _______ _______ _____ _____    ______ ____
ROOT
ATOM      1  N   UNL     1       1.099  11.229  18.269  0.00  0.00    +0.000 N 
ATOM      2  C   UNL     1       1.346  10.067  18.901  0.00  0.00    +0.000 A 
ATOM      3  N   UNL     1       1.166   9.855  20.182  0.00  0.00    +0.000 NA
ATOM      4  C   UNL     1       1.458   8.544  20.487  0.00  0.00    +0.000 A 
ATOM      5  C   UNL     1       1.856   7.744  19.432  0.00  0.00    +0.000 A 
ATOM      6  S   UNL     1       1.899   8.707  18.009  0.00  0.00    +0.000 S 
ATOM      7  H   UNL     1       1.573  11.414  17.395  0.00  0.00    +0.000 HD
ENDROOT
BRANCH   5   8
ATOM      8  C   UNL     1       2.171   6.311  19.412  0.00  0.00    +0.000 A 
ATOM      9  C   UNL     1       1.946   5.539  20.567  0.00  0.00    +0.000 A 
ATOM     10  C   UNL     1       2.230   4.166  20.610  0.00  0.00    +0.000 A 
ATOM     11  C   UNL     1       2.743   3.590  19.448  0.00  0.00    +0.000 A 
ATOM     12  N   UNL     1       3.112   2.304  19.150  0.00  0.00    +0.000 N 
ATOM     13  N   UNL     1       3.572   2.140  17.897  0.00  0.00    +0.000 NA
ATOM     14  C   UNL     1       3.489   3.366  17.375  0.00  0.00    +0.000 A 
ATOM     15  C   UNL     1       2.981   4.314  18.287  0.00  0.00    +0.000 A 
ATOM     16  C   UNL     1       2.697   5.691  18.263  0.00  0.00    +0.000 A 
ATOM     17  H   UNL     1       3.074   1.496  19.760  0.00  0.00    +0.000 HD
ENDBRANCH   5   8
BRANCH   1  18
ATOM     18  C   UNL     1       0.669  12.388  19.035  0.00  0.00    +0.000 C 
BRANCH  18  19
ATOM     19  C   UNL     1      -0.802  12.740  18.702  0.00  0.00    +0.000 C 
BRANCH  19  20
ATOM     20  N   UNL     1      -0.987  12.874  17.236  0.00  0.00    +0.000 NA
ATOM     21  H   UNL     1      -1.980  12.796  17.014  0.00  0.00    +0.000 HD
ATOM     22  H   UNL     1      -0.538  12.090  16.768  0.00  0.00    +0.000 HD
ENDBRANCH  19  20
BRANCH  19  23
ATOM     23  C   UNL     1      -1.796  11.697  19.274  0.00  0.00    +0.000 C 
BRANCH  23  24
ATOM     24  C   UNL     1      -2.409  12.058  20.611  0.00  0.00    +0.000 A 
ATOM     25  C   UNL     1      -1.686  11.911  21.799  0.00  0.00    +0.000 A 
ATOM     26  C   UNL     1      -2.249  12.284  23.025  0.00  0.00    +0.000 A 
ATOM     27  C   UNL     1      -3.543  12.819  23.085  0.00  0.00    +0.000 A 
ATOM     28  C   UNL     1      -4.273  12.952  21.896  0.00  0.00    +0.000 A 
ATOM     29  C   UNL     1      -3.712  12.576  20.672  0.00  0.00    +0.000 A 
BRANCH  27  30
ATOM     30  C   UNL     1      -4.136  13.265  24.398  0.00  0.00    +0.000 C 
ATOM     31  F   UNL     1      -4.523  12.234  25.201  0.00  0.00    +0.000 F 
ATOM     32  F   UNL     1      -3.260  14.000  25.140  0.00  0.00    +0.000 F 
ATOM     33  F   UNL     1      -5.240  14.048  24.242  0.00  0.00    +0.000 F 
ENDBRANCH  27  30
ENDBRANCH  23  24
ENDBRANCH  19  23
ENDBRANCH  18  19
ENDBRANCH   1  18
TORSDOF 7
ENDMDL
MODEL 6
REMARK VINA RESULT:      -7.9      7.916     11.239
REMARK  Name = 
REMARK  7 active torsions:
REMARK  status: ('A' for Active; 'I' for Inactive)
REMARK    1  A    between atoms: N_1  and  C_2
REMARK    2  A    between atoms: C_2  and  C_3
REMARK    3  A    between atoms: C_2  and  C_19
REMARK    4  A    between atoms: C_3  and  N_4
REMARK    5  A    between atoms: C_8  and  C_9
REMARK    6  A    between atoms: C_19  and  C_20
REMARK    7  A    between atoms: C_23  and  C_24
REMARK                            x       y       z     vdW  Elec       q    Type
REMARK                         _______ _______ _______ _____ _____    ______ ____
ROOT
ATOM      1  N   UNL     1       7.700   8.581  17.530  0.00  0.00    +0.000 N 
ATOM      2  C   UNL     1       8.336   9.601  18.135  0.00  0.00    +0.000 A 
ATOM      3  N   UNL     1       9.132   9.485  19.169  0.00  0.00    +0.000 NA
ATOM      4  C   UNL     1       9.661  10.713  19.496  0.00  0.00    +0.000 A 
ATOM      5  C   UNL     1       9.277  11.777  18.701  0.00  0.00    +0.000 A 
ATOM      6  S   UNL     1       8.169  11.197  17.522  0.00  0.00    +0.000 S 
ATOM      7  H   UNL     1       6.870   8.780  16.990  0.00  0.00    +0.000 HD
ENDROOT
BRANCH   5   8
ATOM      8  C   UNL     1       9.705  13.180  18.744  0.00  0.00    +0.000 A 
ATOM      9  C   UNL     1       9.366  13.971  19.857  0.00  0.00    +0.000 A 
ATOM     10  C   UNL     1       9.745  15.318  19.954  0.00  0.00    +0.000 A 
ATOM     11  C   UNL     1      10.483  15.844  18.894  0.00  0.00    +0.000 A 
ATOM     12  N   UNL     1      11.009  17.092  18.676  0.00  0.00    +0.000 N 
ATOM     13  N   UNL     1      11.669  17.214  17.510  0.00  0.00    +0.000 NA
ATOM     14  C   UNL     1      11.564  15.999  16.967  0.00  0.00    +0.000 A 
ATOM     15  C   UNL     1      10.838  15.100  17.776  0.00  0.00    +0.000 A 
ATOM     16  C   UNL     1      10.445  13.753  17.693  0.00  0.00    +0.000 A 
ATOM     17  H   UNL     1      10.951  17.900  19.284  0.00  0.00    +0.000 HD
ENDBRANCH   5   8
BRANCH   1  18
ATOM     18  C   UNL     1       7.814   7.237  18.077  0.00  0.00    +0.000 C 
BRANCH  18  19
ATOM     19  C   UNL     1       6.533   6.421  17.773  0.00  0.00    +0.000 C 
BRANCH  19  20
ATOM     20  N   UNL     1       6.408   6.170  16.317  0.00  0.00    +0.000 NA
ATOM     21  H   UNL     1       5.474   6.440  16.007  0.00  0.00    +0.000 HD
ATOM     22  H   UNL     1       6.479   5.170  16.140  0.00  0.00    +0.000 HD
ENDBRANCH  19  20
BRANCH  19  23
ATOM     23  C   UNL     1       6.495   5.082  18.553  0.00  0.00    +0.000 C 
BRANCH  23  24
ATOM     24  C   UNL     1       5.133   4.683  19.082  0.00  0.00    +0.000 A 
ATOM     25  C   UNL     1       4.165   5.647  19.381  0.00  0.00    +0.000 A 
ATOM     26  C   UNL     1       2.897   5.266  19.832  0.00  0.00    +0.000 A 
ATOM     27  C   UNL     1       2.569   3.911  19.985  0.00  0.00    +0.000 A 
ATOM     28  C   UNL     1       3.545   2.946  19.700  0.00  0.00    +0.000 A 
ATOM     29  C   UNL     1       4.812   3.328  19.253  0.00  0.00    +0.000 A 
BRANCH  27  30
ATOM     30  C   UNL     1       1.189   3.494  20.427  0.00  0.00    +0.000 C 
ATOM     31  F   UNL     1       1.162   2.917  21.661  0.00  0.00    +0.000 F 
ATOM     32  F   UNL     1       0.325   4.546  20.494  0.00  0.00    +0.000 F 
ATOM     33  F   UNL     1       0.614   2.592  19.583  0.00  0.00    +0.000 F 
ENDBRANCH  27  30
ENDBRANCH  23  24
ENDBRANCH  19  23
ENDBRANCH  18  19
ENDBRANCH   1  18
TORSDOF 7
ENDMDL
MODEL 7
REMARK VINA RESULT:      -7.9      2.243      2.754
REMARK  Name = 
REMARK  7 active torsions:
REMARK  status: ('A' for Active; 'I' for Inactive)
REMARK    1  A    between atoms: N_1  and  C_2
REMARK    2  A    between atoms: C_2  and  C_3
REMARK    3  A    between atoms: C_2  and  C_19
REMARK    4  A    between atoms: C_3  and  N_4
REMARK    5  A    between atoms: C_8  and  C_9
REMARK    6  A    between atoms: C_19  and  C_20
REMARK    7  A    between atoms: C_23  and  C_24
REMARK                            x       y       z     vdW  Elec       q    Type
REMARK                         _______ _______ _______ _____ _____    ______ ____
ROOT
ATOM      1  N   UNL     1       0.396  10.036  19.496  0.00  0.00    +0.000 N 
ATOM      2  C   UNL     1       1.199   8.957  19.460  0.00  0.00    +0.000 A 
ATOM      3  N   UNL     1       1.344   8.094  20.435  0.00  0.00    +0.000 NA
ATOM      4  C   UNL     1       2.192   7.081  20.045  0.00  0.00    +0.000 A 
ATOM      5  C   UNL     1       2.693   7.163  18.760  0.00  0.00    +0.000 A 
ATOM      6  S   UNL     1       2.094   8.603  18.037  0.00  0.00    +0.000 S 
ATOM      7  H   UNL     1       0.596  10.808  18.875  0.00  0.00    +0.000 HD
ENDROOT
BRANCH   5   8
ATOM      8  C   UNL     1       3.555   6.226  18.030  0.00  0.00    +0.000 A 
ATOM      9  C   UNL     1       3.097   4.917  17.784  0.00  0.00    +0.000 A 
ATOM     10  C   UNL     1       3.875   3.976  17.095  0.00  0.00    +0.000 A 
ATOM     11  C   UNL     1       5.130   4.395  16.653  0.00  0.00    +0.000 A 
ATOM     12  N   UNL     1       6.119   3.748  15.957  0.00  0.00    +0.000 N 
ATOM     13  N   UNL     1       7.206   4.503  15.717  0.00  0.00    +0.000 NA
ATOM     14  C   UNL     1       6.898   5.676  16.276  0.00  0.00    +0.000 A 
ATOM     15  C   UNL     1       5.621   5.676  16.875  0.00  0.00    +0.000 A 
ATOM     16  C   UNL     1       4.831   6.605  17.573  0.00  0.00    +0.000 A 
ATOM     17  H   UNL     1       6.111   2.793  15.620  0.00  0.00    +0.000 HD
ENDBRANCH   5   8
BRANCH   1  18
ATOM     18  C   UNL     1      -0.329  10.353  20.717  0.00  0.00    +0.000 C 
BRANCH  18  19
ATOM     19  C   UNL     1      -0.291  11.877  20.987  0.00  0.00    +0.000 C 
BRANCH  19  20
ATOM     20  N   UNL     1       1.101  12.330  21.224  0.00  0.00    +0.000 NA
ATOM     21  H   UNL     1       1.282  13.168  20.669  0.00  0.00    +0.000 HD
ATOM     22  H   UNL     1       1.748  11.625  20.876  0.00  0.00    +0.000 HD
ENDBRANCH  19  20
BRANCH  19  23
ATOM     23  C   UNL     1      -0.930  12.691  19.833  0.00  0.00    +0.000 C 
BRANCH  23  24
ATOM     24  C   UNL     1      -2.404  12.432  19.602  0.00  0.00    +0.000 A 
ATOM     25  C   UNL     1      -2.839  11.656  18.523  0.00  0.00    +0.000 A 
ATOM     26  C   UNL     1      -4.201  11.391  18.340  0.00  0.00    +0.000 A 
ATOM     27  C   UNL     1      -5.154  11.890  19.239  0.00  0.00    +0.000 A 
ATOM     28  C   UNL     1      -4.719  12.681  20.311  0.00  0.00    +0.000 A 
ATOM     29  C   UNL     1      -3.359  12.948  20.491  0.00  0.00    +0.000 A 
BRANCH  27  30
ATOM     30  C   UNL     1      -6.617  11.568  19.073  0.00  0.00    +0.000 C 
ATOM     31  F   UNL     1      -7.402  12.670  18.899  0.00  0.00    +0.000 F 
ATOM     32  F   UNL     1      -6.855  10.774  17.991  0.00  0.00    +0.000 F 
ATOM     33  F   UNL     1      -7.139  10.907  20.143  0.00  0.00    +0.000 F 
ENDBRANCH  27  30
ENDBRANCH  23  24
ENDBRANCH  19  23
ENDBRANCH  18  19
ENDBRANCH   1  18
TORSDOF 7
ENDMDL
MODEL 8
REMARK VINA RESULT:      -7.9      4.819     10.221
REMARK  Name = 
REMARK  7 active torsions:
REMARK  status: ('A' for Active; 'I' for Inactive)
REMARK    1  A    between atoms: N_1  and  C_2
REMARK    2  A    between atoms: C_2  and  C_3
REMARK    3  A    between atoms: C_2  and  C_19
REMARK    4  A    between atoms: C_3  and  N_4
REMARK    5  A    between atoms: C_8  and  C_9
REMARK    6  A    between atoms: C_19  and  C_20
REMARK    7  A    between atoms: C_23  and  C_24
REMARK                            x       y       z     vdW  Elec       q    Type
REMARK                         _______ _______ _______ _____ _____    ______ ____
ROOT
ATOM      1  N   UNL     1       4.559   7.130  16.829  0.00  0.00    +0.000 N 
ATOM      2  C   UNL     1       3.686   7.341  17.831  0.00  0.00    +0.000 A 
ATOM      3  N   UNL     1       3.607   6.621  18.924  0.00  0.00    +0.000 NA
ATOM      4  C   UNL     1       2.649   7.145  19.764  0.00  0.00    +0.000 A 
ATOM      5  C   UNL     1       1.997   8.278  19.316  0.00  0.00    +0.000 A 
ATOM      6  S   UNL     1       2.596   8.666  17.753  0.00  0.00    +0.000 S 
ATOM      7  H   UNL     1       4.335   7.487  15.910  0.00  0.00    +0.000 HD
ENDROOT
BRANCH   5   8
ATOM      8  C   UNL     1       0.987   9.104  19.990  0.00  0.00    +0.000 A 
ATOM      9  C   UNL     1       0.686   8.857  21.342  0.00  0.00    +0.000 A 
ATOM     10  C   UNL     1      -0.271   9.610  22.039  0.00  0.00    +0.000 A 
ATOM     11  C   UNL     1      -0.912  10.627  21.332  0.00  0.00    +0.000 A 
ATOM     12  N   UNL     1      -1.868  11.537  21.703  0.00  0.00    +0.000 N 
ATOM     13  N   UNL     1      -2.243  12.373  20.718  0.00  0.00    +0.000 NA
ATOM     14  C   UNL     1      -1.495  11.985  19.682  0.00  0.00    +0.000 A 
ATOM     15  C   UNL     1      -0.645  10.905  19.998  0.00  0.00    +0.000 A 
ATOM     16  C   UNL     1       0.311  10.136  19.312  0.00  0.00    +0.000 A 
ATOM     17  H   UNL     1      -2.304  11.636  22.612  0.00  0.00    +0.000 HD
ENDBRANCH   5   8
BRANCH   1  18
ATOM     18  C   UNL     1       5.452   5.983  16.882  0.00  0.00    +0.000 C 
BRANCH  18  19
ATOM     19  C   UNL     1       5.292   5.114  15.610  0.00  0.00    +0.000 C 
BRANCH  19  20
ATOM     20  N   UNL     1       6.533   5.143  14.799  0.00  0.00    +0.000 NA
ATOM     21  H   UNL     1       6.923   4.201  14.746  0.00  0.00    +0.000 HD
ATOM     22  H   UNL     1       7.235   5.705  15.278  0.00  0.00    +0.000 HD
ENDBRANCH  19  20
BRANCH  19  23
ATOM     23  C   UNL     1       4.905   3.652  15.947  0.00  0.00    +0.000 C 
BRANCH  23  24
ATOM     24  C   UNL     1       3.941   3.490  17.104  0.00  0.00    +0.000 A 
ATOM     25  C   UNL     1       4.389   3.080  18.363  0.00  0.00    +0.000 A 
ATOM     26  C   UNL     1       3.497   2.972  19.435  0.00  0.00    +0.000 A 
ATOM     27  C   UNL     1       2.139   3.279  19.270  0.00  0.00    +0.000 A 
ATOM     28  C   UNL     1       1.688   3.674  18.003  0.00  0.00    +0.000 A 
ATOM     29  C   UNL     1       2.579   3.779  16.932  0.00  0.00    +0.000 A 
BRANCH  27  30
ATOM     30  C   UNL     1       1.182   3.208  20.433  0.00  0.00    +0.000 C 
ATOM     31  F   UNL     1       0.940   4.416  21.015  0.00  0.00    +0.000 F 
ATOM     32  F   UNL     1      -0.039   2.722  20.072  0.00  0.00    +0.000 F 
ATOM     33  F   UNL     1       1.624   2.396  21.433  0.00  0.00    +0.000 F 
ENDBRANCH  27  30
ENDBRANCH  23  24
ENDBRANCH  19  23
ENDBRANCH  18  19
ENDBRANCH   1  18
TORSDOF 7
ENDMDL
MODEL 9
REMARK VINA RESULT:      -7.8      7.998     11.202
REMARK  Name = 
REMARK  7 active torsions:
REMARK  status: ('A' for Active; 'I' for Inactive)
REMARK    1  A    between atoms: N_1  and  C_2
REMARK    2  A    between atoms: C_2  and  C_3
REMARK    3  A    between atoms: C_2  and  C_19
REMARK    4  A    between atoms: C_3  and  N_4
REMARK    5  A    between atoms: C_8  and  C_9
REMARK    6  A    between atoms: C_19  and  C_20
REMARK    7  A    between atoms: C_23  and  C_24
REMARK                            x       y       z     vdW  Elec       q    Type
REMARK                         _______ _______ _______ _____ _____    ______ ____
ROOT
ATOM      1  N   UNL     1       7.579   8.114  17.532  0.00  0.00    +0.000 N 
ATOM      2  C   UNL     1       8.193   9.188  18.060  0.00  0.00    +0.000 A 
ATOM      3  N   UNL     1       9.046   9.155  19.054  0.00  0.00    +0.000 NA
ATOM      4  C   UNL     1       9.529  10.421  19.302  0.00  0.00    +0.000 A 
ATOM      5  C   UNL     1       9.051  11.429  18.487  0.00  0.00    +0.000 A 
ATOM      6  S   UNL     1       7.914  10.746  17.393  0.00  0.00    +0.000 S 
ATOM      7  H   UNL     1       6.712   8.250  17.030  0.00  0.00    +0.000 HD
ENDROOT
BRANCH   5   8
ATOM      8  C   UNL     1       9.410  12.852  18.450  0.00  0.00    +0.000 A 
ATOM      9  C   UNL     1       8.709  13.761  19.263  0.00  0.00    +0.000 A 
ATOM     10  C   UNL     1       9.004  15.132  19.270  0.00  0.00    +0.000 A 
ATOM     11  C   UNL     1      10.035  15.560  18.433  0.00  0.00    +0.000 A 
ATOM     12  N   UNL     1      10.574  16.801  18.207  0.00  0.00    +0.000 N 
ATOM     13  N   UNL     1      11.574  16.809  17.307  0.00  0.00    +0.000 NA
ATOM     14  C   UNL     1      11.679  15.527  16.949  0.00  0.00    +0.000 A 
ATOM     15  C   UNL     1      10.751  14.698  17.613  0.00  0.00    +0.000 A 
ATOM     16  C   UNL     1      10.438  13.328  17.614  0.00  0.00    +0.000 A 
ATOM     17  H   UNL     1      10.303  17.678  18.634  0.00  0.00    +0.000 HD
ENDBRANCH   5   8
BRANCH   1  18
ATOM     18  C   UNL     1       7.787   6.802  18.126  0.00  0.00    +0.000 C 
BRANCH  18  19
ATOM     19  C   UNL     1       7.161   5.700  17.235  0.00  0.00    +0.000 C 
BRANCH  19  20
ATOM     20  N   UNL     1       7.093   4.413  17.969  0.00  0.00    +0.000 NA
ATOM     21  H   UNL     1       6.123   4.221  18.221  0.00  0.00    +0.000 HD
ATOM     22  H   UNL     1       7.594   4.502  18.851  0.00  0.00    +0.000 HD
ENDBRANCH  19  20
BRANCH  19  23
ATOM     23  C   UNL     1       5.756   6.097  16.716  0.00  0.00    +0.000 C 
BRANCH  23  24
ATOM     24  C   UNL     1       4.600   5.363  17.363  0.00  0.00    +0.000 A 
ATOM     25  C   UNL     1       4.221   4.090  16.927  0.00  0.00    +0.000 A 
ATOM     26  C   UNL     1       3.176   3.405  17.557  0.00  0.00    +0.000 A 
ATOM     27  C   UNL     1       2.495   3.977  18.640  0.00  0.00    +0.000 A 
ATOM     28  C   UNL     1       2.865   5.260  19.066  0.00  0.00    +0.000 A 
ATOM     29  C   UNL     1       3.906   5.945  18.435  0.00  0.00    +0.000 A 
BRANCH  27  30
ATOM     30  C   UNL     1       1.400   3.223  19.351  0.00  0.00    +0.000 C 
ATOM     31  F   UNL     1       0.671   3.996  20.206  0.00  0.00    +0.000 F 
ATOM     32  F   UNL     1       0.497   2.680  18.487  0.00  0.00    +0.000 F 
ATOM     33  F   UNL     1       1.870   2.186  20.099  0.00  0.00    +0.000 F 
ENDBRANCH  27  30
ENDBRANCH  23  24
ENDBRANCH  19  23
ENDBRANCH  18  19
ENDBRANCH   1  18
TORSDOF 7
ENDMDL
