MODEL 1
REMARK VINA RESULT:      -7.8      0.000      0.000
REMARK  Name = 
REMARK  3 active torsions:
REMARK  status: ('A' for Active; 'I' for Inactive)
REMARK    1  A    between atoms: C_1  and  C_2
REMARK    2  A    between atoms: C_10  and  C_11
REMARK    3  A    between atoms: C_16  and  C_17
REMARK                            x       y       z     vdW  Elec       q    Type
REMARK                         _______ _______ _______ _____ _____    ______ ____
ROOT
ATOM      1  C   UNL     1       1.207   2.884  21.823  0.00  0.00    +0.000 C 
ATOM      2  C   UNL     1       1.909   3.276  20.584  0.00  0.00    +0.000 A 
ATOM      3  O   UNL     1       2.904   4.193  20.726  0.00  0.00    +0.000 OA
ATOM      4  C   UNL     1       3.470   4.365  19.505  0.00  0.00    +0.000 A 
ATOM      5  C   UNL     1       4.556   5.192  19.239  0.00  0.00    +0.000 A 
ATOM      6  C   UNL     1       5.032   5.150  17.928  0.00  0.00    +0.000 A 
ATOM      7  O   UNL     1       6.184   5.916  17.654  0.00  0.00    +0.000 OA
ATOM      8  C   UNL     1       6.828   5.863  16.424  0.00  0.00    +0.000 A 
ATOM      9  O   UNL     1       7.866   6.483  16.225  0.00  0.00    +0.000 OA
ATOM     10  C   UNL     1       6.193   5.026  15.371  0.00  0.00    +0.000 A 
ATOM     11  C   UNL     1       6.881   4.949  14.042  0.00  0.00    +0.000 C 
ATOM     12  C   UNL     1       5.059   4.351  15.612  0.00  0.00    +0.000 A 
ATOM     13  C   UNL     1       4.443   4.375  16.931  0.00  0.00    +0.000 A 
ATOM     14  C   UNL     1       3.312   3.596  17.230  0.00  0.00    +0.000 A 
ATOM     15  C   UNL     1       2.829   3.575  18.557  0.00  0.00    +0.000 A 
ATOM     16  C   UNL     1       1.791   2.886  19.259  0.00  0.00    +0.000 A 
ATOM     17  C   UNL     1       0.813   1.908  18.718  0.00  0.00    +0.000 C 
ENDROOT
TORSDOF 0
ENDMDL
MODEL 2
REMARK VINA RESULT:      -7.4      1.236      6.005
REMARK  Name = 
REMARK  3 active torsions:
REMARK  status: ('A' for Active; 'I' for Inactive)
REMARK    1  A    between atoms: C_1  and  C_2
REMARK    2  A    between atoms: C_10  and  C_11
REMARK    3  A    between atoms: C_16  and  C_17
REMARK                            x       y       z     vdW  Elec       q    Type
REMARK                         _______ _______ _______ _____ _____    ______ ____
ROOT
ATOM      1  C   UNL     1       8.409   5.506  12.949  0.00  0.00    +0.000 C 
ATOM      2  C   UNL     1       7.391   5.016  13.900  0.00  0.00    +0.000 A 
ATOM      3  O   UNL     1       7.449   5.532  15.157  0.00  0.00    +0.000 OA
ATOM      4  C   UNL     1       6.400   5.022  15.851  0.00  0.00    +0.000 A 
ATOM      5  C   UNL     1       6.082   5.343  17.166  0.00  0.00    +0.000 A 
ATOM      6  C   UNL     1       4.908   4.767  17.654  0.00  0.00    +0.000 A 
ATOM      7  O   UNL     1       4.520   5.144  18.957  0.00  0.00    +0.000 OA
ATOM      8  C   UNL     1       3.311   4.740  19.510  0.00  0.00    +0.000 A 
ATOM      9  O   UNL     1       2.959   5.131  20.617  0.00  0.00    +0.000 OA
ATOM     10  C   UNL     1       2.479   3.814  18.698  0.00  0.00    +0.000 A 
ATOM     11  C   UNL     1       1.166   3.378  19.275  0.00  0.00    +0.000 C 
ATOM     12  C   UNL     1       2.881   3.403  17.485  0.00  0.00    +0.000 A 
ATOM     13  C   UNL     1       4.122   3.894  16.906  0.00  0.00    +0.000 A 
ATOM     14  C   UNL     1       4.511   3.553  15.599  0.00  0.00    +0.000 A 
ATOM     15  C   UNL     1       5.667   4.152  15.051  0.00  0.00    +0.000 A 
ATOM     16  C   UNL     1       6.334   4.127  13.786  0.00  0.00    +0.000 A 
ATOM     17  C   UNL     1       5.959   3.362  12.570  0.00  0.00    +0.000 C 
ENDROOT
TORSDOF 0
ENDMDL
MODEL 3
REMARK VINA RESULT:      -7.3      1.225      1.724
REMARK  Name = 
REMARK  3 active torsions:
REMARK  status: ('A' for Active; 'I' for Inactive)
REMARK    1  A    between atoms: C_1  and  C_2
REMARK    2  A    between atoms: C_10  and  C_11
REMARK    3  A    between atoms: C_16  and  C_17
REMARK                            x       y       z     vdW  Elec       q    Type
REMARK                         _______ _______ _______ _____ _____    ______ ____
ROOT
ATOM      1  C   UNL     1       2.467   4.542  21.268  0.00  0.00    +0.000 C 
ATOM      2  C   UNL     1       2.976   4.502  19.882  0.00  0.00    +0.000 A 
ATOM      3  O   UNL     1       4.038   5.307  19.612  0.00  0.00    +0.000 OA
ATOM      4  C   UNL     1       4.401   5.077  18.324  0.00  0.00    +0.000 A 
ATOM      5  C   UNL     1       5.480   5.673  17.680  0.00  0.00    +0.000 A 
ATOM      6  C   UNL     1       5.723   5.225  16.382  0.00  0.00    +0.000 A 
ATOM      7  O   UNL     1       6.862   5.754  15.739  0.00  0.00    +0.000 OA
ATOM      8  C   UNL     1       7.283   5.297  14.497  0.00  0.00    +0.000 A 
ATOM      9  O   UNL     1       8.313   5.720  13.982  0.00  0.00    +0.000 OA
ATOM     10  C   UNL     1       6.426   4.282  13.829  0.00  0.00    +0.000 A 
ATOM     11  C   UNL     1       6.873   3.771  12.493  0.00  0.00    +0.000 C 
ATOM     12  C   UNL     1       5.306   3.829  14.413  0.00  0.00    +0.000 A 
ATOM     13  C   UNL     1       4.925   4.279  15.743  0.00  0.00    +0.000 A 
ATOM     14  C   UNL     1       3.811   3.742  16.411  0.00  0.00    +0.000 A 
ATOM     15  C   UNL     1       3.558   4.135  17.744  0.00  0.00    +0.000 A 
ATOM     16  C   UNL     1       2.609   3.783  18.755  0.00  0.00    +0.000 A 
ATOM     17  C   UNL     1       1.492   2.811  18.661  0.00  0.00    +0.000 C 
ENDROOT
TORSDOF 0
ENDMDL
MODEL 4
REMARK VINA RESULT:      -6.9      3.980      5.522
REMARK  Name = 
REMARK  3 active torsions:
REMARK  status: ('A' for Active; 'I' for Inactive)
REMARK    1  A    between atoms: C_1  and  C_2
REMARK    2  A    between atoms: C_10  and  C_11
REMARK    3  A    between atoms: C_16  and  C_17
REMARK                            x       y       z     vdW  Elec       q    Type
REMARK                         _______ _______ _______ _____ _____    ______ ____
ROOT
ATOM      1  C   UNL     1       3.337   1.699  18.674  0.00  0.00    +0.000 C 
ATOM      2  C   UNL     1       2.988   3.053  19.148  0.00  0.00    +0.000 A 
ATOM      3  O   UNL     1       3.215   4.069  18.273  0.00  0.00    +0.000 OA
ATOM      4  C   UNL     1       2.767   5.210  18.856  0.00  0.00    +0.000 A 
ATOM      5  C   UNL     1       2.779   6.467  18.261  0.00  0.00    +0.000 A 
ATOM      6  C   UNL     1       2.188   7.487  19.007  0.00  0.00    +0.000 A 
ATOM      7  O   UNL     1       2.112   8.753  18.390  0.00  0.00    +0.000 OA
ATOM      8  C   UNL     1       1.438   9.818  18.975  0.00  0.00    +0.000 A 
ATOM      9  O   UNL     1       1.325  10.891  18.395  0.00  0.00    +0.000 OA
ATOM     10  C   UNL     1       0.872   9.589  20.331  0.00  0.00    +0.000 A 
ATOM     11  C   UNL     1       0.132  10.724  20.971  0.00  0.00    +0.000 C 
ATOM     12  C   UNL     1       1.003   8.403  20.945  0.00  0.00    +0.000 A 
ATOM     13  C   UNL     1       1.659   7.288  20.280  0.00  0.00    +0.000 A 
ATOM     14  C   UNL     1       1.718   6.012  20.867  0.00  0.00    +0.000 A 
ATOM     15  C   UNL     1       2.265   4.943  20.124  0.00  0.00    +0.000 A 
ATOM     16  C   UNL     1       2.438   3.536  20.325  0.00  0.00    +0.000 A 
ATOM     17  C   UNL     1       2.062   2.730  21.513  0.00  0.00    +0.000 C 
ENDROOT
TORSDOF 0
ENDMDL
MODEL 5
REMARK VINA RESULT:      -6.8      3.938      6.212
REMARK  Name = 
REMARK  3 active torsions:
REMARK  status: ('A' for Active; 'I' for Inactive)
REMARK    1  A    between atoms: C_1  and  C_2
REMARK    2  A    between atoms: C_10  and  C_11
REMARK    3  A    between atoms: C_16  and  C_17
REMARK                            x       y       z     vdW  Elec       q    Type
REMARK                         _______ _______ _______ _____ _____    ______ ____
ROOT
ATOM      1  C   UNL     1       5.271   3.851  16.172  0.00  0.00    +0.000 C 
ATOM      2  C   UNL     1       4.569   4.660  17.189  0.00  0.00    +0.000 A 
ATOM      3  O   UNL     1       4.211   5.916  16.809  0.00  0.00    +0.000 OA
ATOM      4  C   UNL     1       3.522   6.467  17.840  0.00  0.00    +0.000 A 
ATOM      5  C   UNL     1       2.943   7.732  17.827  0.00  0.00    +0.000 A 
ATOM      6  C   UNL     1       2.205   8.063  18.963  0.00  0.00    +0.000 A 
ATOM      7  O   UNL     1       1.539   9.306  18.939  0.00  0.00    +0.000 OA
ATOM      8  C   UNL     1       0.674   9.697  19.952  0.00  0.00    +0.000 A 
ATOM      9  O   UNL     1       0.052  10.752  19.883  0.00  0.00    +0.000 OA
ATOM     10  C   UNL     1       0.547   8.781  21.116  0.00  0.00    +0.000 A 
ATOM     11  C   UNL     1      -0.391   9.183  22.214  0.00  0.00    +0.000 C 
ATOM     12  C   UNL     1       1.233   7.629  21.169  0.00  0.00    +0.000 A 
ATOM     13  C   UNL     1       2.083   7.216  20.063  0.00  0.00    +0.000 A 
ATOM     14  C   UNL     1       2.730   5.969  20.057  0.00  0.00    +0.000 A 
ATOM     15  C   UNL     1       3.448   5.577  18.905  0.00  0.00    +0.000 A 
ATOM     16  C   UNL     1       4.159   4.407  18.488  0.00  0.00    +0.000 A 
ATOM     17  C   UNL     1       4.376   3.151  19.247  0.00  0.00    +0.000 C 
ENDROOT
TORSDOF 0
ENDMDL
MODEL 6
REMARK VINA RESULT:      -6.7      1.479      2.451
REMARK  Name = 
REMARK  3 active torsions:
REMARK  status: ('A' for Active; 'I' for Inactive)
REMARK    1  A    between atoms: C_1  and  C_2
REMARK    2  A    between atoms: C_10  and  C_11
REMARK    3  A    between atoms: C_16  and  C_17
REMARK                            x       y       z     vdW  Elec       q    Type
REMARK                         _______ _______ _______ _____ _____    ______ ____
ROOT
ATOM      1  C   UNL     1       3.454   3.693  20.727  0.00  0.00    +0.000 C 
ATOM      2  C   UNL     1       3.874   3.836  19.318  0.00  0.00    +0.000 A 
ATOM      3  O   UNL     1       4.897   4.701  19.085  0.00  0.00    +0.000 OA
ATOM      4  C   UNL     1       5.182   4.638  17.759  0.00  0.00    +0.000 A 
ATOM      5  C   UNL     1       6.203   5.342  17.129  0.00  0.00    +0.000 A 
ATOM      6  C   UNL     1       6.374   5.060  15.774  0.00  0.00    +0.000 A 
ATOM      7  O   UNL     1       7.456   5.699  15.132  0.00  0.00    +0.000 OA
ATOM      8  C   UNL     1       7.810   5.408  13.821  0.00  0.00    +0.000 A 
ATOM      9  O   UNL     1       8.793   5.923  13.301  0.00  0.00    +0.000 OA
ATOM     10  C   UNL     1       6.938   4.452  13.088  0.00  0.00    +0.000 A 
ATOM     11  C   UNL     1       7.312   4.119  11.675  0.00  0.00    +0.000 C 
ATOM     12  C   UNL     1       5.869   3.896  13.679  0.00  0.00    +0.000 A 
ATOM     13  C   UNL     1       5.561   4.172  15.074  0.00  0.00    +0.000 A 
ATOM     14  C   UNL     1       4.506   3.522  15.737  0.00  0.00    +0.000 A 
ATOM     15  C   UNL     1       4.329   3.745  17.121  0.00  0.00    +0.000 A 
ATOM     16  C   UNL     1       3.455   3.244  18.137  0.00  0.00    +0.000 A 
ATOM     17  C   UNL     1       2.359   2.254  17.993  0.00  0.00    +0.000 C 
ENDROOT
TORSDOF 0
ENDMDL
MODEL 7
REMARK VINA RESULT:      -6.6      1.381      2.510
REMARK  Name = 
REMARK  3 active torsions:
REMARK  status: ('A' for Active; 'I' for Inactive)
REMARK    1  A    between atoms: C_1  and  C_2
REMARK    2  A    between atoms: C_10  and  C_11
REMARK    3  A    between atoms: C_16  and  C_17
REMARK                            x       y       z     vdW  Elec       q    Type
REMARK                         _______ _______ _______ _____ _____    ______ ____
ROOT
ATOM      1  C   UNL     1       0.342   1.827  19.095  0.00  0.00    +0.000 C 
ATOM      2  C   UNL     1       1.574   2.636  18.989  0.00  0.00    +0.000 A 
ATOM      3  O   UNL     1       2.311   2.456  17.860  0.00  0.00    +0.000 OA
ATOM      4  C   UNL     1       3.349   3.329  17.914  0.00  0.00    +0.000 A 
ATOM      5  C   UNL     1       4.309   3.488  16.920  0.00  0.00    +0.000 A 
ATOM      6  C   UNL     1       5.237   4.506  17.144  0.00  0.00    +0.000 A 
ATOM      7  O   UNL     1       6.169   4.742  16.112  0.00  0.00    +0.000 OA
ATOM      8  C   UNL     1       7.062   5.805  16.157  0.00  0.00    +0.000 A 
ATOM      9  O   UNL     1       7.820   6.036  15.222  0.00  0.00    +0.000 OA
ATOM     10  C   UNL     1       7.054   6.636  17.390  0.00  0.00    +0.000 A 
ATOM     11  C   UNL     1       8.004   7.793  17.451  0.00  0.00    +0.000 C 
ATOM     12  C   UNL     1       6.212   6.368  18.401  0.00  0.00    +0.000 A 
ATOM     13  C   UNL     1       5.243   5.288  18.297  0.00  0.00    +0.000 A 
ATOM     14  C   UNL     1       4.288   5.056  19.301  0.00  0.00    +0.000 A 
ATOM     15  C   UNL     1       3.302   4.066  19.091  0.00  0.00    +0.000 A 
ATOM     16  C   UNL     1       2.158   3.590  19.807  0.00  0.00    +0.000 A 
ATOM     17  C   UNL     1       1.648   4.047  21.123  0.00  0.00    +0.000 C 
ENDROOT
TORSDOF 0
ENDMDL
MODEL 8
REMARK VINA RESULT:      -6.6      4.184      5.466
REMARK  Name = 
REMARK  3 active torsions:
REMARK  status: ('A' for Active; 'I' for Inactive)
REMARK    1  A    between atoms: C_1  and  C_2
REMARK    2  A    between atoms: C_10  and  C_11
REMARK    3  A    between atoms: C_16  and  C_17
REMARK                            x       y       z     vdW  Elec       q    Type
REMARK                         _______ _______ _______ _____ _____    ______ ____
ROOT
ATOM      1  C   UNL     1       0.375  11.606  20.178  0.00  0.00    +0.000 C 
ATOM      2  C   UNL     1       0.792  10.191  20.111  0.00  0.00    +0.000 A 
ATOM      3  O   UNL     1       1.391   9.799  18.955  0.00  0.00    +0.000 OA
ATOM      4  C   UNL     1       1.762   8.503  19.113  0.00  0.00    +0.000 A 
ATOM      5  C   UNL     1       2.450   7.749  18.168  0.00  0.00    +0.000 A 
ATOM      6  C   UNL     1       2.808   6.463  18.575  0.00  0.00    +0.000 A 
ATOM      7  O   UNL     1       3.578   5.710  17.666  0.00  0.00    +0.000 OA
ATOM      8  C   UNL     1       4.103   4.467  17.999  0.00  0.00    +0.000 A 
ATOM      9  O   UNL     1       4.826   3.855  17.221  0.00  0.00    +0.000 OA
ATOM     10  C   UNL     1       3.739   3.922  19.333  0.00  0.00    +0.000 A 
ATOM     11  C   UNL     1       4.305   2.587  19.712  0.00  0.00    +0.000 C 
ATOM     12  C   UNL     1       2.949   4.611  20.172  0.00  0.00    +0.000 A 
ATOM     13  C   UNL     1       2.468   5.939  19.820  0.00  0.00    +0.000 A 
ATOM     14  C   UNL     1       1.724   6.716  20.724  0.00  0.00    +0.000 A 
ATOM     15  C   UNL     1       1.384   8.040  20.368  0.00  0.00    +0.000 A 
ATOM     16  C   UNL     1       0.723   9.136  21.008  0.00  0.00    +0.000 A 
ATOM     17  C   UNL     1       0.131   9.179  22.368  0.00  0.00    +0.000 C 
ENDROOT
TORSDOF 0
ENDMDL
MODEL 9
REMARK VINA RESULT:      -6.6      4.874      5.745
REMARK  Name = 
REMARK  3 active torsions:
REMARK  status: ('A' for Active; 'I' for Inactive)
REMARK    1  A    between atoms: C_1  and  C_2
REMARK    2  A    between atoms: C_10  and  C_11
REMARK    3  A    between atoms: C_16  and  C_17
REMARK                            x       y       z     vdW  Elec       q    Type
REMARK                         _______ _______ _______ _____ _____    ______ ____
ROOT
ATOM      1  C   UNL     1      -0.896  11.969  20.871  0.00  0.00    +0.000 C 
ATOM      2  C   UNL     1      -0.162  10.726  20.556  0.00  0.00    +0.000 A 
ATOM      3  O   UNL     1       0.414  10.669  19.325  0.00  0.00    +0.000 OA
ATOM      4  C   UNL     1       1.094   9.496  19.254  0.00  0.00    +0.000 A 
ATOM      5  C   UNL     1       1.860   9.083  18.169  0.00  0.00    +0.000 A 
ATOM      6  C   UNL     1       2.545   7.881  18.344  0.00  0.00    +0.000 A 
ATOM      7  O   UNL     1       3.394   7.483  17.290  0.00  0.00    +0.000 OA
ATOM      8  C   UNL     1       4.225   6.374  17.393  0.00  0.00    +0.000 A 
ATOM      9  O   UNL     1       5.005   6.082  16.494  0.00  0.00    +0.000 OA
ATOM     10  C   UNL     1       4.114   5.566  18.636  0.00  0.00    +0.000 A 
ATOM     11  C   UNL     1       5.010   4.373  18.767  0.00  0.00    +0.000 C 
ATOM     12  C   UNL     1       3.256   5.908  19.610  0.00  0.00    +0.000 A 
ATOM     13  C   UNL     1       2.446   7.112  19.502  0.00  0.00    +0.000 A 
ATOM     14  C   UNL     1       1.617   7.539  20.553  0.00  0.00    +0.000 A 
ATOM     15  C   UNL     1       0.943   8.775  20.433  0.00  0.00    +0.000 A 
ATOM     16  C   UNL     1       0.097   9.567  21.271  0.00  0.00    +0.000 A 
ATOM     17  C   UNL     1      -0.372   9.263  22.646  0.00  0.00    +0.000 C 
ENDROOT
TORSDOF 0
ENDMDL
