MODEL 1
REMARK VINA RESULT:      -6.4      0.000      0.000
REMARK  Name = 
REMARK  8 active torsions:
REMARK  status: ('A' for Active; 'I' for Inactive)
REMARK    1  A    between atoms: C_1  and  C_2
REMARK    2  A    between atoms: C_2  and  C_4
REMARK    3  A    between atoms: C_5  and  O_6
REMARK    4  A    between atoms: C_8  and  O_9
REMARK    5  A    between atoms: O_9  and  C_10
REMARK    6  A    between atoms: C_10  and  C_11
REMARK    7  A    between atoms: C_11  and  O_13
REMARK    8  A    between atoms: C_15  and  O_16
REMARK                            x       y       z     vdW  Elec       q    Type
REMARK                         _______ _______ _______ _____ _____    ______ ____
ROOT
ATOM      1  C   UNL     1       2.466   3.879  19.204  0.00  0.00    +0.000 A 
ATOM      2  C   UNL     1       2.850   3.167  18.054  0.00  0.00    +0.000 A 
ATOM      3  C   UNL     1       3.696   3.734  17.099  0.00  0.00    +0.000 A 
ATOM      4  C   UNL     1       4.132   5.048  17.243  0.00  0.00    +0.000 A 
ATOM      5  C   UNL     1       3.748   5.778  18.370  0.00  0.00    +0.000 A 
ATOM      6  C   UNL     1       2.923   5.195  19.342  0.00  0.00    +0.000 A 
ENDROOT
BRANCH   1   8
ATOM      7  C   UNL     1       2.128   2.763  21.540  0.00  0.00    +0.000 C 
ATOM      8  C   UNL     1       1.589   3.195  20.199  0.00  0.00    +0.000 C 
ATOM      9  O   UNL     1       0.443   2.898  19.852  0.00  0.00    +0.000 OA
ENDBRANCH   1   8
BRANCH   2  10
ATOM     10  O   UNL     1       2.432   1.888  17.788  0.00  0.00    +0.000 OA
ATOM     11  H   UNL     1       2.295   1.429  18.650  0.00  0.00    +0.000 HD
ENDBRANCH   2  10
BRANCH   6  12
ATOM     12  O   UNL     1       2.549   5.960  20.413  0.00  0.00    +0.000 OA
ATOM     13  H   UNL     1       3.106   5.762  21.183  0.00  0.00    +0.000 HD
ENDBRANCH   6  12
BRANCH   4  14
ATOM     14  O   UNL     1       4.960   5.510  16.256  0.00  0.00    +0.000 OA
BRANCH  14  15
ATOM     15  C   UNL     1       5.647   4.500  15.508  0.00  0.00    +0.000 C 
BRANCH  15  16
ATOM     16  C   UNL     1       7.142   4.758  15.593  0.00  0.00    +0.000 C 
ATOM     17  O   UNL     1       7.829   4.451  16.556  0.00  0.00    +0.000 OA
BRANCH  16  18
ATOM     18  O   UNL     1       7.651   5.352  14.488  0.00  0.00    +0.000 OA
ATOM     19  H   UNL     1       7.059   5.191  13.720  0.00  0.00    +0.000 HD
ENDBRANCH  16  18
ENDBRANCH  15  16
ENDBRANCH  14  15
ENDBRANCH   4  14
TORSDOF 7
ENDMDL
MODEL 2
REMARK VINA RESULT:      -6.4      1.166      1.377
REMARK  Name = 
REMARK  8 active torsions:
REMARK  status: ('A' for Active; 'I' for Inactive)
REMARK    1  A    between atoms: C_1  and  C_2
REMARK    2  A    between atoms: C_2  and  C_4
REMARK    3  A    between atoms: C_5  and  O_6
REMARK    4  A    between atoms: C_8  and  O_9
REMARK    5  A    between atoms: O_9  and  C_10
REMARK    6  A    between atoms: C_10  and  C_11
REMARK    7  A    between atoms: C_11  and  O_13
REMARK    8  A    between atoms: C_15  and  O_16
REMARK                            x       y       z     vdW  Elec       q    Type
REMARK                         _______ _______ _______ _____ _____    ______ ____
ROOT
ATOM      1  C   UNL     1       2.525   3.769  19.274  0.00  0.00    +0.000 A 
ATOM      2  C   UNL     1       3.043   3.041  18.188  0.00  0.00    +0.000 A 
ATOM      3  C   UNL     1       4.057   3.564  17.383  0.00  0.00    +0.000 A 
ATOM      4  C   UNL     1       4.537   4.850  17.611  0.00  0.00    +0.000 A 
ATOM      5  C   UNL     1       4.023   5.596  18.674  0.00  0.00    +0.000 A 
ATOM      6  C   UNL     1       3.026   5.056  19.498  0.00  0.00    +0.000 A 
ENDROOT
BRANCH   1   8
ATOM      7  C   UNL     1       1.746   2.729  21.539  0.00  0.00    +0.000 C 
ATOM      8  C   UNL     1       1.467   3.130  20.112  0.00  0.00    +0.000 C 
ATOM      9  O   UNL     1       0.396   2.843  19.572  0.00  0.00    +0.000 OA
ENDBRANCH   1   8
BRANCH   2  10
ATOM     10  O   UNL     1       2.602   1.789  17.843  0.00  0.00    +0.000 OA
ATOM     11  H   UNL     1       3.210   1.131  18.253  0.00  0.00    +0.000 HD
ENDBRANCH   2  10
BRANCH   6  12
ATOM     12  O   UNL     1       2.533   5.836  20.509  0.00  0.00    +0.000 OA
ATOM     13  H   UNL     1       3.260   6.225  21.024  0.00  0.00    +0.000 HD
ENDBRANCH   6  12
BRANCH   4  14
ATOM     14  O   UNL     1       5.532   5.270  16.770  0.00  0.00    +0.000 OA
BRANCH  14  15
ATOM     15  C   UNL     1       6.585   6.017  17.390  0.00  0.00    +0.000 C 
BRANCH  15  16
ATOM     16  C   UNL     1       7.587   5.045  17.992  0.00  0.00    +0.000 C 
ATOM     17  O   UNL     1       7.931   5.065  19.164  0.00  0.00    +0.000 OA
BRANCH  16  18
ATOM     18  O   UNL     1       8.056   4.135  17.106  0.00  0.00    +0.000 OA
ATOM     19  H   UNL     1       8.818   4.513  16.613  0.00  0.00    +0.000 HD
ENDBRANCH  16  18
ENDBRANCH  15  16
ENDBRANCH  14  15
ENDBRANCH   4  14
TORSDOF 7
ENDMDL
MODEL 3
REMARK VINA RESULT:      -6.3      1.786      5.814
REMARK  Name = 
REMARK  8 active torsions:
REMARK  status: ('A' for Active; 'I' for Inactive)
REMARK    1  A    between atoms: C_1  and  C_2
REMARK    2  A    between atoms: C_2  and  C_4
REMARK    3  A    between atoms: C_5  and  O_6
REMARK    4  A    between atoms: C_8  and  O_9
REMARK    5  A    between atoms: O_9  and  C_10
REMARK    6  A    between atoms: C_10  and  C_11
REMARK    7  A    between atoms: C_11  and  O_13
REMARK    8  A    between atoms: C_15  and  O_16
REMARK                            x       y       z     vdW  Elec       q    Type
REMARK                         _______ _______ _______ _____ _____    ______ ____
ROOT
ATOM      1  C   UNL     1       5.882   4.774  17.560  0.00  0.00    +0.000 A 
ATOM      2  C   UNL     1       4.944   4.280  16.635  0.00  0.00    +0.000 A 
ATOM      3  C   UNL     1       3.724   3.746  17.056  0.00  0.00    +0.000 A 
ATOM      4  C   UNL     1       3.439   3.639  18.414  0.00  0.00    +0.000 A 
ATOM      5  C   UNL     1       4.365   4.108  19.349  0.00  0.00    +0.000 A 
ATOM      6  C   UNL     1       5.575   4.672  18.921  0.00  0.00    +0.000 A 
ENDROOT
BRANCH   1   8
ATOM      7  C   UNL     1       7.455   6.829  17.217  0.00  0.00    +0.000 C 
ATOM      8  C   UNL     1       7.148   5.364  17.034  0.00  0.00    +0.000 C 
ATOM      9  O   UNL     1       7.884   4.644  16.354  0.00  0.00    +0.000 OA
ENDBRANCH   1   8
BRANCH   2  10
ATOM     10  O   UNL     1       5.150   4.286  15.279  0.00  0.00    +0.000 OA
ATOM     11  H   UNL     1       5.604   3.445  15.039  0.00  0.00    +0.000 HD
ENDBRANCH   2  10
BRANCH   6  12
ATOM     12  O   UNL     1       6.463   5.090  19.875  0.00  0.00    +0.000 OA
ATOM     13  H   UNL     1       6.132   4.879  20.763  0.00  0.00    +0.000 HD
ENDBRANCH   6  12
BRANCH   4  14
ATOM     14  O   UNL     1       2.217   3.105  18.723  0.00  0.00    +0.000 OA
BRANCH  14  15
ATOM     15  C   UNL     1       2.202   2.223  19.852  0.00  0.00    +0.000 C 
BRANCH  15  16
ATOM     16  C   UNL     1       1.344   2.839  20.944  0.00  0.00    +0.000 C 
ATOM     17  O   UNL     1       1.450   2.561  22.129  0.00  0.00    +0.000 OA
BRANCH  16  18
ATOM     18  O   UNL     1       0.451   3.747  20.481  0.00  0.00    +0.000 OA
ATOM     19  H   UNL     1      -0.410   3.307  20.305  0.00  0.00    +0.000 HD
ENDBRANCH  16  18
ENDBRANCH  15  16
ENDBRANCH  14  15
ENDBRANCH   4  14
TORSDOF 7
ENDMDL
MODEL 4
REMARK VINA RESULT:      -6.3      2.152      6.067
REMARK  Name = 
REMARK  8 active torsions:
REMARK  status: ('A' for Active; 'I' for Inactive)
REMARK    1  A    between atoms: C_1  and  C_2
REMARK    2  A    between atoms: C_2  and  C_4
REMARK    3  A    between atoms: C_5  and  O_6
REMARK    4  A    between atoms: C_8  and  O_9
REMARK    5  A    between atoms: O_9  and  C_10
REMARK    6  A    between atoms: C_10  and  C_11
REMARK    7  A    between atoms: C_11  and  O_13
REMARK    8  A    between atoms: C_15  and  O_16
REMARK                            x       y       z     vdW  Elec       q    Type
REMARK                         _______ _______ _______ _____ _____    ______ ____
ROOT
ATOM      1  C   UNL     1       6.152   6.087  17.752  0.00  0.00    +0.000 A 
ATOM      2  C   UNL     1       4.943   6.109  17.035  0.00  0.00    +0.000 A 
ATOM      3  C   UNL     1       3.800   5.469  17.520  0.00  0.00    +0.000 A 
ATOM      4  C   UNL     1       3.856   4.744  18.706  0.00  0.00    +0.000 A 
ATOM      5  C   UNL     1       5.052   4.695  19.425  0.00  0.00    +0.000 A 
ATOM      6  C   UNL     1       6.189   5.364  18.950  0.00  0.00    +0.000 A 
ENDROOT
BRANCH   1   8
ATOM      7  C   UNL     1       7.856   8.062  17.865  0.00  0.00    +0.000 C 
ATOM      8  C   UNL     1       7.321   6.825  17.189  0.00  0.00    +0.000 C 
ATOM      9  O   UNL     1       7.768   6.455  16.100  0.00  0.00    +0.000 OA
ENDBRANCH   1   8
BRANCH   2  10
ATOM     10  O   UNL     1       4.796   6.747  15.830  0.00  0.00    +0.000 OA
ATOM     11  H   UNL     1       5.688   7.044  15.534  0.00  0.00    +0.000 HD
ENDBRANCH   2  10
BRANCH   6  12
ATOM     12  O   UNL     1       7.345   5.262  19.674  0.00  0.00    +0.000 OA
ATOM     13  H   UNL     1       8.113   5.479  19.120  0.00  0.00    +0.000 HD
ENDBRANCH   6  12
BRANCH   4  14
ATOM     14  O   UNL     1       2.683   4.156  19.098  0.00  0.00    +0.000 OA
BRANCH  14  15
ATOM     15  C   UNL     1       2.824   3.017  19.954  0.00  0.00    +0.000 C 
BRANCH  15  16
ATOM     16  C   UNL     1       1.724   3.053  21.002  0.00  0.00    +0.000 C 
ATOM     17  O   UNL     1       1.913   2.841  22.190  0.00  0.00    +0.000 OA
BRANCH  16  18
ATOM     18  O   UNL     1       0.506   3.359  20.496  0.00  0.00    +0.000 OA
ATOM     19  H   UNL     1       0.250   2.694  19.819  0.00  0.00    +0.000 HD
ENDBRANCH  16  18
ENDBRANCH  15  16
ENDBRANCH  14  15
ENDBRANCH   4  14
TORSDOF 7
ENDMDL
MODEL 5
REMARK VINA RESULT:      -6.3      1.289      1.306
REMARK  Name = 
REMARK  8 active torsions:
REMARK  status: ('A' for Active; 'I' for Inactive)
REMARK    1  A    between atoms: C_1  and  C_2
REMARK    2  A    between atoms: C_2  and  C_4
REMARK    3  A    between atoms: C_5  and  O_6
REMARK    4  A    between atoms: C_8  and  O_9
REMARK    5  A    between atoms: O_9  and  C_10
REMARK    6  A    between atoms: C_10  and  C_11
REMARK    7  A    between atoms: C_11  and  O_13
REMARK    8  A    between atoms: C_15  and  O_16
REMARK                            x       y       z     vdW  Elec       q    Type
REMARK                         _______ _______ _______ _____ _____    ______ ____
ROOT
ATOM      1  C   UNL     1       3.272   3.555  19.681  0.00  0.00    +0.000 A 
ATOM      2  C   UNL     1       3.771   2.833  18.583  0.00  0.00    +0.000 A 
ATOM      3  C   UNL     1       4.303   3.485  17.469  0.00  0.00    +0.000 A 
ATOM      4  C   UNL     1       4.296   4.875  17.403  0.00  0.00    +0.000 A 
ATOM      5  C   UNL     1       3.789   5.610  18.476  0.00  0.00    +0.000 A 
ATOM      6  C   UNL     1       3.283   4.953  19.606  0.00  0.00    +0.000 A 
ENDROOT
BRANCH   1   8
ATOM      7  C   UNL     1       1.286   2.812  21.205  0.00  0.00    +0.000 C 
ATOM      8  C   UNL     1       2.752   2.789  20.853  0.00  0.00    +0.000 C 
ATOM      9  O   UNL     1       3.570   2.227  21.585  0.00  0.00    +0.000 OA
ENDBRANCH   1   8
BRANCH   2  10
ATOM     10  O   UNL     1       3.774   1.463  18.523  0.00  0.00    +0.000 OA
ATOM     11  H   UNL     1       3.304   1.195  17.698  0.00  0.00    +0.000 HD
ENDBRANCH   2  10
BRANCH   6  12
ATOM     12  O   UNL     1       2.769   5.715  20.619  0.00  0.00    +0.000 OA
ATOM     13  H   UNL     1       2.344   5.152  21.286  0.00  0.00    +0.000 HD
ENDBRANCH   6  12
BRANCH   4  14
ATOM     14  O   UNL     1       4.843   5.418  16.272  0.00  0.00    +0.000 OA
BRANCH  14  15
ATOM     15  C   UNL     1       5.934   4.684  15.704  0.00  0.00    +0.000 C 
BRANCH  15  16
ATOM     16  C   UNL     1       7.222   5.113  16.386  0.00  0.00    +0.000 C 
ATOM     17  O   UNL     1       7.955   4.348  16.993  0.00  0.00    +0.000 OA
BRANCH  16  18
ATOM     18  O   UNL     1       7.493   6.433  16.246  0.00  0.00    +0.000 OA
ATOM     19  H   UNL     1       8.145   6.713  16.926  0.00  0.00    +0.000 HD
ENDBRANCH  16  18
ENDBRANCH  15  16
ENDBRANCH  14  15
ENDBRANCH   4  14
TORSDOF 7
ENDMDL
MODEL 6
REMARK VINA RESULT:      -6.3      1.135      2.380
REMARK  Name = 
REMARK  8 active torsions:
REMARK  status: ('A' for Active; 'I' for Inactive)
REMARK    1  A    between atoms: C_1  and  C_2
REMARK    2  A    between atoms: C_2  and  C_4
REMARK    3  A    between atoms: C_5  and  O_6
REMARK    4  A    between atoms: C_8  and  O_9
REMARK    5  A    between atoms: O_9  and  C_10
REMARK    6  A    between atoms: C_10  and  C_11
REMARK    7  A    between atoms: C_11  and  O_13
REMARK    8  A    between atoms: C_15  and  O_16
REMARK                            x       y       z     vdW  Elec       q    Type
REMARK                         _______ _______ _______ _____ _____    ______ ____
ROOT
ATOM      1  C   UNL     1       3.198   3.351  19.523  0.00  0.00    +0.000 A 
ATOM      2  C   UNL     1       3.478   4.723  19.392  0.00  0.00    +0.000 A 
ATOM      3  C   UNL     1       4.019   5.243  18.214  0.00  0.00    +0.000 A 
ATOM      4  C   UNL     1       4.345   4.395  17.161  0.00  0.00    +0.000 A 
ATOM      5  C   UNL     1       4.091   3.026  17.277  0.00  0.00    +0.000 A 
ATOM      6  C   UNL     1       3.520   2.512  18.450  0.00  0.00    +0.000 A 
ENDROOT
BRANCH   1   8
ATOM      7  C   UNL     1       1.129   3.116  21.097  0.00  0.00    +0.000 C 
ATOM      8  C   UNL     1       2.587   2.873  20.798  0.00  0.00    +0.000 C 
ATOM      9  O   UNL     1       3.331   2.371  21.644  0.00  0.00    +0.000 OA
ENDBRANCH   1   8
BRANCH   2  10
ATOM     10  O   UNL     1       3.247   5.636  20.389  0.00  0.00    +0.000 OA
ATOM     11  H   UNL     1       2.929   6.468  19.969  0.00  0.00    +0.000 HD
ENDBRANCH   2  10
BRANCH   6  12
ATOM     12  O   UNL     1       3.317   1.161  18.529  0.00  0.00    +0.000 OA
ATOM     13  H   UNL     1       2.371   0.965  18.634  0.00  0.00    +0.000 HD
ENDBRANCH   6  12
BRANCH   4  14
ATOM     14  O   UNL     1       4.866   5.001  16.050  0.00  0.00    +0.000 OA
BRANCH  14  15
ATOM     15  C   UNL     1       5.801   4.214  15.302  0.00  0.00    +0.000 C 
BRANCH  15  16
ATOM     16  C   UNL     1       7.204   4.735  15.569  0.00  0.00    +0.000 C 
ATOM     17  O   UNL     1       7.854   4.452  16.565  0.00  0.00    +0.000 OA
BRANCH  16  18
ATOM     18  O   UNL     1       7.679   5.536  14.587  0.00  0.00    +0.000 OA
ATOM     19  H   UNL     1       8.335   5.045  14.044  0.00  0.00    +0.000 HD
ENDBRANCH  16  18
ENDBRANCH  15  16
ENDBRANCH  14  15
ENDBRANCH   4  14
TORSDOF 7
ENDMDL
MODEL 7
REMARK VINA RESULT:      -6.2      0.223      2.251
REMARK  Name = 
REMARK  8 active torsions:
REMARK  status: ('A' for Active; 'I' for Inactive)
REMARK    1  A    between atoms: C_1  and  C_2
REMARK    2  A    between atoms: C_2  and  C_4
REMARK    3  A    between atoms: C_5  and  O_6
REMARK    4  A    between atoms: C_8  and  O_9
REMARK    5  A    between atoms: O_9  and  C_10
REMARK    6  A    between atoms: C_10  and  C_11
REMARK    7  A    between atoms: C_11  and  O_13
REMARK    8  A    between atoms: C_15  and  O_16
REMARK                            x       y       z     vdW  Elec       q    Type
REMARK                         _______ _______ _______ _____ _____    ______ ____
ROOT
ATOM      1  C   UNL     1       2.529   3.791  19.134  0.00  0.00    +0.000 A 
ATOM      2  C   UNL     1       3.024   5.098  19.291  0.00  0.00    +0.000 A 
ATOM      3  C   UNL     1       3.840   5.685  18.322  0.00  0.00    +0.000 A 
ATOM      4  C   UNL     1       4.226   4.958  17.200  0.00  0.00    +0.000 A 
ATOM      5  C   UNL     1       3.759   3.652  17.034  0.00  0.00    +0.000 A 
ATOM      6  C   UNL     1       2.915   3.077  17.994  0.00  0.00    +0.000 A 
ENDROOT
BRANCH   1   8
ATOM      7  C   UNL     1       2.173   2.873  21.552  0.00  0.00    +0.000 C 
ATOM      8  C   UNL     1       1.632   3.243  20.195  0.00  0.00    +0.000 C 
ATOM      9  O   UNL     1       0.460   3.002  19.893  0.00  0.00    +0.000 OA
ENDBRANCH   1   8
BRANCH   2  10
ATOM     10  O   UNL     1       2.750   5.879  20.385  0.00  0.00    +0.000 OA
ATOM     11  H   UNL     1       1.846   6.255  20.269  0.00  0.00    +0.000 HD
ENDBRANCH   2  10
BRANCH   6  12
ATOM     12  O   UNL     1       2.507   1.785  17.802  0.00  0.00    +0.000 OA
ATOM     13  H   UNL     1       1.625   1.647  18.185  0.00  0.00    +0.000 HD
ENDBRANCH   6  12
BRANCH   4  14
ATOM     14  O   UNL     1       5.023   5.623  16.308  0.00  0.00    +0.000 OA
BRANCH  14  15
ATOM     15  C   UNL     1       5.525   4.831  15.225  0.00  0.00    +0.000 C 
BRANCH  15  16
ATOM     16  C   UNL     1       7.040   4.946  15.194  0.00  0.00    +0.000 C 
ATOM     17  O   UNL     1       7.671   5.342  14.226  0.00  0.00    +0.000 OA
BRANCH  16  18
ATOM     18  O   UNL     1       7.633   4.581  16.356  0.00  0.00    +0.000 OA
ATOM     19  H   UNL     1       7.016   4.730  17.106  0.00  0.00    +0.000 HD
ENDBRANCH  16  18
ENDBRANCH  15  16
ENDBRANCH  14  15
ENDBRANCH   4  14
TORSDOF 7
ENDMDL
MODEL 8
REMARK VINA RESULT:      -6.2      1.085      2.557
REMARK  Name = 
REMARK  8 active torsions:
REMARK  status: ('A' for Active; 'I' for Inactive)
REMARK    1  A    between atoms: C_1  and  C_2
REMARK    2  A    between atoms: C_2  and  C_4
REMARK    3  A    between atoms: C_5  and  O_6
REMARK    4  A    between atoms: C_8  and  O_9
REMARK    5  A    between atoms: O_9  and  C_10
REMARK    6  A    between atoms: C_10  and  C_11
REMARK    7  A    between atoms: C_11  and  O_13
REMARK    8  A    between atoms: C_15  and  O_16
REMARK                            x       y       z     vdW  Elec       q    Type
REMARK                         _______ _______ _______ _____ _____    ______ ____
ROOT
ATOM      1  C   UNL     1       2.527   3.683  19.219  0.00  0.00    +0.000 A 
ATOM      2  C   UNL     1       3.022   4.966  19.512  0.00  0.00    +0.000 A 
ATOM      3  C   UNL     1       3.951   5.592  18.678  0.00  0.00    +0.000 A 
ATOM      4  C   UNL     1       4.448   4.926  17.562  0.00  0.00    +0.000 A 
ATOM      5  C   UNL     1       3.981   3.644  17.263  0.00  0.00    +0.000 A 
ATOM      6  C   UNL     1       3.027   3.031  18.086  0.00  0.00    +0.000 A 
ENDROOT
BRANCH   1   8
ATOM      7  C   UNL     1       1.878   2.671  21.537  0.00  0.00    +0.000 C 
ATOM      8  C   UNL     1       1.508   3.092  20.137  0.00  0.00    +0.000 C 
ATOM      9  O   UNL     1       0.385   2.860  19.682  0.00  0.00    +0.000 OA
ENDBRANCH   1   8
BRANCH   2  10
ATOM     10  O   UNL     1       2.640   5.685  20.616  0.00  0.00    +0.000 OA
ATOM     11  H   UNL     1       2.314   6.562  20.307  0.00  0.00    +0.000 HD
ENDBRANCH   2  10
BRANCH   6  12
ATOM     12  O   UNL     1       2.622   1.763  17.769  0.00  0.00    +0.000 OA
ATOM     13  H   UNL     1       2.048   1.775  16.985  0.00  0.00    +0.000 HD
ENDBRANCH   6  12
BRANCH   4  14
ATOM     14  O   UNL     1       5.351   5.626  16.807  0.00  0.00    +0.000 OA
BRANCH  14  15
ATOM     15  C   UNL     1       6.468   6.161  17.527  0.00  0.00    +0.000 C 
BRANCH  15  16
ATOM     16  C   UNL     1       7.491   5.058  17.736  0.00  0.00    +0.000 C 
ATOM     17  O   UNL     1       7.926   4.356  16.835  0.00  0.00    +0.000 OA
BRANCH  16  18
ATOM     18  O   UNL     1       7.893   4.931  19.023  0.00  0.00    +0.000 OA
ATOM     19  H   UNL     1       8.805   5.283  19.123  0.00  0.00    +0.000 HD
ENDBRANCH  16  18
ENDBRANCH  15  16
ENDBRANCH  14  15
ENDBRANCH   4  14
TORSDOF 7
ENDMDL
MODEL 9
REMARK VINA RESULT:      -6.1      0.898      1.242
REMARK  Name = 
REMARK  8 active torsions:
REMARK  status: ('A' for Active; 'I' for Inactive)
REMARK    1  A    between atoms: C_1  and  C_2
REMARK    2  A    between atoms: C_2  and  C_4
REMARK    3  A    between atoms: C_5  and  O_6
REMARK    4  A    between atoms: C_8  and  O_9
REMARK    5  A    between atoms: O_9  and  C_10
REMARK    6  A    between atoms: C_10  and  C_11
REMARK    7  A    between atoms: C_11  and  O_13
REMARK    8  A    between atoms: C_15  and  O_16
REMARK                            x       y       z     vdW  Elec       q    Type
REMARK                         _______ _______ _______ _____ _____    ______ ____
ROOT
ATOM      1  C   UNL     1       3.008   3.801  19.198  0.00  0.00    +0.000 A 
ATOM      2  C   UNL     1       3.268   3.108  18.002  0.00  0.00    +0.000 A 
ATOM      3  C   UNL     1       3.947   3.718  16.945  0.00  0.00    +0.000 A 
ATOM      4  C   UNL     1       4.331   5.052  17.038  0.00  0.00    +0.000 A 
ATOM      5  C   UNL     1       4.067   5.763  18.211  0.00  0.00    +0.000 A 
ATOM      6  C   UNL     1       3.412   5.138  19.282  0.00  0.00    +0.000 A 
ENDROOT
BRANCH   1   8
ATOM      7  C   UNL     1       0.805   2.983  20.336  0.00  0.00    +0.000 C 
ATOM      8  C   UNL     1       2.309   3.072  20.298  0.00  0.00    +0.000 C 
ATOM      9  O   UNL     1       2.993   2.640  21.230  0.00  0.00    +0.000 OA
ENDBRANCH   1   8
BRANCH   2  10
ATOM     10  O   UNL     1       2.883   1.810  17.786  0.00  0.00    +0.000 OA
ATOM     11  H   UNL     1       3.359   1.482  16.988  0.00  0.00    +0.000 HD
ENDBRANCH   2  10
BRANCH   6  12
ATOM     12  O   UNL     1       3.148   5.883  20.398  0.00  0.00    +0.000 OA
ATOM     13  H   UNL     1       3.423   5.405  21.198  0.00  0.00    +0.000 HD
ENDBRANCH   6  12
BRANCH   4  14
ATOM     14  O   UNL     1       4.993   5.557  15.951  0.00  0.00    +0.000 OA
BRANCH  14  15
ATOM     15  C   UNL     1       5.664   4.587  15.137  0.00  0.00    +0.000 C 
BRANCH  15  16
ATOM     16  C   UNL     1       7.153   4.887  15.146  0.00  0.00    +0.000 C 
ATOM     17  O   UNL     1       7.737   5.452  14.233  0.00  0.00    +0.000 OA
BRANCH  16  18
ATOM     18  O   UNL     1       7.779   4.480  16.276  0.00  0.00    +0.000 OA
ATOM     19  H   UNL     1       7.297   4.816  17.063  0.00  0.00    +0.000 HD
ENDBRANCH  16  18
ENDBRANCH  15  16
ENDBRANCH  14  15
ENDBRANCH   4  14
TORSDOF 7
ENDMDL
