MODEL 1
REMARK VINA RESULT:      -7.7      0.000      0.000
REMARK  Name = 
REMARK  8 active torsions:
REMARK  status: ('A' for Active; 'I' for Inactive)
REMARK    1  A    between atoms: C_1  and  O_2
REMARK    2  A    between atoms: O_2  and  C_3
REMARK    3  A    between atoms: C_8  and  C_9
REMARK    4  A    between atoms: C_10  and  C_11
REMARK    5  A    between atoms: C_17  and  O_18
REMARK    6  A    between atoms: O_18  and  C_19
REMARK    7  A    between atoms: C_19  and  C_20
REMARK    8  A    between atoms: C_20  and  O_22
REMARK                            x       y       z     vdW  Elec       q    Type
REMARK                         _______ _______ _______ _____ _____    ______ ____
ROOT
ATOM      1  C   UNL     1       5.419   4.463  15.500  0.00  0.00    +0.000 A 
ATOM      2  C   UNL     1       5.238   3.769  14.301  0.00  0.00    +0.000 A 
ATOM      3  C   UNL     1       6.209   3.835  13.299  0.00  0.00    +0.000 A 
ATOM      4 CL   UNL     1       6.019   2.933  11.848  0.00  0.00    +0.000 Cl
ATOM      5  C   UNL     1       7.340   4.628  13.468  0.00  0.00    +0.000 A 
ATOM      6  C   UNL     1       7.523   5.331  14.658  0.00  0.00    +0.000 A 
ATOM      7  C   UNL     1       6.592   5.217  15.701  0.00  0.00    +0.000 A 
ENDROOT
BRANCH   1   9
ATOM      8  C   UNL     1       3.584   4.298  17.391  0.00  0.00    +0.000 C 
ATOM      9  C   UNL     1       4.407   4.380  16.519  0.00  0.00    +0.000 C 
BRANCH   8  15
ATOM     10  C   UNL     1       2.489   5.114  19.473  0.00  0.00    +0.000 A 
ATOM     11  C   UNL     1       1.599   4.877  20.529  0.00  0.00    +0.000 A 
ATOM     12  C   UNL     1       0.903   3.669  20.615  0.00  0.00    +0.000 A 
ATOM     13  C   UNL     1       1.066   2.702  19.626  0.00  0.00    +0.000 A 
ATOM     14  C   UNL     1       1.927   2.942  18.553  0.00  0.00    +0.000 A 
ATOM     15  C   UNL     1       2.647   4.140  18.472  0.00  0.00    +0.000 A 
BRANCH  10  17
ATOM     16  C   UNL     1       2.418   7.433  19.042  0.00  0.00    +0.000 C 
ATOM     17  O   UNL     1       3.201   6.282  19.346  0.00  0.00    +0.000 OA
ENDBRANCH  10  17
ENDBRANCH   8  15
ENDBRANCH   1   9
BRANCH   7  18
ATOM     18  O   UNL     1       6.773   5.809  16.935  0.00  0.00    +0.000 OA
BRANCH  18  19
ATOM     19  C   UNL     1       7.577   5.051  17.845  0.00  0.00    +0.000 C 
BRANCH  19  20
ATOM     20  C   UNL     1       7.800   5.794  19.150  0.00  0.00    +0.000 C 
ATOM     21  O   UNL     1       7.439   5.369  20.238  0.00  0.00    +0.000 OA
BRANCH  20  22
ATOM     22  O   UNL     1       8.434   6.979  18.999  0.00  0.00    +0.000 OA
ATOM     23  H   UNL     1       8.179   7.395  18.149  0.00  0.00    +0.000 HD
ENDBRANCH  20  22
ENDBRANCH  19  20
ENDBRANCH  18  19
ENDBRANCH   7  18
TORSDOF 7
ENDMDL
MODEL 2
REMARK VINA RESULT:      -7.5      1.161      1.986
REMARK  Name = 
REMARK  8 active torsions:
REMARK  status: ('A' for Active; 'I' for Inactive)
REMARK    1  A    between atoms: C_1  and  O_2
REMARK    2  A    between atoms: O_2  and  C_3
REMARK    3  A    between atoms: C_8  and  C_9
REMARK    4  A    between atoms: C_10  and  C_11
REMARK    5  A    between atoms: C_17  and  O_18
REMARK    6  A    between atoms: O_18  and  C_19
REMARK    7  A    between atoms: C_19  and  C_20
REMARK    8  A    between atoms: C_20  and  O_22
REMARK                            x       y       z     vdW  Elec       q    Type
REMARK                         _______ _______ _______ _____ _____    ______ ____
ROOT
ATOM      1  C   UNL     1       5.614   4.457  15.366  0.00  0.00    +0.000 A 
ATOM      2  C   UNL     1       5.243   3.720  14.238  0.00  0.00    +0.000 A 
ATOM      3  C   UNL     1       6.058   3.714  13.104  0.00  0.00    +0.000 A 
ATOM      4 CL   UNL     1       5.637   2.760  11.738  0.00  0.00    +0.000 Cl
ATOM      5  C   UNL     1       7.222   4.478  13.072  0.00  0.00    +0.000 A 
ATOM      6  C   UNL     1       7.593   5.223  14.190  0.00  0.00    +0.000 A 
ATOM      7  C   UNL     1       6.822   5.181  15.361  0.00  0.00    +0.000 A 
ENDROOT
BRANCH   1   9
ATOM      8  C   UNL     1       4.019   4.434  17.471  0.00  0.00    +0.000 C 
ATOM      9  C   UNL     1       4.759   4.447  16.523  0.00  0.00    +0.000 C 
BRANCH   8  15
ATOM     10  C   UNL     1       2.251   3.327  18.828  0.00  0.00    +0.000 A 
ATOM     11  C   UNL     1       1.307   3.409  19.861  0.00  0.00    +0.000 A 
ATOM     12  C   UNL     1       1.147   4.594  20.585  0.00  0.00    +0.000 A 
ATOM     13  C   UNL     1       1.954   5.693  20.305  0.00  0.00    +0.000 A 
ATOM     14  C   UNL     1       2.919   5.610  19.299  0.00  0.00    +0.000 A 
ATOM     15  C   UNL     1       3.069   4.435  18.551  0.00  0.00    +0.000 A 
BRANCH  10  17
ATOM     16  C   UNL     1       3.485   1.335  18.548  0.00  0.00    +0.000 C 
ATOM     17  O   UNL     1       2.442   2.188  18.084  0.00  0.00    +0.000 OA
ENDBRANCH  10  17
ENDBRANCH   8  15
ENDBRANCH   1   9
BRANCH   7  18
ATOM     18  O   UNL     1       7.195   5.817  16.527  0.00  0.00    +0.000 OA
BRANCH  18  19
ATOM     19  C   UNL     1       7.649   4.939  17.563  0.00  0.00    +0.000 C 
BRANCH  19  20
ATOM     20  C   UNL     1       7.501   5.568  18.937  0.00  0.00    +0.000 C 
ATOM     21  O   UNL     1       6.681   5.195  19.764  0.00  0.00    +0.000 OA
BRANCH  20  22
ATOM     22  O   UNL     1       8.360   6.587  19.163  0.00  0.00    +0.000 OA
ATOM     23  H   UNL     1       8.602   6.624  20.112  0.00  0.00    +0.000 HD
ENDBRANCH  20  22
ENDBRANCH  19  20
ENDBRANCH  18  19
ENDBRANCH   7  18
TORSDOF 7
ENDMDL
MODEL 3
REMARK VINA RESULT:      -7.5      1.456      1.954
REMARK  Name = 
REMARK  8 active torsions:
REMARK  status: ('A' for Active; 'I' for Inactive)
REMARK    1  A    between atoms: C_1  and  O_2
REMARK    2  A    between atoms: O_2  and  C_3
REMARK    3  A    between atoms: C_8  and  C_9
REMARK    4  A    between atoms: C_10  and  C_11
REMARK    5  A    between atoms: C_17  and  O_18
REMARK    6  A    between atoms: O_18  and  C_19
REMARK    7  A    between atoms: C_19  and  C_20
REMARK    8  A    between atoms: C_20  and  O_22
REMARK                            x       y       z     vdW  Elec       q    Type
REMARK                         _______ _______ _______ _____ _____    ______ ____
ROOT
ATOM      1  C   UNL     1       5.577   4.241  15.694  0.00  0.00    +0.000 A 
ATOM      2  C   UNL     1       5.322   3.517  14.526  0.00  0.00    +0.000 A 
ATOM      3  C   UNL     1       6.091   3.738  13.381  0.00  0.00    +0.000 A 
ATOM      4 CL   UNL     1       5.821   2.805  11.962  0.00  0.00    +0.000 Cl
ATOM      5  C   UNL     1       7.086   4.711  13.380  0.00  0.00    +0.000 A 
ATOM      6  C   UNL     1       7.340   5.444  14.539  0.00  0.00    +0.000 A 
ATOM      7  C   UNL     1       6.624   5.183  15.717  0.00  0.00    +0.000 A 
ENDROOT
BRANCH   1   9
ATOM      8  C   UNL     1       4.074   3.793  17.818  0.00  0.00    +0.000 C 
ATOM      9  C   UNL     1       4.773   3.997  16.861  0.00  0.00    +0.000 C 
BRANCH   8  15
ATOM     10  C   UNL     1       3.562   2.897  20.083  0.00  0.00    +0.000 A 
ATOM     11  C   UNL     1       2.621   2.673  21.097  0.00  0.00    +0.000 A 
ATOM     12  C   UNL     1       1.295   3.085  20.940  0.00  0.00    +0.000 A 
ATOM     13  C   UNL     1       0.909   3.755  19.783  0.00  0.00    +0.000 A 
ATOM     14  C   UNL     1       1.847   4.011  18.780  0.00  0.00    +0.000 A 
ATOM     15  C   UNL     1       3.172   3.579  18.918  0.00  0.00    +0.000 A 
BRANCH  10  17
ATOM     16  C   UNL     1       5.089   1.303  20.918  0.00  0.00    +0.000 C 
ATOM     17  O   UNL     1       4.875   2.506  20.186  0.00  0.00    +0.000 OA
ENDBRANCH  10  17
ENDBRANCH   8  15
ENDBRANCH   1   9
BRANCH   7  18
ATOM     18  O   UNL     1       6.901   5.807  16.916  0.00  0.00    +0.000 OA
BRANCH  18  19
ATOM     19  C   UNL     1       7.605   4.992  17.860  0.00  0.00    +0.000 C 
BRANCH  19  20
ATOM     20  C   UNL     1       7.860   5.733  19.160  0.00  0.00    +0.000 C 
ATOM     21  O   UNL     1       7.613   5.265  20.262  0.00  0.00    +0.000 OA
BRANCH  20  22
ATOM     22  O   UNL     1       8.386   6.967  18.988  0.00  0.00    +0.000 OA
ATOM     23  H   UNL     1       8.690   7.081  18.064  0.00  0.00    +0.000 HD
ENDBRANCH  20  22
ENDBRANCH  19  20
ENDBRANCH  18  19
ENDBRANCH   7  18
TORSDOF 7
ENDMDL
MODEL 4
REMARK VINA RESULT:      -7.3      1.704      2.301
REMARK  Name = 
REMARK  8 active torsions:
REMARK  status: ('A' for Active; 'I' for Inactive)
REMARK    1  A    between atoms: C_1  and  O_2
REMARK    2  A    between atoms: O_2  and  C_3
REMARK    3  A    between atoms: C_8  and  C_9
REMARK    4  A    between atoms: C_10  and  C_11
REMARK    5  A    between atoms: C_17  and  O_18
REMARK    6  A    between atoms: O_18  and  C_19
REMARK    7  A    between atoms: C_19  and  C_20
REMARK    8  A    between atoms: C_20  and  O_22
REMARK                            x       y       z     vdW  Elec       q    Type
REMARK                         _______ _______ _______ _____ _____    ______ ____
ROOT
ATOM      1  C   UNL     1       5.613   4.354  15.814  0.00  0.00    +0.000 A 
ATOM      2  C   UNL     1       5.251   3.727  14.618  0.00  0.00    +0.000 A 
ATOM      3  C   UNL     1       6.036   3.892  13.475  0.00  0.00    +0.000 A 
ATOM      4 CL   UNL     1       5.630   3.073  12.019  0.00  0.00    +0.000 Cl
ATOM      5  C   UNL     1       7.158   4.717  13.505  0.00  0.00    +0.000 A 
ATOM      6  C   UNL     1       7.519   5.352  14.692  0.00  0.00    +0.000 A 
ATOM      7  C   UNL     1       6.782   5.138  15.866  0.00  0.00    +0.000 A 
ENDROOT
BRANCH   1   9
ATOM      8  C   UNL     1       4.091   3.987  17.941  0.00  0.00    +0.000 C 
ATOM      9  C   UNL     1       4.790   4.169  16.979  0.00  0.00    +0.000 C 
BRANCH   8  15
ATOM     10  C   UNL     1       3.560   2.853  20.092  0.00  0.00    +0.000 A 
ATOM     11  C   UNL     1       2.632   2.590  21.109  0.00  0.00    +0.000 A 
ATOM     12  C   UNL     1       1.351   3.147  21.065  0.00  0.00    +0.000 A 
ATOM     13  C   UNL     1       1.000   3.999  20.021  0.00  0.00    +0.000 A 
ATOM     14  C   UNL     1       1.928   4.292  19.019  0.00  0.00    +0.000 A 
ATOM     15  C   UNL     1       3.207   3.719  19.042  0.00  0.00    +0.000 A 
BRANCH  10  17
ATOM     16  C   UNL     1       5.071   1.331  21.077  0.00  0.00    +0.000 C 
ATOM     17  O   UNL     1       4.828   2.326  20.086  0.00  0.00    +0.000 OA
ENDBRANCH  10  17
ENDBRANCH   8  15
ENDBRANCH   1   9
BRANCH   7  18
ATOM     18  O   UNL     1       7.151   5.660  17.089  0.00  0.00    +0.000 OA
BRANCH  18  19
ATOM     19  C   UNL     1       6.879   7.057  17.244  0.00  0.00    +0.000 C 
BRANCH  19  20
ATOM     20  C   UNL     1       7.947   7.750  18.071  0.00  0.00    +0.000 C 
ATOM     21  O   UNL     1       8.311   8.900  17.876  0.00  0.00    +0.000 OA
BRANCH  20  22
ATOM     22  O   UNL     1       8.467   6.971  19.047  0.00  0.00    +0.000 OA
ATOM     23  H   UNL     1       8.149   6.049  18.953  0.00  0.00    +0.000 HD
ENDBRANCH  20  22
ENDBRANCH  19  20
ENDBRANCH  18  19
ENDBRANCH   7  18
TORSDOF 7
ENDMDL
MODEL 5
REMARK VINA RESULT:      -7.3      2.592      6.056
REMARK  Name = 
REMARK  8 active torsions:
REMARK  status: ('A' for Active; 'I' for Inactive)
REMARK    1  A    between atoms: C_1  and  O_2
REMARK    2  A    between atoms: O_2  and  C_3
REMARK    3  A    between atoms: C_8  and  C_9
REMARK    4  A    between atoms: C_10  and  C_11
REMARK    5  A    between atoms: C_17  and  O_18
REMARK    6  A    between atoms: O_18  and  C_19
REMARK    7  A    between atoms: C_19  and  C_20
REMARK    8  A    between atoms: C_20  and  O_22
REMARK                            x       y       z     vdW  Elec       q    Type
REMARK                         _______ _______ _______ _____ _____    ______ ____
ROOT
ATOM      1  C   UNL     1       4.052   3.331  17.798  0.00  0.00    +0.000 A 
ATOM      2  C   UNL     1       2.715   2.926  17.751  0.00  0.00    +0.000 A 
ATOM      3  C   UNL     1       2.031   2.626  18.931  0.00  0.00    +0.000 A 
ATOM      4 CL   UNL     1       0.369   2.188  18.882  0.00  0.00    +0.000 Cl
ATOM      5  C   UNL     1       2.687   2.682  20.157  0.00  0.00    +0.000 A 
ATOM      6  C   UNL     1       4.024   3.077  20.211  0.00  0.00    +0.000 A 
ATOM      7  C   UNL     1       4.702   3.451  19.042  0.00  0.00    +0.000 A 
ENDROOT
BRANCH   1   9
ATOM      8  C   UNL     1       5.334   3.872  15.553  0.00  0.00    +0.000 C 
ATOM      9  C   UNL     1       4.737   3.636  16.571  0.00  0.00    +0.000 C 
BRANCH   8  15
ATOM     10  C   UNL     1       7.135   5.096  14.349  0.00  0.00    +0.000 A 
ATOM     11  C   UNL     1       7.828   5.335  13.154  0.00  0.00    +0.000 A 
ATOM     12  C   UNL     1       7.487   4.649  11.985  0.00  0.00    +0.000 A 
ATOM     13  C   UNL     1       6.474   3.694  12.011  0.00  0.00    +0.000 A 
ATOM     14  C   UNL     1       5.800   3.426  13.204  0.00  0.00    +0.000 A 
ATOM     15  C   UNL     1       6.118   4.127  14.375  0.00  0.00    +0.000 A 
BRANCH  10  17
ATOM     16  C   UNL     1       6.465   6.713  15.931  0.00  0.00    +0.000 C 
ATOM     17  O   UNL     1       7.429   5.747  15.523  0.00  0.00    +0.000 OA
ENDBRANCH  10  17
ENDBRANCH   8  15
ENDBRANCH   1   9
BRANCH   7  18
ATOM     18  O   UNL     1       5.991   3.943  19.049  0.00  0.00    +0.000 OA
BRANCH  18  19
ATOM     19  C   UNL     1       6.092   5.340  19.344  0.00  0.00    +0.000 C 
BRANCH  19  20
ATOM     20  C   UNL     1       7.532   5.768  19.556  0.00  0.00    +0.000 C 
ATOM     21  O   UNL     1       8.137   6.504  18.790  0.00  0.00    +0.000 OA
BRANCH  20  22
ATOM     22  O   UNL     1       8.092   5.253  20.674  0.00  0.00    +0.000 OA
ATOM     23  H   UNL     1       7.888   5.818  21.447  0.00  0.00    +0.000 HD
ENDBRANCH  20  22
ENDBRANCH  19  20
ENDBRANCH  18  19
ENDBRANCH   7  18
TORSDOF 7
ENDMDL
MODEL 6
REMARK VINA RESULT:      -7.2      1.206      1.451
REMARK  Name = 
REMARK  8 active torsions:
REMARK  status: ('A' for Active; 'I' for Inactive)
REMARK    1  A    between atoms: C_1  and  O_2
REMARK    2  A    between atoms: O_2  and  C_3
REMARK    3  A    between atoms: C_8  and  C_9
REMARK    4  A    between atoms: C_10  and  C_11
REMARK    5  A    between atoms: C_17  and  O_18
REMARK    6  A    between atoms: O_18  and  C_19
REMARK    7  A    between atoms: C_19  and  C_20
REMARK    8  A    between atoms: C_20  and  O_22
REMARK                            x       y       z     vdW  Elec       q    Type
REMARK                         _______ _______ _______ _____ _____    ______ ____
ROOT
ATOM      1  C   UNL     1       5.666   4.218  15.642  0.00  0.00    +0.000 A 
ATOM      2  C   UNL     1       5.223   3.621  14.458  0.00  0.00    +0.000 A 
ATOM      3  C   UNL     1       5.960   3.767  13.281  0.00  0.00    +0.000 A 
ATOM      4 CL   UNL     1       5.453   2.982  11.837  0.00  0.00    +0.000 Cl
ATOM      5  C   UNL     1       7.116   4.544  13.266  0.00  0.00    +0.000 A 
ATOM      6  C   UNL     1       7.558   5.149  14.442  0.00  0.00    +0.000 A 
ATOM      7  C   UNL     1       6.867   4.953  15.647  0.00  0.00    +0.000 A 
ENDROOT
BRANCH   1   9
ATOM      8  C   UNL     1       4.217   3.925  17.830  0.00  0.00    +0.000 C 
ATOM      9  C   UNL     1       4.891   4.054  16.842  0.00  0.00    +0.000 C 
BRANCH   8  15
ATOM     10  C   UNL     1       2.348   4.767  19.242  0.00  0.00    +0.000 A 
ATOM     11  C   UNL     1       1.574   4.638  20.403  0.00  0.00    +0.000 A 
ATOM     12  C   UNL     1       1.819   3.605  21.311  0.00  0.00    +0.000 A 
ATOM     13  C   UNL     1       2.817   2.671  21.047  0.00  0.00    +0.000 A 
ATOM     14  C   UNL     1       3.574   2.772  19.877  0.00  0.00    +0.000 A 
ATOM     15  C   UNL     1       3.351   3.820  18.974  0.00  0.00    +0.000 A 
BRANCH  10  17
ATOM     16  C   UNL     1       2.610   7.055  18.726  0.00  0.00    +0.000 C 
ATOM     17  O   UNL     1       2.151   5.768  18.322  0.00  0.00    +0.000 OA
ENDBRANCH  10  17
ENDBRANCH   8  15
ENDBRANCH   1   9
BRANCH   7  18
ATOM     18  O   UNL     1       7.315   5.445  16.855  0.00  0.00    +0.000 OA
BRANCH  18  19
ATOM     19  C   UNL     1       6.737   6.698  17.236  0.00  0.00    +0.000 C 
BRANCH  19  20
ATOM     20  C   UNL     1       7.775   7.642  17.816  0.00  0.00    +0.000 C 
ATOM     21  O   UNL     1       8.014   8.748  17.355  0.00  0.00    +0.000 OA
BRANCH  20  22
ATOM     22  O   UNL     1       8.420   7.143  18.895  0.00  0.00    +0.000 OA
ATOM     23  H   UNL     1       9.266   7.616  19.036  0.00  0.00    +0.000 HD
ENDBRANCH  20  22
ENDBRANCH  19  20
ENDBRANCH  18  19
ENDBRANCH   7  18
TORSDOF 7
ENDMDL
MODEL 7
REMARK VINA RESULT:      -7.1      3.649      6.176
REMARK  Name = 
REMARK  8 active torsions:
REMARK  status: ('A' for Active; 'I' for Inactive)
REMARK    1  A    between atoms: C_1  and  O_2
REMARK    2  A    between atoms: O_2  and  C_3
REMARK    3  A    between atoms: C_8  and  C_9
REMARK    4  A    between atoms: C_10  and  C_11
REMARK    5  A    between atoms: C_17  and  O_18
REMARK    6  A    between atoms: O_18  and  C_19
REMARK    7  A    between atoms: C_19  and  C_20
REMARK    8  A    between atoms: C_20  and  O_22
REMARK                            x       y       z     vdW  Elec       q    Type
REMARK                         _______ _______ _______ _____ _____    ______ ____
ROOT
ATOM      1  C   UNL     1       2.741   6.556  18.965  0.00  0.00    +0.000 A 
ATOM      2  C   UNL     1       3.527   6.970  17.886  0.00  0.00    +0.000 A 
ATOM      3  C   UNL     1       4.243   6.031  17.139  0.00  0.00    +0.000 A 
ATOM      4 CL   UNL     1       5.162   6.529  15.774  0.00  0.00    +0.000 Cl
ATOM      5  C   UNL     1       4.216   4.685  17.491  0.00  0.00    +0.000 A 
ATOM      6  C   UNL     1       3.441   4.266  18.571  0.00  0.00    +0.000 A 
ATOM      7  C   UNL     1       2.660   5.186  19.286  0.00  0.00    +0.000 A 
ENDROOT
BRANCH   1   9
ATOM      8  C   UNL     1       1.377   8.338  20.356  0.00  0.00    +0.000 C 
ATOM      9  C   UNL     1       2.011   7.539  19.719  0.00  0.00    +0.000 C 
BRANCH   8  15
ATOM     10  C   UNL     1      -0.015  10.395  20.519  0.00  0.00    +0.000 A 
ATOM     11  C   UNL     1      -0.768  11.271  21.313  0.00  0.00    +0.000 A 
ATOM     12  C   UNL     1      -0.925  11.034  22.681  0.00  0.00    +0.000 A 
ATOM     13  C   UNL     1      -0.360   9.900  23.258  0.00  0.00    +0.000 A 
ATOM     14  C   UNL     1       0.365   9.005  22.469  0.00  0.00    +0.000 A 
ATOM     15  C   UNL     1       0.549   9.248  21.101  0.00  0.00    +0.000 A 
BRANCH  10  17
ATOM     16  C   UNL     1      -1.009  10.503  18.381  0.00  0.00    +0.000 C 
ATOM     17  O   UNL     1       0.173  10.587  19.172  0.00  0.00    +0.000 OA
ENDBRANCH  10  17
ENDBRANCH   8  15
ENDBRANCH   1   9
BRANCH   7  18
ATOM     18  O   UNL     1       1.799   4.813  20.298  0.00  0.00    +0.000 OA
BRANCH  18  19
ATOM     19  C   UNL     1       1.443   3.426  20.292  0.00  0.00    +0.000 C 
BRANCH  19  20
ATOM     20  C   UNL     1       1.891   2.726  21.563  0.00  0.00    +0.000 C 
ATOM     21  O   UNL     1       1.133   2.438  22.477  0.00  0.00    +0.000 OA
BRANCH  20  22
ATOM     22  O   UNL     1       3.215   2.453  21.594  0.00  0.00    +0.000 OA
ATOM     23  H   UNL     1       3.494   2.026  20.757  0.00  0.00    +0.000 HD
ENDBRANCH  20  22
ENDBRANCH  19  20
ENDBRANCH  18  19
ENDBRANCH   7  18
TORSDOF 7
ENDMDL
MODEL 8
REMARK VINA RESULT:      -7.1      3.684      6.237
REMARK  Name = 
REMARK  8 active torsions:
REMARK  status: ('A' for Active; 'I' for Inactive)
REMARK    1  A    between atoms: C_1  and  O_2
REMARK    2  A    between atoms: O_2  and  C_3
REMARK    3  A    between atoms: C_8  and  C_9
REMARK    4  A    between atoms: C_10  and  C_11
REMARK    5  A    between atoms: C_17  and  O_18
REMARK    6  A    between atoms: O_18  and  C_19
REMARK    7  A    between atoms: C_19  and  C_20
REMARK    8  A    between atoms: C_20  and  O_22
REMARK                            x       y       z     vdW  Elec       q    Type
REMARK                         _______ _______ _______ _____ _____    ______ ____
ROOT
ATOM      1  C   UNL     1       2.717   6.705  18.836  0.00  0.00    +0.000 A 
ATOM      2  C   UNL     1       3.557   7.132  17.804  0.00  0.00    +0.000 A 
ATOM      3  C   UNL     1       4.223   6.196  17.009  0.00  0.00    +0.000 A 
ATOM      4 CL   UNL     1       5.209   6.716  15.700  0.00  0.00    +0.000 Cl
ATOM      5  C   UNL     1       4.091   4.834  17.266  0.00  0.00    +0.000 A 
ATOM      6  C   UNL     1       3.262   4.402  18.300  0.00  0.00    +0.000 A 
ATOM      7  C   UNL     1       2.530   5.327  19.060  0.00  0.00    +0.000 A 
ENDROOT
BRANCH   1   9
ATOM      8  C   UNL     1       1.445   8.496  20.302  0.00  0.00    +0.000 C 
ATOM      9  C   UNL     1       2.040   7.685  19.641  0.00  0.00    +0.000 C 
BRANCH   8  15
ATOM     10  C   UNL     1       0.554  10.797  20.624  0.00  0.00    +0.000 A 
ATOM     11  C   UNL     1      -0.172  11.700  21.413  0.00  0.00    +0.000 A 
ATOM     12  C   UNL     1      -0.741  11.291  22.621  0.00  0.00    +0.000 A 
ATOM     13  C   UNL     1      -0.619   9.966  23.033  0.00  0.00    +0.000 A 
ATOM     14  C   UNL     1       0.075   9.051  22.237  0.00  0.00    +0.000 A 
ATOM     15  C   UNL     1       0.670   9.459  21.037  0.00  0.00    +0.000 A 
BRANCH  10  17
ATOM     16  C   UNL     1       0.753  12.429  18.931  0.00  0.00    +0.000 C 
ATOM     17  O   UNL     1       1.137  11.151  19.432  0.00  0.00    +0.000 OA
ENDBRANCH  10  17
ENDBRANCH   8  15
ENDBRANCH   1   9
BRANCH   7  18
ATOM     18  O   UNL     1       1.621   4.950  20.026  0.00  0.00    +0.000 OA
BRANCH  18  19
ATOM     19  C   UNL     1       2.206   4.561  21.273  0.00  0.00    +0.000 C 
BRANCH  19  20
ATOM     20  C   UNL     1       1.960   3.094  21.577  0.00  0.00    +0.000 C 
ATOM     21  O   UNL     1       2.800   2.357  22.072  0.00  0.00    +0.000 OA
BRANCH  20  22
ATOM     22  O   UNL     1       0.720   2.671  21.242  0.00  0.00    +0.000 OA
ATOM     23  H   UNL     1       0.069   2.961  21.914  0.00  0.00    +0.000 HD
ENDBRANCH  20  22
ENDBRANCH  19  20
ENDBRANCH  18  19
ENDBRANCH   7  18
TORSDOF 7
ENDMDL
MODEL 9
REMARK VINA RESULT:      -7.1      3.270      5.734
REMARK  Name = 
REMARK  8 active torsions:
REMARK  status: ('A' for Active; 'I' for Inactive)
REMARK    1  A    between atoms: C_1  and  O_2
REMARK    2  A    between atoms: O_2  and  C_3
REMARK    3  A    between atoms: C_8  and  C_9
REMARK    4  A    between atoms: C_10  and  C_11
REMARK    5  A    between atoms: C_17  and  O_18
REMARK    6  A    between atoms: O_18  and  C_19
REMARK    7  A    between atoms: C_19  and  C_20
REMARK    8  A    between atoms: C_20  and  O_22
REMARK                            x       y       z     vdW  Elec       q    Type
REMARK                         _______ _______ _______ _____ _____    ______ ____
ROOT
ATOM      1  C   UNL     1       3.354   6.078  18.727  0.00  0.00    +0.000 A 
ATOM      2  C   UNL     1       3.900   6.405  17.483  0.00  0.00    +0.000 A 
ATOM      3  C   UNL     1       4.732   5.500  16.822  0.00  0.00    +0.000 A 
ATOM      4 CL   UNL     1       5.355   5.873  15.264  0.00  0.00    +0.000 Cl
ATOM      5  C   UNL     1       5.061   4.284  17.416  0.00  0.00    +0.000 A 
ATOM      6  C   UNL     1       4.528   3.955  18.661  0.00  0.00    +0.000 A 
ATOM      7  C   UNL     1       3.633   4.823  19.304  0.00  0.00    +0.000 A 
ENDROOT
BRANCH   1   9
ATOM      8  C   UNL     1       1.808   7.824  19.966  0.00  0.00    +0.000 C 
ATOM      9  C   UNL     1       2.499   7.025  19.390  0.00  0.00    +0.000 C 
BRANCH   8  15
ATOM     10  C   UNL     1       0.529   9.951  20.150  0.00  0.00    +0.000 A 
ATOM     11  C   UNL     1      -0.174  10.859  20.954  0.00  0.00    +0.000 A 
ATOM     12  C   UNL     1      -0.341  10.619  22.320  0.00  0.00    +0.000 A 
ATOM     13  C   UNL     1       0.164   9.451  22.886  0.00  0.00    +0.000 A 
ATOM     14  C   UNL     1       0.838   8.525  22.087  0.00  0.00    +0.000 A 
ATOM     15  C   UNL     1       1.032   8.770  20.722  0.00  0.00    +0.000 A 
BRANCH  10  17
ATOM     16  C   UNL     1       1.583  11.231  18.472  0.00  0.00    +0.000 C 
ATOM     17  O   UNL     1       0.725  10.144  18.805  0.00  0.00    +0.000 OA
ENDBRANCH  10  17
ENDBRANCH   8  15
ENDBRANCH   1   9
BRANCH   7  18
ATOM     18  O   UNL     1       2.999   4.504  20.487  0.00  0.00    +0.000 OA
BRANCH  18  19
ATOM     19  C   UNL     1       2.794   3.102  20.692  0.00  0.00    +0.000 C 
BRANCH  19  20
ATOM     20  C   UNL     1       1.421   2.814  21.272  0.00  0.00    +0.000 C 
ATOM     21  O   UNL     1       1.245   2.326  22.378  0.00  0.00    +0.000 OA
BRANCH  20  22
ATOM     22  O   UNL     1       0.403   3.144  20.445  0.00  0.00    +0.000 OA
ATOM     23  H   UNL     1      -0.452   3.088  20.919  0.00  0.00    +0.000 HD
ENDBRANCH  20  22
ENDBRANCH  19  20
ENDBRANCH  18  19
ENDBRANCH   7  18
TORSDOF 7
ENDMDL
