MODEL 1
REMARK VINA RESULT:      -7.6      0.000      0.000
REMARK  Name = 
REMARK  7 active torsions:
REMARK  status: ('A' for Active; 'I' for Inactive)
REMARK    1  A    between atoms: C_1  and  N_2
REMARK    2  A    between atoms: C_3  and  C_5
REMARK    3  A    between atoms: C_5  and  N_6
REMARK    4  A    between atoms: N_9  and  C_10
REMARK    5  A    between atoms: C_10  and  C_11
REMARK    6  A    between atoms: C_18  and  C_19
REMARK    7  A    between atoms: C_18  and  C_20
REMARK                            x       y       z     vdW  Elec       q    Type
REMARK                         _______ _______ _______ _____ _____    ______ ____
ROOT
ATOM      1  N   UNL     1       8.194   7.915  18.330  0.00  0.00    +0.000 N 
ATOM      2  C   UNL     1       7.630   6.969  17.525  0.00  0.00    +0.000 C 
ATOM      3  O   UNL     1       6.929   7.240  16.557  0.00  0.00    +0.000 OA
ATOM      4  N   UNL     1       7.986   5.706  17.887  0.00  0.00    +0.000 N 
ATOM      5  H   UNL     1       9.060   7.654  18.781  0.00  0.00    +0.000 HD
ATOM      6  H   UNL     1       8.266   5.569  18.847  0.00  0.00    +0.000 HD
ENDROOT
BRANCH   1   7
ATOM      7  C   UNL     1       8.008   9.332  18.052  0.00  0.00    +0.000 C 
BRANCH   7  10
ATOM      8  C   UNL     1      10.763  11.948  18.348  0.00  0.00    +0.000 C 
ATOM      9  N   UNL     1       9.781  11.014  17.869  0.00  0.00    +0.000 N 
ATOM     10  C   UNL     1       9.074  10.201  18.728  0.00  0.00    +0.000 C 
ATOM     11  O   UNL     1       9.230  10.214  19.945  0.00  0.00    +0.000 OA
ATOM     12  H   UNL     1       9.487  11.050  16.892  0.00  0.00    +0.000 HD
ENDBRANCH   7  10
ENDBRANCH   1   7
BRANCH   4  13
ATOM     13  C   UNL     1       7.422   4.561  17.210  0.00  0.00    +0.000 C 
BRANCH  13  14
ATOM     14  C   UNL     1       6.019   4.387  17.686  0.00  0.00    +0.000 A 
ATOM     15  C   UNL     1       5.549   4.432  18.984  0.00  0.00    +0.000 A 
ATOM     16  C   UNL     1       4.133   4.242  19.065  0.00  0.00    +0.000 A 
ATOM     17  C   UNL     1       3.587   4.066  17.820  0.00  0.00    +0.000 A 
ATOM     18  S   UNL     1       4.753   4.096  16.575  0.00  0.00    +0.000 S 
ATOM     19  C   UNL     1       2.155   3.873  17.503  0.00  0.00    +0.000 C 
ATOM     20  C   UNL     1       1.241   3.824  18.730  0.00  0.00    +0.000 C 
ATOM     21  C   UNL     1       1.798   4.131  20.158  0.00  0.00    +0.000 C 
ATOM     22  C   UNL     1       1.170   5.453  20.657  0.00  0.00    +0.000 C 
ATOM     23  C   UNL     1       1.293   3.009  21.099  0.00  0.00    +0.000 C 
ATOM     24  C   UNL     1       3.342   4.228  20.326  0.00  0.00    +0.000 C 
ENDBRANCH  13  14
ENDBRANCH   4  13
TORSDOF 4
ENDMDL
MODEL 2
REMARK VINA RESULT:      -7.5      1.568      1.792
REMARK  Name = 
REMARK  7 active torsions:
REMARK  status: ('A' for Active; 'I' for Inactive)
REMARK    1  A    between atoms: C_1  and  N_2
REMARK    2  A    between atoms: C_3  and  C_5
REMARK    3  A    between atoms: C_5  and  N_6
REMARK    4  A    between atoms: N_9  and  C_10
REMARK    5  A    between atoms: C_10  and  C_11
REMARK    6  A    between atoms: C_18  and  C_19
REMARK    7  A    between atoms: C_18  and  C_20
REMARK                            x       y       z     vdW  Elec       q    Type
REMARK                         _______ _______ _______ _____ _____    ______ ____
ROOT
ATOM      1  N   UNL     1       7.995   9.071  17.633  0.00  0.00    +0.000 N 
ATOM      2  C   UNL     1       7.827   7.721  17.734  0.00  0.00    +0.000 C 
ATOM      3  O   UNL     1       8.317   7.048  18.633  0.00  0.00    +0.000 OA
ATOM      4  N   UNL     1       7.011   7.228  16.762  0.00  0.00    +0.000 N 
ATOM      5  H   UNL     1       7.248   9.578  17.180  0.00  0.00    +0.000 HD
ATOM      6  H   UNL     1       6.940   7.767  15.912  0.00  0.00    +0.000 HD
ENDROOT
BRANCH   1   7
ATOM      7  C   UNL     1       8.762   9.799  18.632  0.00  0.00    +0.000 C 
BRANCH   7  10
ATOM      8  C   UNL     1      11.189  12.557  17.617  0.00  0.00    +0.000 C 
ATOM      9  N   UNL     1      10.588  11.357  18.132  0.00  0.00    +0.000 N 
ATOM     10  C   UNL     1       9.222  11.171  18.126  0.00  0.00    +0.000 C 
ATOM     11  O   UNL     1       8.433  12.003  17.688  0.00  0.00    +0.000 OA
ATOM     12  H   UNL     1      11.179  10.561  18.371  0.00  0.00    +0.000 HD
ENDBRANCH   7  10
ENDBRANCH   1   7
BRANCH   4  13
ATOM     13  C   UNL     1       6.779   5.808  16.648  0.00  0.00    +0.000 C 
BRANCH  13  14
ATOM     14  C   UNL     1       5.554   5.475  17.432  0.00  0.00    +0.000 A 
ATOM     15  C   UNL     1       5.162   4.242  17.916  0.00  0.00    +0.000 A 
ATOM     16  C   UNL     1       3.934   4.301  18.647  0.00  0.00    +0.000 A 
ATOM     17  C   UNL     1       3.448   5.582  18.691  0.00  0.00    +0.000 A 
ATOM     18  S   UNL     1       4.428   6.692  17.845  0.00  0.00    +0.000 S 
ATOM     19  C   UNL     1       2.220   6.037  19.381  0.00  0.00    +0.000 C 
ATOM     20  C   UNL     1       1.426   4.916  20.054  0.00  0.00    +0.000 C 
ATOM     21  C   UNL     1       1.995   3.462  20.129  0.00  0.00    +0.000 C 
ATOM     22  C   UNL     1       2.306   3.130  21.607  0.00  0.00    +0.000 C 
ATOM     23  C   UNL     1       0.865   2.503  19.680  0.00  0.00    +0.000 C 
ATOM     24  C   UNL     1       3.256   3.135  19.277  0.00  0.00    +0.000 C 
ENDBRANCH  13  14
ENDBRANCH   4  13
TORSDOF 4
ENDMDL
MODEL 3
REMARK VINA RESULT:      -7.5      3.892      6.163
REMARK  Name = 
REMARK  7 active torsions:
REMARK  status: ('A' for Active; 'I' for Inactive)
REMARK    1  A    between atoms: C_1  and  N_2
REMARK    2  A    between atoms: C_3  and  C_5
REMARK    3  A    between atoms: C_5  and  N_6
REMARK    4  A    between atoms: N_9  and  C_10
REMARK    5  A    between atoms: C_10  and  C_11
REMARK    6  A    between atoms: C_18  and  C_19
REMARK    7  A    between atoms: C_18  and  C_20
REMARK                            x       y       z     vdW  Elec       q    Type
REMARK                         _______ _______ _______ _____ _____    ______ ____
ROOT
ATOM      1  N   UNL     1       6.321   3.603  13.828  0.00  0.00    +0.000 N 
ATOM      2  C   UNL     1       6.298   4.422  14.919  0.00  0.00    +0.000 C 
ATOM      3  O   UNL     1       5.705   5.495  14.942  0.00  0.00    +0.000 OA
ATOM      4  N   UNL     1       6.955   3.884  15.983  0.00  0.00    +0.000 N 
ATOM      5  H   UNL     1       6.424   2.616  14.018  0.00  0.00    +0.000 HD
ATOM      6  H   UNL     1       7.666   3.198  15.779  0.00  0.00    +0.000 HD
ENDROOT
BRANCH   1   7
ATOM      7  C   UNL     1       5.599   3.961  12.617  0.00  0.00    +0.000 C 
BRANCH   7  10
ATOM      8  C   UNL     1       6.144   0.558  10.990  0.00  0.00    +0.000 C 
ATOM      9  N   UNL     1       6.298   1.796  11.703  0.00  0.00    +0.000 N 
ATOM     10  C   UNL     1       5.296   2.741  11.740  0.00  0.00    +0.000 C 
ATOM     11  O   UNL     1       4.216   2.596  11.174  0.00  0.00    +0.000 OA
ATOM     12  H   UNL     1       7.101   1.925  12.320  0.00  0.00    +0.000 HD
ENDBRANCH   7  10
ENDBRANCH   1   7
BRANCH   4  13
ATOM     13  C   UNL     1       7.116   4.637  17.205  0.00  0.00    +0.000 C 
BRANCH  13  14
ATOM     14  C   UNL     1       5.823   4.594  17.947  0.00  0.00    +0.000 A 
ATOM     15  C   UNL     1       5.085   3.485  18.311  0.00  0.00    +0.000 A 
ATOM     16  C   UNL     1       3.900   3.823  19.038  0.00  0.00    +0.000 A 
ATOM     17  C   UNL     1       3.792   5.180  19.199  0.00  0.00    +0.000 A 
ATOM     18  S   UNL     1       5.071   6.039  18.468  0.00  0.00    +0.000 S 
ATOM     19  C   UNL     1       2.720   5.900  19.923  0.00  0.00    +0.000 C 
ATOM     20  C   UNL     1       1.622   4.993  20.483  0.00  0.00    +0.000 C 
ATOM     21  C   UNL     1       1.758   3.436  20.423  0.00  0.00    +0.000 C 
ATOM     22  C   UNL     1       1.916   2.900  21.865  0.00  0.00    +0.000 C 
ATOM     23  C   UNL     1       0.419   2.880  19.880  0.00  0.00    +0.000 C 
ATOM     24  C   UNL     1       2.903   2.845  19.552  0.00  0.00    +0.000 C 
ENDBRANCH  13  14
ENDBRANCH   4  13
TORSDOF 4
ENDMDL
MODEL 4
REMARK VINA RESULT:      -7.4      3.090      5.288
REMARK  Name = 
REMARK  7 active torsions:
REMARK  status: ('A' for Active; 'I' for Inactive)
REMARK    1  A    between atoms: C_1  and  N_2
REMARK    2  A    between atoms: C_3  and  C_5
REMARK    3  A    between atoms: C_5  and  N_6
REMARK    4  A    between atoms: N_9  and  C_10
REMARK    5  A    between atoms: C_10  and  C_11
REMARK    6  A    between atoms: C_18  and  C_19
REMARK    7  A    between atoms: C_18  and  C_20
REMARK                            x       y       z     vdW  Elec       q    Type
REMARK                         _______ _______ _______ _____ _____    ______ ____
ROOT
ATOM      1  N   UNL     1       7.434   5.537  14.260  0.00  0.00    +0.000 N 
ATOM      2  C   UNL     1       7.474   5.304  15.604  0.00  0.00    +0.000 C 
ATOM      3  O   UNL     1       7.699   4.201  16.089  0.00  0.00    +0.000 OA
ATOM      4  N   UNL     1       7.296   6.442  16.330  0.00  0.00    +0.000 N 
ATOM      5  H   UNL     1       7.688   6.469  13.964  0.00  0.00    +0.000 HD
ATOM      6  H   UNL     1       6.800   7.197  15.879  0.00  0.00    +0.000 HD
ENDROOT
BRANCH   1   7
ATOM      7  C   UNL     1       7.692   4.462  13.314  0.00  0.00    +0.000 C 
BRANCH   7  10
ATOM      8  C   UNL     1       5.495   1.956  11.465  0.00  0.00    +0.000 C 
ATOM      9  N   UNL     1       6.584   2.776  11.922  0.00  0.00    +0.000 N 
ATOM     10  C   UNL     1       6.407   3.744  12.886  0.00  0.00    +0.000 C 
ATOM     11  O   UNL     1       5.324   3.974  13.416  0.00  0.00    +0.000 OA
ATOM     12  H   UNL     1       7.539   2.545  11.643  0.00  0.00    +0.000 HD
ENDBRANCH   7  10
ENDBRANCH   1   7
BRANCH   4  13
ATOM     13  C   UNL     1       7.219   6.389  17.771  0.00  0.00    +0.000 C 
BRANCH  13  14
ATOM     14  C   UNL     1       5.907   5.784  18.143  0.00  0.00    +0.000 A 
ATOM     15  C   UNL     1       5.675   4.657  18.907  0.00  0.00    +0.000 A 
ATOM     16  C   UNL     1       4.282   4.382  19.076  0.00  0.00    +0.000 A 
ATOM     17  C   UNL     1       3.513   5.318  18.434  0.00  0.00    +0.000 A 
ATOM     18  S   UNL     1       4.443   6.491  17.617  0.00  0.00    +0.000 S 
ATOM     19  C   UNL     1       2.035   5.382  18.411  0.00  0.00    +0.000 C 
ATOM     20  C   UNL     1       1.345   4.234  19.152  0.00  0.00    +0.000 C 
ATOM     21  C   UNL     1       2.174   3.208  19.992  0.00  0.00    +0.000 C 
ATOM     22  C   UNL     1       1.830   3.403  21.487  0.00  0.00    +0.000 C 
ATOM     23  C   UNL     1       1.686   1.792  19.599  0.00  0.00    +0.000 C 
ATOM     24  C   UNL     1       3.722   3.232  19.839  0.00  0.00    +0.000 C 
ENDBRANCH  13  14
ENDBRANCH   4  13
TORSDOF 4
ENDMDL
MODEL 5
REMARK VINA RESULT:      -7.3      3.787      5.912
REMARK  Name = 
REMARK  7 active torsions:
REMARK  status: ('A' for Active; 'I' for Inactive)
REMARK    1  A    between atoms: C_1  and  N_2
REMARK    2  A    between atoms: C_3  and  C_5
REMARK    3  A    between atoms: C_5  and  N_6
REMARK    4  A    between atoms: N_9  and  C_10
REMARK    5  A    between atoms: C_10  and  C_11
REMARK    6  A    between atoms: C_18  and  C_19
REMARK    7  A    between atoms: C_18  and  C_20
REMARK                            x       y       z     vdW  Elec       q    Type
REMARK                         _______ _______ _______ _____ _____    ______ ____
ROOT
ATOM      1  N   UNL     1       6.865   3.657  14.004  0.00  0.00    +0.000 N 
ATOM      2  C   UNL     1       6.808   4.519  15.060  0.00  0.00    +0.000 C 
ATOM      3  O   UNL     1       6.496   5.699  14.948  0.00  0.00    +0.000 OA
ATOM      4  N   UNL     1       7.079   3.905  16.244  0.00  0.00    +0.000 N 
ATOM      5  H   UNL     1       6.687   2.685  14.216  0.00  0.00    +0.000 HD
ATOM      6  H   UNL     1       7.633   3.062  16.203  0.00  0.00    +0.000 HD
ENDROOT
BRANCH   1   7
ATOM      7  C   UNL     1       6.520   4.103  12.663  0.00  0.00    +0.000 C 
BRANCH   7  10
ATOM      8  C   UNL     1       3.407   2.868  10.843  0.00  0.00    +0.000 C 
ATOM      9  N   UNL     1       4.365   3.635  11.592  0.00  0.00    +0.000 N 
ATOM     10  C   UNL     1       5.593   3.118  11.944  0.00  0.00    +0.000 C 
ATOM     11  O   UNL     1       5.951   1.981  11.650  0.00  0.00    +0.000 OA
ATOM     12  H   UNL     1       4.205   4.632  11.741  0.00  0.00    +0.000 HD
ENDBRANCH   7  10
ENDBRANCH   1   7
BRANCH   4  13
ATOM     13  C   UNL     1       7.153   4.667  17.468  0.00  0.00    +0.000 C 
BRANCH  13  14
ATOM     14  C   UNL     1       5.817   4.612  18.129  0.00  0.00    +0.000 A 
ATOM     15  C   UNL     1       5.096   3.494  18.501  0.00  0.00    +0.000 A 
ATOM     16  C   UNL     1       3.855   3.822  19.133  0.00  0.00    +0.000 A 
ATOM     17  C   UNL     1       3.690   5.181  19.218  0.00  0.00    +0.000 A 
ATOM     18  S   UNL     1       4.983   6.050  18.526  0.00  0.00    +0.000 S 
ATOM     19  C   UNL     1       2.549   5.894  19.835  0.00  0.00    +0.000 C 
ATOM     20  C   UNL     1       1.449   4.975  20.371  0.00  0.00    +0.000 C 
ATOM     21  C   UNL     1       1.642   3.423  20.398  0.00  0.00    +0.000 C 
ATOM     22  C   UNL     1       1.725   2.964  21.872  0.00  0.00    +0.000 C 
ATOM     23  C   UNL     1       0.361   2.791  19.801  0.00  0.00    +0.000 C 
ATOM     24  C   UNL     1       2.861   2.833  19.632  0.00  0.00    +0.000 C 
ENDBRANCH  13  14
ENDBRANCH   4  13
TORSDOF 4
ENDMDL
MODEL 6
REMARK VINA RESULT:      -7.2      1.656      2.466
REMARK  Name = 
REMARK  7 active torsions:
REMARK  status: ('A' for Active; 'I' for Inactive)
REMARK    1  A    between atoms: C_1  and  N_2
REMARK    2  A    between atoms: C_3  and  C_5
REMARK    3  A    between atoms: C_5  and  N_6
REMARK    4  A    between atoms: N_9  and  C_10
REMARK    5  A    between atoms: C_10  and  C_11
REMARK    6  A    between atoms: C_18  and  C_19
REMARK    7  A    between atoms: C_18  and  C_20
REMARK                            x       y       z     vdW  Elec       q    Type
REMARK                         _______ _______ _______ _____ _____    ______ ____
ROOT
ATOM      1  N   UNL     1       9.163   9.619  19.452  0.00  0.00    +0.000 N 
ATOM      2  C   UNL     1       8.425   9.340  18.339  0.00  0.00    +0.000 C 
ATOM      3  O   UNL     1       7.985  10.204  17.590  0.00  0.00    +0.000 OA
ATOM      4  N   UNL     1       8.288   8.001  18.132  0.00  0.00    +0.000 N 
ATOM      5  H   UNL     1       9.826   8.909  19.733  0.00  0.00    +0.000 HD
ATOM      6  H   UNL     1       8.381   7.404  18.941  0.00  0.00    +0.000 HD
ENDROOT
BRANCH   1   7
ATOM      7  C   UNL     1       9.497  10.993  19.796  0.00  0.00    +0.000 C 
BRANCH   7  10
ATOM      8  C   UNL     1      11.229  13.002  17.060  0.00  0.00    +0.000 C 
ATOM      9  N   UNL     1      10.267  12.347  17.903  0.00  0.00    +0.000 N 
ATOM     10  C   UNL     1      10.653  11.539  18.950  0.00  0.00    +0.000 C 
ATOM     11  O   UNL     1      11.827  11.321  19.233  0.00  0.00    +0.000 OA
ATOM     12  H   UNL     1       9.280  12.597  17.829  0.00  0.00    +0.000 HD
ENDBRANCH   7  10
ENDBRANCH   1   7
BRANCH   4  13
ATOM     13  C   UNL     1       7.467   7.505  17.053  0.00  0.00    +0.000 C 
BRANCH  13  14
ATOM     14  C   UNL     1       6.412   6.629  17.640  0.00  0.00    +0.000 A 
ATOM     15  C   UNL     1       5.052   6.861  17.706  0.00  0.00    +0.000 A 
ATOM     16  C   UNL     1       4.338   5.786  18.323  0.00  0.00    +0.000 A 
ATOM     17  C   UNL     1       5.189   4.778  18.695  0.00  0.00    +0.000 A 
ATOM     18  S   UNL     1       6.821   5.124  18.341  0.00  0.00    +0.000 S 
ATOM     19  C   UNL     1       4.814   3.496  19.331  0.00  0.00    +0.000 C 
ATOM     20  C   UNL     1       3.319   3.355  19.626  0.00  0.00    +0.000 C 
ATOM     21  C   UNL     1       2.296   4.424  19.121  0.00  0.00    +0.000 C 
ATOM     22  C   UNL     1       1.396   3.774  18.045  0.00  0.00    +0.000 C 
ATOM     23  C   UNL     1       1.381   4.785  20.316  0.00  0.00    +0.000 C 
ATOM     24  C   UNL     1       2.866   5.753  18.545  0.00  0.00    +0.000 C 
ENDBRANCH  13  14
ENDBRANCH   4  13
TORSDOF 4
ENDMDL
MODEL 7
REMARK VINA RESULT:      -7.2      3.464      5.799
REMARK  Name = 
REMARK  7 active torsions:
REMARK  status: ('A' for Active; 'I' for Inactive)
REMARK    1  A    between atoms: C_1  and  N_2
REMARK    2  A    between atoms: C_3  and  C_5
REMARK    3  A    between atoms: C_5  and  N_6
REMARK    4  A    between atoms: N_9  and  C_10
REMARK    5  A    between atoms: C_10  and  C_11
REMARK    6  A    between atoms: C_18  and  C_19
REMARK    7  A    between atoms: C_18  and  C_20
REMARK                            x       y       z     vdW  Elec       q    Type
REMARK                         _______ _______ _______ _____ _____    ______ ____
ROOT
ATOM      1  N   UNL     1       6.579   5.258  13.767  0.00  0.00    +0.000 N 
ATOM      2  C   UNL     1       6.876   5.384  15.092  0.00  0.00    +0.000 C 
ATOM      3  O   UNL     1       7.671   4.656  15.675  0.00  0.00    +0.000 OA
ATOM      4  N   UNL     1       6.237   6.440  15.667  0.00  0.00    +0.000 N 
ATOM      5  H   UNL     1       6.301   6.106  13.292  0.00  0.00    +0.000 HD
ATOM      6  H   UNL     1       5.386   6.752  15.224  0.00  0.00    +0.000 HD
ENDROOT
BRANCH   1   7
ATOM      7  C   UNL     1       7.231   4.243  12.954  0.00  0.00    +0.000 C 
BRANCH   7  10
ATOM      8  C   UNL     1       5.980   1.138  11.130  0.00  0.00    +0.000 C 
ATOM      9  N   UNL     1       6.788   2.172  11.718  0.00  0.00    +0.000 N 
ATOM     10  C   UNL     1       6.226   3.288  12.300  0.00  0.00    +0.000 C 
ATOM     11  O   UNL     1       5.014   3.477  12.356  0.00  0.00    +0.000 OA
ATOM     12  H   UNL     1       7.788   2.017  11.847  0.00  0.00    +0.000 HD
ENDBRANCH   7  10
ENDBRANCH   1   7
BRANCH   4  13
ATOM     13  C   UNL     1       6.356   6.688  17.084  0.00  0.00    +0.000 C 
BRANCH  13  14
ATOM     14  C   UNL     1       5.422   5.766  17.795  0.00  0.00    +0.000 A 
ATOM     15  C   UNL     1       4.041   5.785  17.792  0.00  0.00    +0.000 A 
ATOM     16  C   UNL     1       3.473   4.730  18.573  0.00  0.00    +0.000 A 
ATOM     17  C   UNL     1       4.452   3.950  19.134  0.00  0.00    +0.000 A 
ATOM     18  S   UNL     1       6.025   4.488  18.756  0.00  0.00    +0.000 S 
ATOM     19  C   UNL     1       4.250   2.751  19.977  0.00  0.00    +0.000 C 
ATOM     20  C   UNL     1       2.782   2.424  20.263  0.00  0.00    +0.000 C 
ATOM     21  C   UNL     1       1.632   3.213  19.558  0.00  0.00    +0.000 C 
ATOM     22  C   UNL     1       0.894   2.254  18.595  0.00  0.00    +0.000 C 
ATOM     23  C   UNL     1       0.616   3.620  20.653  0.00  0.00    +0.000 C 
ATOM     24  C   UNL     1       2.016   4.499  18.769  0.00  0.00    +0.000 C 
ENDBRANCH  13  14
ENDBRANCH   4  13
TORSDOF 4
ENDMDL
MODEL 8
REMARK VINA RESULT:      -7.2      4.041      6.115
REMARK  Name = 
REMARK  7 active torsions:
REMARK  status: ('A' for Active; 'I' for Inactive)
REMARK    1  A    between atoms: C_1  and  N_2
REMARK    2  A    between atoms: C_3  and  C_5
REMARK    3  A    between atoms: C_5  and  N_6
REMARK    4  A    between atoms: N_9  and  C_10
REMARK    5  A    between atoms: C_10  and  C_11
REMARK    6  A    between atoms: C_18  and  C_19
REMARK    7  A    between atoms: C_18  and  C_20
REMARK                            x       y       z     vdW  Elec       q    Type
REMARK                         _______ _______ _______ _____ _____    ______ ____
ROOT
ATOM      1  N   UNL     1       5.601   4.197  17.242  0.00  0.00    +0.000 N 
ATOM      2  C   UNL     1       5.203   4.735  18.431  0.00  0.00    +0.000 C 
ATOM      3  O   UNL     1       5.957   5.347  19.178  0.00  0.00    +0.000 OA
ATOM      4  N   UNL     1       3.871   4.562  18.656  0.00  0.00    +0.000 N 
ATOM      5  H   UNL     1       4.888   4.123  16.529  0.00  0.00    +0.000 HD
ATOM      6  H   UNL     1       3.426   3.790  18.182  0.00  0.00    +0.000 HD
ENDROOT
BRANCH   1   7
ATOM      7  C   UNL     1       6.971   4.354  16.778  0.00  0.00    +0.000 C 
BRANCH   7  10
ATOM      8  C   UNL     1       6.229   3.716  13.095  0.00  0.00    +0.000 C 
ATOM      9  N   UNL     1       6.323   3.632  14.527  0.00  0.00    +0.000 N 
ATOM     10  C   UNL     1       7.052   4.544  15.260  0.00  0.00    +0.000 C 
ATOM     11  O   UNL     1       7.666   5.477  14.750  0.00  0.00    +0.000 OA
ATOM     12  H   UNL     1       5.722   2.981  15.034  0.00  0.00    +0.000 HD
ENDBRANCH   7  10
ENDBRANCH   1   7
BRANCH   4  13
ATOM     13  C   UNL     1       3.275   4.986  19.901  0.00  0.00    +0.000 C 
BRANCH  13  14
ATOM     14  C   UNL     1       2.653   6.324  19.684  0.00  0.00    +0.000 A 
ATOM     15  C   UNL     1       1.906   7.070  20.574  0.00  0.00    +0.000 A 
ATOM     16  C   UNL     1       1.486   8.324  20.028  0.00  0.00    +0.000 A 
ATOM     17  C   UNL     1       1.938   8.477  18.742  0.00  0.00    +0.000 A 
ATOM     18  S   UNL     1       2.826   7.131  18.187  0.00  0.00    +0.000 S 
ATOM     19  C   UNL     1       1.731   9.653  17.868  0.00  0.00    +0.000 C 
ATOM     20  C   UNL     1       0.876  10.758  18.494  0.00  0.00    +0.000 C 
ATOM     21  C   UNL     1       0.433  10.679  19.991  0.00  0.00    +0.000 C 
ATOM     22  C   UNL     1       1.149  11.803  20.776  0.00  0.00    +0.000 C 
ATOM     23  C   UNL     1      -1.083  10.992  20.038  0.00  0.00    +0.000 C 
ATOM     24  C   UNL     1       0.661   9.336  20.743  0.00  0.00    +0.000 C 
ENDBRANCH  13  14
ENDBRANCH   4  13
TORSDOF 4
ENDMDL
MODEL 9
REMARK VINA RESULT:      -7.1      6.446      8.259
REMARK  Name = 
REMARK  7 active torsions:
REMARK  status: ('A' for Active; 'I' for Inactive)
REMARK    1  A    between atoms: C_1  and  N_2
REMARK    2  A    between atoms: C_3  and  C_5
REMARK    3  A    between atoms: C_5  and  N_6
REMARK    4  A    between atoms: N_9  and  C_10
REMARK    5  A    between atoms: C_10  and  C_11
REMARK    6  A    between atoms: C_18  and  C_19
REMARK    7  A    between atoms: C_18  and  C_20
REMARK                            x       y       z     vdW  Elec       q    Type
REMARK                         _______ _______ _______ _____ _____    ______ ____
ROOT
ATOM      1  N   UNL     1      -1.270  10.626  17.245  0.00  0.00    +0.000 N 
ATOM      2  C   UNL     1      -0.338  10.438  18.224  0.00  0.00    +0.000 C 
ATOM      3  O   UNL     1      -0.543  10.692  19.405  0.00  0.00    +0.000 OA
ATOM      4  N   UNL     1       0.811   9.887  17.745  0.00  0.00    +0.000 N 
ATOM      5  H   UNL     1      -1.201  10.012  16.445  0.00  0.00    +0.000 HD
ATOM      6  H   UNL     1       1.008  10.026  16.765  0.00  0.00    +0.000 HD
ENDROOT
BRANCH   1   7
ATOM      7  C   UNL     1      -2.598  11.123  17.571  0.00  0.00    +0.000 C 
BRANCH   7  10
ATOM      8  C   UNL     1      -3.844  10.116  14.113  0.00  0.00    +0.000 C 
ATOM      9  N   UNL     1      -3.043  10.387  15.275  0.00  0.00    +0.000 N 
ATOM     10  C   UNL     1      -3.572  10.990  16.396  0.00  0.00    +0.000 C 
ATOM     11  O   UNL     1      -4.747  11.335  16.480  0.00  0.00    +0.000 OA
ATOM     12  H   UNL     1      -2.102   9.996  15.341  0.00  0.00    +0.000 HD
ENDBRANCH   7  10
ENDBRANCH   1   7
BRANCH   4  13
ATOM     13  C   UNL     1       1.949   9.691  18.611  0.00  0.00    +0.000 C 
BRANCH  13  14
ATOM     14  C   UNL     1       2.077   8.229  18.883  0.00  0.00    +0.000 A 
ATOM     15  C   UNL     1       2.488   7.235  18.017  0.00  0.00    +0.000 A 
ATOM     16  C   UNL     1       2.510   5.943  18.630  0.00  0.00    +0.000 A 
ATOM     17  C   UNL     1       2.117   6.013  19.942  0.00  0.00    +0.000 A 
ATOM     18  S   UNL     1       1.700   7.595  20.425  0.00  0.00    +0.000 S 
ATOM     19  C   UNL     1       2.044   4.891  20.903  0.00  0.00    +0.000 C 
ATOM     20  C   UNL     1       2.406   3.529  20.307  0.00  0.00    +0.000 C 
ATOM     21  C   UNL     1       2.966   3.413  18.852  0.00  0.00    +0.000 C 
ATOM     22  C   UNL     1       4.439   2.948  18.927  0.00  0.00    +0.000 C 
ATOM     23  C   UNL     1       2.174   2.286  18.143  0.00  0.00    +0.000 C 
ATOM     24  C   UNL     1       2.898   4.678  17.948  0.00  0.00    +0.000 C 
ENDBRANCH  13  14
ENDBRANCH   4  13
TORSDOF 4
ENDMDL
