MODEL 1
REMARK VINA RESULT:      -8.0      0.000      0.000
REMARK  Name = 
REMARK  4 active torsions:
REMARK  status: ('A' for Active; 'I' for Inactive)
REMARK    1  A    between atoms: C_1  and  S_2
REMARK    2  A    between atoms: S_2  and  C_3
REMARK    3  A    between atoms: C_7  and  C_8
REMARK    4  A    between atoms: C_13  and  C_15
REMARK                            x       y       z     vdW  Elec       q    Type
REMARK                         _______ _______ _______ _____ _____    ______ ____
ROOT
ATOM      1  C   UNL     1       0.663  10.515  19.716  0.00  0.00    +0.000 A 
ATOM      2  N   UNL     1       0.895  11.263  18.656  0.00  0.00    +0.000 NA
ATOM      3  N   UNL     1       1.652  10.492  17.796  0.00  0.00    +0.000 NA
ATOM      4  C   UNL     1       1.830   9.334  18.394  0.00  0.00    +0.000 A 
ATOM      5  N   UNL     1       2.502   8.262  17.882  0.00  0.00    +0.000 N 
ATOM      6  C   UNL     1       2.741   7.116  18.601  0.00  0.00    +0.000 C 
ATOM      7  O   UNL     1       2.431   6.924  19.772  0.00  0.00    +0.000 OA
ATOM      8  O   UNL     1       1.233   9.273  19.616  0.00  0.00    +0.000 OA
ATOM      9  H   UNL     1       2.893   8.412  16.966  0.00  0.00    +0.000 HD
ENDROOT
BRANCH   6  10
ATOM     10  C   UNL     1       3.507   6.054  17.882  0.00  0.00    +0.000 A 
ATOM     11  C   UNL     1       3.117   4.706  17.871  0.00  0.00    +0.000 A 
ATOM     12  C   UNL     1       3.822   3.782  17.092  0.00  0.00    +0.000 A 
ATOM     13  C   UNL     1       4.915   4.193  16.331  0.00  0.00    +0.000 A 
ATOM     14  C   UNL     1       5.352   5.514  16.411  0.00  0.00    +0.000 A 
ATOM     15  C   UNL     1       4.657   6.441  17.183  0.00  0.00    +0.000 A 
ATOM     16  O   UNL     1       6.460   5.964  15.748  0.00  0.00    +0.000 OA
ATOM     17  C   UNL     1       6.609   5.248  14.526  0.00  0.00    +0.000 C 
ATOM     18  C   UNL     1       6.580   3.739  14.733  0.00  0.00    +0.000 C 
ATOM     19  O   UNL     1       5.479   3.258  15.511  0.00  0.00    +0.000 OA
ENDBRANCH   6  10
BRANCH   1  24
ATOM     20  C   UNL     1      -1.811  12.200  22.004  0.00  0.00    +0.000 A 
ATOM     21  C   UNL     1      -1.728  11.373  23.132  0.00  0.00    +0.000 A 
ATOM     22  C   UNL     1      -0.858  10.282  23.160  0.00  0.00    +0.000 A 
ATOM     23  C   UNL     1      -0.062  10.002  22.052  0.00  0.00    +0.000 A 
ATOM     24  C   UNL     1      -0.131  10.800  20.902  0.00  0.00    +0.000 A 
ATOM     25  C   UNL     1      -1.005  11.902  20.899  0.00  0.00    +0.000 A 
BRANCH  20  27
ATOM     26  C   UNL     1      -4.583  12.766  22.155  0.00  0.00    +0.000 C 
ATOM     27  S   UNL     1      -2.959  13.569  22.095  0.00  0.00    +0.000 S 
ENDBRANCH  20  27
ENDBRANCH   1  24
TORSDOF 3
ENDMDL
MODEL 2
REMARK VINA RESULT:      -7.8      3.431      9.691
REMARK  Name = 
REMARK  4 active torsions:
REMARK  status: ('A' for Active; 'I' for Inactive)
REMARK    1  A    between atoms: C_1  and  S_2
REMARK    2  A    between atoms: S_2  and  C_3
REMARK    3  A    between atoms: C_7  and  C_8
REMARK    4  A    between atoms: C_13  and  C_15
REMARK                            x       y       z     vdW  Elec       q    Type
REMARK                         _______ _______ _______ _____ _____    ______ ____
ROOT
ATOM      1  C   UNL     1       2.488   7.617  18.289  0.00  0.00    +0.000 A 
ATOM      2  N   UNL     1       2.532   8.418  17.243  0.00  0.00    +0.000 NA
ATOM      3  N   UNL     1       1.937   9.602  17.636  0.00  0.00    +0.000 NA
ATOM      4  C   UNL     1       1.572   9.435  18.888  0.00  0.00    +0.000 A 
ATOM      5  N   UNL     1       0.968  10.371  19.679  0.00  0.00    +0.000 N 
ATOM      6  C   UNL     1       0.518  10.100  20.948  0.00  0.00    +0.000 C 
ATOM      7  O   UNL     1       0.557   9.010  21.507  0.00  0.00    +0.000 OA
ATOM      8  O   UNL     1       1.886   8.202  19.372  0.00  0.00    +0.000 OA
ATOM      9  H   UNL     1       0.794  11.253  19.223  0.00  0.00    +0.000 HD
ENDROOT
BRANCH   6  10
ATOM     10  C   UNL     1      -0.132  11.243  21.657  0.00  0.00    +0.000 A 
ATOM     11  C   UNL     1       0.327  12.565  21.555  0.00  0.00    +0.000 A 
ATOM     12  C   UNL     1      -0.390  13.602  22.162  0.00  0.00    +0.000 A 
ATOM     13  C   UNL     1      -1.557  13.326  22.874  0.00  0.00    +0.000 A 
ATOM     14  C   UNL     1      -1.962  12.004  23.046  0.00  0.00    +0.000 A 
ATOM     15  C   UNL     1      -1.256  10.965  22.446  0.00  0.00    +0.000 A 
ATOM     16  O   UNL     1      -3.055  11.660  23.794  0.00  0.00    +0.000 OA
ATOM     17  C   UNL     1      -4.035  12.691  23.707  0.00  0.00    +0.000 C 
ATOM     18  C   UNL     1      -3.463  14.063  24.040  0.00  0.00    +0.000 C 
ATOM     19  O   UNL     1      -2.260  14.400  23.339  0.00  0.00    +0.000 OA
ENDBRANCH   6  10
BRANCH   1  24
ATOM     20  C   UNL     1       2.657   3.951  19.138  0.00  0.00    +0.000 A 
ATOM     21  C   UNL     1       3.972   3.654  18.752  0.00  0.00    +0.000 A 
ATOM     22  C   UNL     1       4.808   4.644  18.234  0.00  0.00    +0.000 A 
ATOM     23  C   UNL     1       4.335   5.947  18.093  0.00  0.00    +0.000 A 
ATOM     24  C   UNL     1       3.021   6.274  18.456  0.00  0.00    +0.000 A 
ATOM     25  C   UNL     1       2.198   5.264  18.986  0.00  0.00    +0.000 A 
BRANCH  20  27
ATOM     26  C   UNL     1       1.594   2.949  21.566  0.00  0.00    +0.000 C 
ATOM     27  S   UNL     1       1.688   2.595  19.791  0.00  0.00    +0.000 S 
ENDBRANCH  20  27
ENDBRANCH   1  24
TORSDOF 3
ENDMDL
MODEL 3
REMARK VINA RESULT:      -7.8      4.197     10.250
REMARK  Name = 
REMARK  4 active torsions:
REMARK  status: ('A' for Active; 'I' for Inactive)
REMARK    1  A    between atoms: C_1  and  S_2
REMARK    2  A    between atoms: S_2  and  C_3
REMARK    3  A    between atoms: C_7  and  C_8
REMARK    4  A    between atoms: C_13  and  C_15
REMARK                            x       y       z     vdW  Elec       q    Type
REMARK                         _______ _______ _______ _____ _____    ______ ____
ROOT
ATOM      1  C   UNL     1       6.295   4.920  16.024  0.00  0.00    +0.000 A 
ATOM      2  N   UNL     1       6.821   4.378  17.104  0.00  0.00    +0.000 NA
ATOM      3  N   UNL     1       6.090   4.859  18.173  0.00  0.00    +0.000 NA
ATOM      4  C   UNL     1       5.176   5.659  17.668  0.00  0.00    +0.000 A 
ATOM      5  N   UNL     1       4.217   6.328  18.374  0.00  0.00    +0.000 N 
ATOM      6  C   UNL     1       3.357   7.229  17.796  0.00  0.00    +0.000 C 
ATOM      7  O   UNL     1       3.360   7.576  16.620  0.00  0.00    +0.000 OA
ATOM      8  O   UNL     1       5.243   5.749  16.311  0.00  0.00    +0.000 OA
ATOM      9  H   UNL     1       4.251   6.179  19.370  0.00  0.00    +0.000 HD
ENDROOT
BRANCH   6  10
ATOM     10  C   UNL     1       2.385   7.878  18.728  0.00  0.00    +0.000 A 
ATOM     11  C   UNL     1       2.111   7.382  20.011  0.00  0.00    +0.000 A 
ATOM     12  C   UNL     1       1.269   8.096  20.871  0.00  0.00    +0.000 A 
ATOM     13  C   UNL     1       0.695   9.297  20.454  0.00  0.00    +0.000 A 
ATOM     14  C   UNL     1       0.900   9.741  19.150  0.00  0.00    +0.000 A 
ATOM     15  C   UNL     1       1.736   9.038  18.287  0.00  0.00    +0.000 A 
ATOM     16  O   UNL     1       0.307  10.871  18.655  0.00  0.00    +0.000 OA
ATOM     17  C   UNL     1       0.142  11.821  19.704  0.00  0.00    +0.000 C 
ATOM     18  C   UNL     1      -0.567  11.228  20.916  0.00  0.00    +0.000 C 
ATOM     19  O   UNL     1      -0.022   9.990  21.387  0.00  0.00    +0.000 OA
ENDBRANCH   6  10
BRANCH   1  24
ATOM     20  C   UNL     1       6.185   3.558  12.513  0.00  0.00    +0.000 A 
ATOM     21  C   UNL     1       7.196   4.317  11.907  0.00  0.00    +0.000 A 
ATOM     22  C   UNL     1       7.925   5.255  12.639  0.00  0.00    +0.000 A 
ATOM     23  C   UNL     1       7.647   5.449  13.990  0.00  0.00    +0.000 A 
ATOM     24  C   UNL     1       6.632   4.717  14.623  0.00  0.00    +0.000 A 
ATOM     25  C   UNL     1       5.917   3.768  13.870  0.00  0.00    +0.000 A 
BRANCH  20  27
ATOM     26  C   UNL     1       6.582   1.129  11.109  0.00  0.00    +0.000 C 
ATOM     27  S   UNL     1       5.327   2.386  11.468  0.00  0.00    +0.000 S 
ENDBRANCH  20  27
ENDBRANCH   1  24
TORSDOF 3
ENDMDL
MODEL 4
REMARK VINA RESULT:      -7.7      3.004      3.523
REMARK  Name = 
REMARK  4 active torsions:
REMARK  status: ('A' for Active; 'I' for Inactive)
REMARK    1  A    between atoms: C_1  and  S_2
REMARK    2  A    between atoms: S_2  and  C_3
REMARK    3  A    between atoms: C_7  and  C_8
REMARK    4  A    between atoms: C_13  and  C_15
REMARK                            x       y       z     vdW  Elec       q    Type
REMARK                         _______ _______ _______ _____ _____    ______ ____
ROOT
ATOM      1  C   UNL     1      -0.754  10.754  18.271  0.00  0.00    +0.000 A 
ATOM      2  N   UNL     1      -0.142  11.602  19.074  0.00  0.00    +0.000 NA
ATOM      3  N   UNL     1       1.082  11.035  19.375  0.00  0.00    +0.000 NA
ATOM      4  C   UNL     1       1.125   9.886  18.738  0.00  0.00    +0.000 A 
ATOM      5  N   UNL     1       2.172   9.009  18.735  0.00  0.00    +0.000 N 
ATOM      6  C   UNL     1       2.113   7.776  18.132  0.00  0.00    +0.000 C 
ATOM      7  O   UNL     1       1.135   7.295  17.572  0.00  0.00    +0.000 OA
ATOM      8  O   UNL     1      -0.003   9.637  18.017  0.00  0.00    +0.000 OA
ATOM      9  H   UNL     1       2.960   9.298  19.291  0.00  0.00    +0.000 HD
ENDROOT
BRANCH   6  10
ATOM     10  C   UNL     1       3.350   6.945  18.246  0.00  0.00    +0.000 A 
ATOM     11  C   UNL     1       3.564   6.035  19.292  0.00  0.00    +0.000 A 
ATOM     12  C   UNL     1       4.697   5.213  19.281  0.00  0.00    +0.000 A 
ATOM     13  C   UNL     1       5.618   5.300  18.237  0.00  0.00    +0.000 A 
ATOM     14  C   UNL     1       5.447   6.265  17.246  0.00  0.00    +0.000 A 
ATOM     15  C   UNL     1       4.323   7.086  17.248  0.00  0.00    +0.000 A 
ATOM     16  O   UNL     1       6.350   6.451  16.236  0.00  0.00    +0.000 OA
ATOM     17  C   UNL     1       6.963   5.207  15.908  0.00  0.00    +0.000 C 
ATOM     18  C   UNL     1       7.537   4.505  17.133  0.00  0.00    +0.000 C 
ATOM     19  O   UNL     1       6.635   4.389  18.239  0.00  0.00    +0.000 OA
ENDBRANCH   6  10
BRANCH   1  24
ATOM     20  C   UNL     1      -4.372  11.616  17.672  0.00  0.00    +0.000 A 
ATOM     21  C   UNL     1      -4.530  11.174  16.351  0.00  0.00    +0.000 A 
ATOM     22  C   UNL     1      -3.472  10.580  15.661  0.00  0.00    +0.000 A 
ATOM     23  C   UNL     1      -2.236  10.426  16.287  0.00  0.00    +0.000 A 
ATOM     24  C   UNL     1      -2.040  10.871  17.602  0.00  0.00    +0.000 A 
ATOM     25  C   UNL     1      -3.123  11.455  18.283  0.00  0.00    +0.000 A 
BRANCH  20  27
ATOM     26  C   UNL     1      -6.685  13.138  17.069  0.00  0.00    +0.000 C 
ATOM     27  S   UNL     1      -5.805  12.355  18.447  0.00  0.00    +0.000 S 
ENDBRANCH  20  27
ENDBRANCH   1  24
TORSDOF 3
ENDMDL
MODEL 5
REMARK VINA RESULT:      -7.7      3.626     10.071
REMARK  Name = 
REMARK  4 active torsions:
REMARK  status: ('A' for Active; 'I' for Inactive)
REMARK    1  A    between atoms: C_1  and  S_2
REMARK    2  A    between atoms: S_2  and  C_3
REMARK    3  A    between atoms: C_7  and  C_8
REMARK    4  A    between atoms: C_13  and  C_15
REMARK                            x       y       z     vdW  Elec       q    Type
REMARK                         _______ _______ _______ _____ _____    ______ ____
ROOT
ATOM      1  C   UNL     1       2.295   7.955  18.438  0.00  0.00    +0.000 A 
ATOM      2  N   UNL     1       2.373   8.782  17.415  0.00  0.00    +0.000 NA
ATOM      3  N   UNL     1       1.766   9.956  17.818  0.00  0.00    +0.000 NA
ATOM      4  C   UNL     1       1.361   9.759  19.053  0.00  0.00    +0.000 A 
ATOM      5  N   UNL     1       0.734  10.675  19.847  0.00  0.00    +0.000 N 
ATOM      6  C   UNL     1       0.244  10.373  21.094  0.00  0.00    +0.000 C 
ATOM      7  O   UNL     1       0.264   9.270  21.627  0.00  0.00    +0.000 OA
ATOM      8  O   UNL     1       1.660   8.514  19.516  0.00  0.00    +0.000 OA
ATOM      9  H   UNL     1       0.574  11.568  19.409  0.00  0.00    +0.000 HD
ENDROOT
BRANCH   6  10
ATOM     10  C   UNL     1      -0.428  11.499  21.811  0.00  0.00    +0.000 A 
ATOM     11  C   UNL     1       0.005  12.830  21.716  0.00  0.00    +0.000 A 
ATOM     12  C   UNL     1      -0.733  13.850  22.330  0.00  0.00    +0.000 A 
ATOM     13  C   UNL     1      -1.893  13.546  23.041  0.00  0.00    +0.000 A 
ATOM     14  C   UNL     1      -2.272  12.216  23.206  0.00  0.00    +0.000 A 
ATOM     15  C   UNL     1      -1.545  11.195  22.599  0.00  0.00    +0.000 A 
ATOM     16  O   UNL     1      -3.357  11.846  23.953  0.00  0.00    +0.000 OA
ATOM     17  C   UNL     1      -4.357  12.857  23.874  0.00  0.00    +0.000 C 
ATOM     18  C   UNL     1      -3.811  14.239  24.213  0.00  0.00    +0.000 C 
ATOM     19  O   UNL     1      -2.617  14.604  23.513  0.00  0.00    +0.000 OA
ENDBRANCH   6  10
BRANCH   1  24
ATOM     20  C   UNL     1       4.252   4.816  17.727  0.00  0.00    +0.000 A 
ATOM     21  C   UNL     1       3.916   4.040  18.846  0.00  0.00    +0.000 A 
ATOM     22  C   UNL     1       3.043   4.526  19.820  0.00  0.00    +0.000 A 
ATOM     23  C   UNL     1       2.496   5.801  19.687  0.00  0.00    +0.000 A 
ATOM     24  C   UNL     1       2.823   6.608  18.588  0.00  0.00    +0.000 A 
ATOM     25  C   UNL     1       3.696   6.095  17.612  0.00  0.00    +0.000 A 
BRANCH  20  27
ATOM     26  C   UNL     1       6.983   4.809  16.969  0.00  0.00    +0.000 C 
ATOM     27  S   UNL     1       5.378   4.078  16.549  0.00  0.00    +0.000 S 
ENDBRANCH  20  27
ENDBRANCH   1  24
TORSDOF 3
ENDMDL
MODEL 6
REMARK VINA RESULT:      -7.7      3.562      9.789
REMARK  Name = 
REMARK  4 active torsions:
REMARK  status: ('A' for Active; 'I' for Inactive)
REMARK    1  A    between atoms: C_1  and  S_2
REMARK    2  A    between atoms: S_2  and  C_3
REMARK    3  A    between atoms: C_7  and  C_8
REMARK    4  A    between atoms: C_13  and  C_15
REMARK                            x       y       z     vdW  Elec       q    Type
REMARK                         _______ _______ _______ _____ _____    ______ ____
ROOT
ATOM      1  C   UNL     1       2.792   7.530  18.247  0.00  0.00    +0.000 A 
ATOM      2  N   UNL     1       2.763   8.332  17.202  0.00  0.00    +0.000 NA
ATOM      3  N   UNL     1       1.947   9.392  17.549  0.00  0.00    +0.000 NA
ATOM      4  C   UNL     1       1.536   9.157  18.775  0.00  0.00    +0.000 A 
ATOM      5  N   UNL     1       0.728   9.968  19.520  0.00  0.00    +0.000 N 
ATOM      6  C   UNL     1       0.252   9.615  20.759  0.00  0.00    +0.000 C 
ATOM      7  O   UNL     1       0.444   8.545  21.326  0.00  0.00    +0.000 OA
ATOM      8  O   UNL     1       2.029   7.995  19.286  0.00  0.00    +0.000 OA
ATOM      9  H   UNL     1       0.432  10.808  19.050  0.00  0.00    +0.000 HD
ENDROOT
BRANCH   6  10
ATOM     10  C   UNL     1      -0.633  10.623  21.419  0.00  0.00    +0.000 A 
ATOM     11  C   UNL     1      -0.923  10.601  22.791  0.00  0.00    +0.000 A 
ATOM     12  C   UNL     1      -1.673  11.635  23.362  0.00  0.00    +0.000 A 
ATOM     13  C   UNL     1      -2.140  12.685  22.571  0.00  0.00    +0.000 A 
ATOM     14  C   UNL     1      -1.923  12.658  21.195  0.00  0.00    +0.000 A 
ATOM     15  C   UNL     1      -1.177  11.635  20.617  0.00  0.00    +0.000 A 
ATOM     16  O   UNL     1      -2.416  13.618  20.353  0.00  0.00    +0.000 OA
ATOM     17  C   UNL     1      -2.466  14.869  21.033  0.00  0.00    +0.000 C 
ATOM     18  C   UNL     1      -3.200  14.774  22.365  0.00  0.00    +0.000 C 
ATOM     19  O   UNL     1      -2.765  13.711  23.219  0.00  0.00    +0.000 OA
ENDBRANCH   6  10
BRANCH   1  24
ATOM     20  C   UNL     1       5.586   5.008  18.074  0.00  0.00    +0.000 A 
ATOM     21  C   UNL     1       5.056   3.978  18.864  0.00  0.00    +0.000 A 
ATOM     22  C   UNL     1       3.788   4.092  19.436  0.00  0.00    +0.000 A 
ATOM     23  C   UNL     1       3.035   5.245  19.228  0.00  0.00    +0.000 A 
ATOM     24  C   UNL     1       3.541   6.300  18.456  0.00  0.00    +0.000 A 
ATOM     25  C   UNL     1       4.815   6.161  17.878  0.00  0.00    +0.000 A 
BRANCH  20  27
ATOM     26  C   UNL     1       6.915   4.522  15.620  0.00  0.00    +0.000 C 
ATOM     27  S   UNL     1       7.218   4.739  17.393  0.00  0.00    +0.000 S 
ENDBRANCH  20  27
ENDBRANCH   1  24
TORSDOF 3
ENDMDL
MODEL 7
REMARK VINA RESULT:      -7.7      3.455      9.460
REMARK  Name = 
REMARK  4 active torsions:
REMARK  status: ('A' for Active; 'I' for Inactive)
REMARK    1  A    between atoms: C_1  and  S_2
REMARK    2  A    between atoms: S_2  and  C_3
REMARK    3  A    between atoms: C_7  and  C_8
REMARK    4  A    between atoms: C_13  and  C_15
REMARK                            x       y       z     vdW  Elec       q    Type
REMARK                         _______ _______ _______ _____ _____    ______ ____
ROOT
ATOM      1  C   UNL     1       2.487   7.561  18.170  0.00  0.00    +0.000 A 
ATOM      2  N   UNL     1       2.626   8.428  17.187  0.00  0.00    +0.000 NA
ATOM      3  N   UNL     1       2.050   9.605  17.625  0.00  0.00    +0.000 NA
ATOM      4  C   UNL     1       1.601   9.370  18.838  0.00  0.00    +0.000 A 
ATOM      5  N   UNL     1       0.984  10.274  19.654  0.00  0.00    +0.000 N 
ATOM      6  C   UNL     1       0.446   9.936  20.872  0.00  0.00    +0.000 C 
ATOM      7  O   UNL     1       0.410   8.811  21.356  0.00  0.00    +0.000 OA
ATOM      8  O   UNL     1       1.840   8.095  19.253  0.00  0.00    +0.000 OA
ATOM      9  H   UNL     1       0.870  11.190  19.252  0.00  0.00    +0.000 HD
ENDROOT
BRANCH   6  10
ATOM     10  C   UNL     1      -0.206  11.055  21.619  0.00  0.00    +0.000 A 
ATOM     11  C   UNL     1      -1.136  10.845  22.648  0.00  0.00    +0.000 A 
ATOM     12  C   UNL     1      -1.629  11.934  23.376  0.00  0.00    +0.000 A 
ATOM     13  C   UNL     1      -1.203  13.228  23.079  0.00  0.00    +0.000 A 
ATOM     14  C   UNL     1      -0.346  13.440  22.001  0.00  0.00    +0.000 A 
ATOM     15  C   UNL     1       0.150  12.364  21.271  0.00  0.00    +0.000 A 
ATOM     16  O   UNL     1       0.050  14.690  21.612  0.00  0.00    +0.000 OA
ATOM     17  C   UNL     1       0.128  15.543  22.750  0.00  0.00    +0.000 C 
ATOM     18  C   UNL     1      -1.155  15.527  23.573  0.00  0.00    +0.000 C 
ATOM     19  O   UNL     1      -1.641  14.222  23.906  0.00  0.00    +0.000 OA
ENDBRANCH   6  10
BRANCH   1  24
ATOM     20  C   UNL     1       2.555   3.889  19.010  0.00  0.00    +0.000 A 
ATOM     21  C   UNL     1       3.791   3.519  18.461  0.00  0.00    +0.000 A 
ATOM     22  C   UNL     1       4.609   4.461  17.836  0.00  0.00    +0.000 A 
ATOM     23  C   UNL     1       4.197   5.788  17.749  0.00  0.00    +0.000 A 
ATOM     24  C   UNL     1       2.961   6.189  18.275  0.00  0.00    +0.000 A 
ATOM     25  C   UNL     1       2.156   5.227  18.911  0.00  0.00    +0.000 A 
BRANCH  20  27
ATOM     26  C   UNL     1       1.928   2.816  21.557  0.00  0.00    +0.000 C 
ATOM     27  S   UNL     1       1.602   2.590  19.788  0.00  0.00    +0.000 S 
ENDBRANCH  20  27
ENDBRANCH   1  24
TORSDOF 3
ENDMDL
MODEL 8
REMARK VINA RESULT:      -7.7      3.439      9.485
REMARK  Name = 
REMARK  4 active torsions:
REMARK  status: ('A' for Active; 'I' for Inactive)
REMARK    1  A    between atoms: C_1  and  S_2
REMARK    2  A    between atoms: S_2  and  C_3
REMARK    3  A    between atoms: C_7  and  C_8
REMARK    4  A    between atoms: C_13  and  C_15
REMARK                            x       y       z     vdW  Elec       q    Type
REMARK                         _______ _______ _______ _____ _____    ______ ____
ROOT
ATOM      1  C   UNL     1       2.672   7.522  18.214  0.00  0.00    +0.000 A 
ATOM      2  N   UNL     1       2.780   8.382  17.221  0.00  0.00    +0.000 NA
ATOM      3  N   UNL     1       2.043   9.492  17.587  0.00  0.00    +0.000 NA
ATOM      4  C   UNL     1       1.538   9.226  18.772  0.00  0.00    +0.000 A 
ATOM      5  N   UNL     1       0.762  10.065  19.520  0.00  0.00    +0.000 N 
ATOM      6  C   UNL     1       0.180   9.688  20.705  0.00  0.00    +0.000 C 
ATOM      7  O   UNL     1       0.240   8.574  21.214  0.00  0.00    +0.000 OA
ATOM      8  O   UNL     1       1.892   7.996  19.235  0.00  0.00    +0.000 OA
ATOM      9  H   UNL     1       0.572  10.955  19.087  0.00  0.00    +0.000 HD
ENDROOT
BRANCH   6  10
ATOM     10  C   UNL     1      -0.648  10.735  21.377  0.00  0.00    +0.000 A 
ATOM     11  C   UNL     1      -0.971  10.694  22.741  0.00  0.00    +0.000 A 
ATOM     12  C   UNL     1      -1.662  11.760  23.328  0.00  0.00    +0.000 A 
ATOM     13  C   UNL     1      -2.038  12.862  22.559  0.00  0.00    +0.000 A 
ATOM     14  C   UNL     1      -1.792  12.860  21.188  0.00  0.00    +0.000 A 
ATOM     15  C   UNL     1      -1.104  11.804  20.595  0.00  0.00    +0.000 A 
ATOM     16  O   UNL     1      -2.199  13.875  20.365  0.00  0.00    +0.000 OA
ATOM     17  C   UNL     1      -2.180  15.106  21.082  0.00  0.00    +0.000 C 
ATOM     18  C   UNL     1      -2.949  15.024  22.394  0.00  0.00    +0.000 C 
ATOM     19  O   UNL     1      -2.607  13.909  23.225  0.00  0.00    +0.000 OA
ENDBRANCH   6  10
BRANCH   1  24
ATOM     20  C   UNL     1       3.064   3.861  19.012  0.00  0.00    +0.000 A 
ATOM     21  C   UNL     1       4.414   3.667  18.688  0.00  0.00    +0.000 A 
ATOM     22  C   UNL     1       5.201   4.724  18.229  0.00  0.00    +0.000 A 
ATOM     23  C   UNL     1       4.643   5.992  18.084  0.00  0.00    +0.000 A 
ATOM     24  C   UNL     1       3.293   6.218  18.386  0.00  0.00    +0.000 A 
ATOM     25  C   UNL     1       2.520   5.142  18.858  0.00  0.00    +0.000 A 
BRANCH  20  27
ATOM     26  C   UNL     1       1.359   3.011  21.110  0.00  0.00    +0.000 C 
ATOM     27  S   UNL     1       2.164   2.429  19.594  0.00  0.00    +0.000 S 
ENDBRANCH  20  27
ENDBRANCH   1  24
TORSDOF 3
ENDMDL
MODEL 9
REMARK VINA RESULT:      -7.6      4.086      9.956
REMARK  Name = 
REMARK  4 active torsions:
REMARK  status: ('A' for Active; 'I' for Inactive)
REMARK    1  A    between atoms: C_1  and  S_2
REMARK    2  A    between atoms: S_2  and  C_3
REMARK    3  A    between atoms: C_7  and  C_8
REMARK    4  A    between atoms: C_13  and  C_15
REMARK                            x       y       z     vdW  Elec       q    Type
REMARK                         _______ _______ _______ _____ _____    ______ ____
ROOT
ATOM      1  C   UNL     1       4.802   4.377  16.517  0.00  0.00    +0.000 A 
ATOM      2  N   UNL     1       4.465   3.368  17.295  0.00  0.00    +0.000 NA
ATOM      3  N   UNL     1       3.613   3.884  18.252  0.00  0.00    +0.000 NA
ATOM      4  C   UNL     1       3.495   5.168  17.990  0.00  0.00    +0.000 A 
ATOM      5  N   UNL     1       2.720   6.059  18.676  0.00  0.00    +0.000 N 
ATOM      6  C   UNL     1       2.722   7.407  18.415  0.00  0.00    +0.000 C 
ATOM      7  O   UNL     1       3.425   7.980  17.590  0.00  0.00    +0.000 OA
ATOM      8  O   UNL     1       4.221   5.556  16.905  0.00  0.00    +0.000 OA
ATOM      9  H   UNL     1       2.216   5.662  19.453  0.00  0.00    +0.000 HD
ENDROOT
BRANCH   6  10
ATOM     10  C   UNL     1       1.822   8.230  19.278  0.00  0.00    +0.000 A 
ATOM     11  C   UNL     1       1.567   7.925  20.624  0.00  0.00    +0.000 A 
ATOM     12  C   UNL     1       0.797   8.796  21.403  0.00  0.00    +0.000 A 
ATOM     13  C   UNL     1       0.277   9.964  20.846  0.00  0.00    +0.000 A 
ATOM     14  C   UNL     1       0.460  10.220  19.489  0.00  0.00    +0.000 A 
ATOM     15  C   UNL     1       1.224   9.360  18.705  0.00  0.00    +0.000 A 
ATOM     16  O   UNL     1      -0.085  11.309  18.865  0.00  0.00    +0.000 OA
ATOM     17  C   UNL     1      -0.159  12.396  19.781  0.00  0.00    +0.000 C 
ATOM     18  C   UNL     1      -0.857  12.011  21.080  0.00  0.00    +0.000 C 
ATOM     19  O   UNL     1      -0.365  10.816  21.697  0.00  0.00    +0.000 OA
ENDBRANCH   6  10
BRANCH   1  24
ATOM     20  C   UNL     1       6.006   3.606  13.031  0.00  0.00    +0.000 A 
ATOM     21  C   UNL     1       7.145   4.421  12.963  0.00  0.00    +0.000 A 
ATOM     22  C   UNL     1       7.532   5.205  14.050  0.00  0.00    +0.000 A 
ATOM     23  C   UNL     1       6.780   5.186  15.222  0.00  0.00    +0.000 A 
ATOM     24  C   UNL     1       5.628   4.393  15.319  0.00  0.00    +0.000 A 
ATOM     25  C   UNL     1       5.261   3.601  14.216  0.00  0.00    +0.000 A 
BRANCH  20  27
ATOM     26  C   UNL     1       3.933   3.163  11.151  0.00  0.00    +0.000 C 
ATOM     27  S   UNL     1       5.618   2.645  11.573  0.00  0.00    +0.000 S 
ENDBRANCH  20  27
ENDBRANCH   1  24
TORSDOF 3
ENDMDL
