MODEL 1
REMARK VINA RESULT:      -7.8      0.000      0.000
REMARK  Name = 
REMARK  5 active torsions:
REMARK  status: ('A' for Active; 'I' for Inactive)
REMARK    1  A    between atoms: C_1  and  C_2
REMARK    2  A    between atoms: C_2  and  O_4
REMARK    3  A    between atoms: O_4  and  C_5
REMARK    4  A    between atoms: C_17  and  C_18
REMARK    5  A    between atoms: C_19  and  C_20
REMARK                            x       y       z     vdW  Elec       q    Type
REMARK                         _______ _______ _______ _____ _____    ______ ____
ROOT
ATOM      1  C   UNL     1       6.619   4.820  15.718  0.00  0.00    +0.000 C 
ATOM      2  C   UNL     1       7.498   4.715  16.970  0.00  0.00    +0.000 C 
ATOM      3  C   UNL     1       6.790   4.460  18.250  0.00  0.00    +0.000 C 
ATOM      4  C   UNL     1       5.472   4.610  18.421  0.00  0.00    +0.000 C 
ATOM      5  C   UNL     1       4.860   4.172  19.677  0.00  0.00    +0.000 C 
ATOM      6  C   UNL     1       3.581   3.776  19.694  0.00  0.00    +0.000 C 
ATOM      7  O   UNL     1       2.872   3.395  20.812  0.00  0.00    +0.000 OA
ATOM      8  C   UNL     1       1.609   3.151  20.330  0.00  0.00    +0.000 C 
ATOM      9  O   UNL     1       0.652   2.808  21.005  0.00  0.00    +0.000 OA
ATOM     10  C   UNL     1       1.544   3.356  18.878  0.00  0.00    +0.000 C 
ATOM     11  C   UNL     1       2.767   3.722  18.527  0.00  0.00    +0.000 C 
ATOM     12  C   UNL     1       3.363   4.092  17.201  0.00  0.00    +0.000 C 
ATOM     13  C   UNL     1       4.514   5.156  17.346  0.00  0.00    +0.000 C 
ATOM     14  C   UNL     1       3.891   6.480  17.892  0.00  0.00    +0.000 C 
ATOM     15  C   UNL     1       5.178   5.392  15.917  0.00  0.00    +0.000 C 
ATOM     16  C   UNL     1       5.036   6.826  15.362  0.00  0.00    +0.000 C 
ENDROOT
BRANCH   1  17
ATOM     17  O   UNL     1       7.322   5.623  14.727  0.00  0.00    +0.000 OA
BRANCH  17  19
ATOM     18  C   UNL     1       6.574   3.905  13.299  0.00  0.00    +0.000 C 
ATOM     19  C   UNL     1       7.434   5.124  13.470  0.00  0.00    +0.000 C 
ATOM     20  O   UNL     1       8.143   5.583  12.590  0.00  0.00    +0.000 OA
ENDBRANCH  17  19
ENDBRANCH   1  17
TORSDOF 2
ENDMDL
MODEL 2
REMARK VINA RESULT:      -7.3      1.105      6.631
REMARK  Name = 
REMARK  5 active torsions:
REMARK  status: ('A' for Active; 'I' for Inactive)
REMARK    1  A    between atoms: C_1  and  C_2
REMARK    2  A    between atoms: C_2  and  O_4
REMARK    3  A    between atoms: O_4  and  C_5
REMARK    4  A    between atoms: C_17  and  C_18
REMARK    5  A    between atoms: C_19  and  C_20
REMARK                            x       y       z     vdW  Elec       q    Type
REMARK                         _______ _______ _______ _____ _____    ______ ____
ROOT
ATOM      1  C   UNL     1       2.501   4.631  19.346  0.00  0.00    +0.000 C 
ATOM      2  C   UNL     1       2.532   6.150  19.138  0.00  0.00    +0.000 C 
ATOM      3  C   UNL     1       3.424   6.646  18.059  0.00  0.00    +0.000 C 
ATOM      4  C   UNL     1       4.387   5.917  17.487  0.00  0.00    +0.000 C 
ATOM      5  C   UNL     1       5.096   6.454  16.323  0.00  0.00    +0.000 C 
ATOM      6  C   UNL     1       5.612   5.620  15.413  0.00  0.00    +0.000 C 
ATOM      7  O   UNL     1       6.346   5.991  14.307  0.00  0.00    +0.000 OA
ATOM      8  C   UNL     1       6.703   4.794  13.735  0.00  0.00    +0.000 C 
ATOM      9  O   UNL     1       7.388   4.669  12.734  0.00  0.00    +0.000 OA
ATOM     10  C   UNL     1       6.154   3.660  14.487  0.00  0.00    +0.000 C 
ATOM     11  C   UNL     1       5.485   4.204  15.492  0.00  0.00    +0.000 C 
ATOM     12  C   UNL     1       4.709   3.602  16.626  0.00  0.00    +0.000 C 
ATOM     13  C   UNL     1       4.771   4.491  17.923  0.00  0.00    +0.000 C 
ATOM     14  C   UNL     1       6.251   4.527  18.421  0.00  0.00    +0.000 C 
ATOM     15  C   UNL     1       3.818   3.851  19.029  0.00  0.00    +0.000 C 
ATOM     16  C   UNL     1       4.538   3.374  20.310  0.00  0.00    +0.000 C 
ENDROOT
BRANCH   1  17
ATOM     17  O   UNL     1       2.102   4.362  20.720  0.00  0.00    +0.000 OA
BRANCH  17  19
ATOM     18  C   UNL     1       0.550   2.878  19.751  0.00  0.00    +0.000 C 
ATOM     19  C   UNL     1       1.359   3.252  20.959  0.00  0.00    +0.000 C 
ATOM     20  O   UNL     1       1.329   2.637  22.012  0.00  0.00    +0.000 OA
ENDBRANCH  17  19
ENDBRANCH   1  17
TORSDOF 2
ENDMDL
MODEL 3
REMARK VINA RESULT:      -7.2      3.011      3.994
REMARK  Name = 
REMARK  5 active torsions:
REMARK  status: ('A' for Active; 'I' for Inactive)
REMARK    1  A    between atoms: C_1  and  C_2
REMARK    2  A    between atoms: C_2  and  O_4
REMARK    3  A    between atoms: O_4  and  C_5
REMARK    4  A    between atoms: C_17  and  C_18
REMARK    5  A    between atoms: C_19  and  C_20
REMARK                            x       y       z     vdW  Elec       q    Type
REMARK                         _______ _______ _______ _____ _____    ______ ____
ROOT
ATOM      1  C   UNL     1       5.339   5.076  17.313  0.00  0.00    +0.000 C 
ATOM      2  C   UNL     1       5.254   6.282  16.370  0.00  0.00    +0.000 C 
ATOM      3  C   UNL     1       4.253   7.321  16.723  0.00  0.00    +0.000 C 
ATOM      4  C   UNL     1       3.257   7.138  17.597  0.00  0.00    +0.000 C 
ATOM      5  C   UNL     1       2.430   8.281  17.988  0.00  0.00    +0.000 C 
ATOM      6  C   UNL     1       1.850   8.302  19.194  0.00  0.00    +0.000 C 
ATOM      7  O   UNL     1       1.007   9.286  19.663  0.00  0.00    +0.000 OA
ATOM      8  C   UNL     1       0.625   8.827  20.900  0.00  0.00    +0.000 C 
ATOM      9  O   UNL     1      -0.148   9.394  21.654  0.00  0.00    +0.000 OA
ATOM     10  C   UNL     1       1.269   7.546  21.215  0.00  0.00    +0.000 C 
ATOM     11  C   UNL     1       2.017   7.267  20.158  0.00  0.00    +0.000 C 
ATOM     12  C   UNL     1       2.910   6.106  19.836  0.00  0.00    +0.000 C 
ATOM     13  C   UNL     1       2.949   5.800  18.293  0.00  0.00    +0.000 C 
ATOM     14  C   UNL     1       1.522   5.348  17.847  0.00  0.00    +0.000 C 
ATOM     15  C   UNL     1       4.016   4.647  18.026  0.00  0.00    +0.000 C 
ATOM     16  C   UNL     1       3.432   3.342  17.439  0.00  0.00    +0.000 C 
ENDROOT
BRANCH   1  17
ATOM     17  O   UNL     1       5.872   3.945  16.567  0.00  0.00    +0.000 OA
BRANCH  17  19
ATOM     18  C   UNL     1       6.041   3.852  14.218  0.00  0.00    +0.000 C 
ATOM     19  C   UNL     1       6.696   4.207  15.521  0.00  0.00    +0.000 C 
ATOM     20  O   UNL     1       7.827   4.657  15.611  0.00  0.00    +0.000 OA
ENDBRANCH  17  19
ENDBRANCH   1  17
TORSDOF 2
ENDMDL
MODEL 4
REMARK VINA RESULT:      -7.0      1.567      2.391
REMARK  Name = 
REMARK  5 active torsions:
REMARK  status: ('A' for Active; 'I' for Inactive)
REMARK    1  A    between atoms: C_1  and  C_2
REMARK    2  A    between atoms: C_2  and  O_4
REMARK    3  A    between atoms: O_4  and  C_5
REMARK    4  A    between atoms: C_17  and  C_18
REMARK    5  A    between atoms: C_19  and  C_20
REMARK                            x       y       z     vdW  Elec       q    Type
REMARK                         _______ _______ _______ _____ _____    ______ ____
ROOT
ATOM      1  C   UNL     1       5.544   5.704  16.518  0.00  0.00    +0.000 C 
ATOM      2  C   UNL     1       4.625   6.905  16.769  0.00  0.00    +0.000 C 
ATOM      3  C   UNL     1       3.543   6.706  17.766  0.00  0.00    +0.000 C 
ATOM      4  C   UNL     1       3.147   5.510  18.215  0.00  0.00    +0.000 C 
ATOM      5  C   UNL     1       2.184   5.442  19.317  0.00  0.00    +0.000 C 
ATOM      6  C   UNL     1       2.190   4.390  20.144  0.00  0.00    +0.000 C 
ATOM      7  O   UNL     1       1.307   4.177  21.180  0.00  0.00    +0.000 OA
ATOM      8  C   UNL     1       1.674   2.949  21.675  0.00  0.00    +0.000 C 
ATOM      9  O   UNL     1       1.126   2.369  22.597  0.00  0.00    +0.000 OA
ATOM     10  C   UNL     1       2.827   2.405  20.948  0.00  0.00    +0.000 C 
ATOM     11  C   UNL     1       3.120   3.317  20.033  0.00  0.00    +0.000 C 
ATOM     12  C   UNL     1       4.172   3.368  18.966  0.00  0.00    +0.000 C 
ATOM     13  C   UNL     1       3.690   4.165  17.698  0.00  0.00    +0.000 C 
ATOM     14  C   UNL     1       2.500   3.386  17.054  0.00  0.00    +0.000 C 
ATOM     15  C   UNL     1       4.906   4.286  16.675  0.00  0.00    +0.000 C 
ATOM     16  C   UNL     1       4.682   3.592  15.313  0.00  0.00    +0.000 C 
ENDROOT
BRANCH   1  17
ATOM     17  O   UNL     1       6.113   5.830  15.184  0.00  0.00    +0.000 OA
BRANCH  17  19
ATOM     18  C   UNL     1       7.506   5.086  13.435  0.00  0.00    +0.000 C 
ATOM     19  C   UNL     1       7.253   5.146  14.913  0.00  0.00    +0.000 C 
ATOM     20  O   UNL     1       7.980   4.630  15.747  0.00  0.00    +0.000 OA
ENDBRANCH  17  19
ENDBRANCH   1  17
TORSDOF 2
ENDMDL
MODEL 5
REMARK VINA RESULT:      -6.9      2.061      2.761
REMARK  Name = 
REMARK  5 active torsions:
REMARK  status: ('A' for Active; 'I' for Inactive)
REMARK    1  A    between atoms: C_1  and  C_2
REMARK    2  A    between atoms: C_2  and  O_4
REMARK    3  A    between atoms: O_4  and  C_5
REMARK    4  A    between atoms: C_17  and  C_18
REMARK    5  A    between atoms: C_19  and  C_20
REMARK                            x       y       z     vdW  Elec       q    Type
REMARK                         _______ _______ _______ _____ _____    ______ ____
ROOT
ATOM      1  C   UNL     1       5.300   4.268  15.729  0.00  0.00    +0.000 C 
ATOM      2  C   UNL     1       4.681   3.002  16.331  0.00  0.00    +0.000 C 
ATOM      3  C   UNL     1       3.809   3.197  17.518  0.00  0.00    +0.000 C 
ATOM      4  C   UNL     1       3.773   4.318  18.245  0.00  0.00    +0.000 C 
ATOM      5  C   UNL     1       2.758   4.459  19.293  0.00  0.00    +0.000 C 
ATOM      6  C   UNL     1       2.316   5.675  19.633  0.00  0.00    +0.000 C 
ATOM      7  O   UNL     1       1.410   5.949  20.635  0.00  0.00    +0.000 OA
ATOM      8  C   UNL     1       1.335   7.321  20.640  0.00  0.00    +0.000 C 
ATOM      9  O   UNL     1       0.653   7.986  21.403  0.00  0.00    +0.000 OA
ATOM     10  C   UNL     1       2.191   7.906  19.601  0.00  0.00    +0.000 C 
ATOM     11  C   UNL     1       2.760   6.872  19.001  0.00  0.00    +0.000 C 
ATOM     12  C   UNL     1       3.746   6.781  17.875  0.00  0.00    +0.000 C 
ATOM     13  C   UNL     1       4.693   5.532  18.016  0.00  0.00    +0.000 C 
ATOM     14  C   UNL     1       5.562   5.720  19.300  0.00  0.00    +0.000 C 
ATOM     15  C   UNL     1       5.613   5.437  16.719  0.00  0.00    +0.000 C 
ATOM     16  C   UNL     1       7.128   5.588  16.983  0.00  0.00    +0.000 C 
ENDROOT
BRANCH   1  17
ATOM     17  O   UNL     1       6.518   3.896  15.023  0.00  0.00    +0.000 OA
BRANCH  17  19
ATOM     18  C   UNL     1       5.904   3.571  12.771  0.00  0.00    +0.000 C 
ATOM     19  C   UNL     1       6.693   4.373  13.766  0.00  0.00    +0.000 C 
ATOM     20  O   UNL     1       7.404   5.318  13.464  0.00  0.00    +0.000 OA
ENDBRANCH  17  19
ENDBRANCH   1  17
TORSDOF 2
ENDMDL
MODEL 6
REMARK VINA RESULT:      -6.8      1.120      1.330
REMARK  Name = 
REMARK  5 active torsions:
REMARK  status: ('A' for Active; 'I' for Inactive)
REMARK    1  A    between atoms: C_1  and  C_2
REMARK    2  A    between atoms: C_2  and  O_4
REMARK    3  A    between atoms: O_4  and  C_5
REMARK    4  A    between atoms: C_17  and  C_18
REMARK    5  A    between atoms: C_19  and  C_20
REMARK                            x       y       z     vdW  Elec       q    Type
REMARK                         _______ _______ _______ _____ _____    ______ ____
ROOT
ATOM      1  C   UNL     1       5.296   4.724  16.142  0.00  0.00    +0.000 C 
ATOM      2  C   UNL     1       6.449   4.198  17.004  0.00  0.00    +0.000 C 
ATOM      3  C   UNL     1       6.090   3.733  18.368  0.00  0.00    +0.000 C 
ATOM      4  C   UNL     1       4.931   4.012  18.975  0.00  0.00    +0.000 C 
ATOM      5  C   UNL     1       4.619   3.365  20.252  0.00  0.00    +0.000 C 
ATOM      6  C   UNL     1       3.344   3.152  20.597  0.00  0.00    +0.000 C 
ATOM      7  O   UNL     1       2.914   2.607  21.787  0.00  0.00    +0.000 OA
ATOM      8  C   UNL     1       1.544   2.659  21.694  0.00  0.00    +0.000 C 
ATOM      9  O   UNL     1       0.765   2.293  22.558  0.00  0.00    +0.000 OA
ATOM     10  C   UNL     1       1.119   3.222  20.407  0.00  0.00    +0.000 C 
ATOM     11  C   UNL     1       2.242   3.496  19.762  0.00  0.00    +0.000 C 
ATOM     12  C   UNL     1       2.507   4.097  18.413  0.00  0.00    +0.000 C 
ATOM     13  C   UNL     1       3.842   4.928  18.388  0.00  0.00    +0.000 C 
ATOM     14  C   UNL     1       3.678   6.148  19.348  0.00  0.00    +0.000 C 
ATOM     15  C   UNL     1       4.114   5.416  16.895  0.00  0.00    +0.000 C 
ATOM     16  C   UNL     1       4.116   6.949  16.702  0.00  0.00    +0.000 C 
ENDROOT
BRANCH   1  17
ATOM     17  O   UNL     1       5.841   5.643  15.154  0.00  0.00    +0.000 OA
BRANCH  17  19
ATOM     18  C   UNL     1       6.239   4.004  13.509  0.00  0.00    +0.000 C 
ATOM     19  C   UNL     1       6.775   5.167  14.292  0.00  0.00    +0.000 C 
ATOM     20  O   UNL     1       7.907   5.604  14.168  0.00  0.00    +0.000 OA
ENDBRANCH  17  19
ENDBRANCH   1  17
TORSDOF 2
ENDMDL
MODEL 7
REMARK VINA RESULT:      -6.7      3.269      4.438
REMARK  Name = 
REMARK  5 active torsions:
REMARK  status: ('A' for Active; 'I' for Inactive)
REMARK    1  A    between atoms: C_1  and  C_2
REMARK    2  A    between atoms: C_2  and  O_4
REMARK    3  A    between atoms: O_4  and  C_5
REMARK    4  A    between atoms: C_17  and  C_18
REMARK    5  A    between atoms: C_19  and  C_20
REMARK                            x       y       z     vdW  Elec       q    Type
REMARK                         _______ _______ _______ _____ _____    ______ ____
ROOT
ATOM      1  C   UNL     1       5.226   5.533  17.634  0.00  0.00    +0.000 C 
ATOM      2  C   UNL     1       5.129   6.709  16.655  0.00  0.00    +0.000 C 
ATOM      3  C   UNL     1       4.078   7.718  16.944  0.00  0.00    +0.000 C 
ATOM      4  C   UNL     1       3.060   7.521  17.788  0.00  0.00    +0.000 C 
ATOM      5  C   UNL     1       2.178   8.643  18.119  0.00  0.00    +0.000 C 
ATOM      6  C   UNL     1       1.555   8.674  19.304  0.00  0.00    +0.000 C 
ATOM      7  O   UNL     1       0.660   9.637  19.716  0.00  0.00    +0.000 OA
ATOM      8  C   UNL     1       0.253   9.197  20.952  0.00  0.00    +0.000 C 
ATOM      9  O   UNL     1      -0.567   9.754  21.663  0.00  0.00    +0.000 OA
ATOM     10  C   UNL     1       0.932   7.950  21.324  0.00  0.00    +0.000 C 
ATOM     11  C   UNL     1       1.726   7.672  20.301  0.00  0.00    +0.000 C 
ATOM     12  C   UNL     1       2.673   6.537  20.043  0.00  0.00    +0.000 C 
ATOM     13  C   UNL     1       2.777   6.191  18.512  0.00  0.00    +0.000 C 
ATOM     14  C   UNL     1       1.385   5.674  18.030  0.00  0.00    +0.000 C 
ATOM     15  C   UNL     1       3.895   5.073  18.314  0.00  0.00    +0.000 C 
ATOM     16  C   UNL     1       3.381   3.732  17.744  0.00  0.00    +0.000 C 
ENDROOT
BRANCH   1  17
ATOM     17  O   UNL     1       5.826   4.403  16.938  0.00  0.00    +0.000 OA
BRANCH  17  19
ATOM     18  C   UNL     1       7.990   4.534  17.861  0.00  0.00    +0.000 C 
ATOM     19  C   UNL     1       7.143   4.481  16.623  0.00  0.00    +0.000 C 
ATOM     20  O   UNL     1       7.595   4.518  15.490  0.00  0.00    +0.000 OA
ENDBRANCH  17  19
ENDBRANCH   1  17
TORSDOF 2
ENDMDL
MODEL 8
REMARK VINA RESULT:      -6.7      1.710      2.983
REMARK  Name = 
REMARK  5 active torsions:
REMARK  status: ('A' for Active; 'I' for Inactive)
REMARK    1  A    between atoms: C_1  and  C_2
REMARK    2  A    between atoms: C_2  and  O_4
REMARK    3  A    between atoms: O_4  and  C_5
REMARK    4  A    between atoms: C_17  and  C_18
REMARK    5  A    between atoms: C_19  and  C_20
REMARK                            x       y       z     vdW  Elec       q    Type
REMARK                         _______ _______ _______ _____ _____    ______ ____
ROOT
ATOM      1  C   UNL     1       5.060   6.312  17.268  0.00  0.00    +0.000 C 
ATOM      2  C   UNL     1       3.804   7.188  17.332  0.00  0.00    +0.000 C 
ATOM      3  C   UNL     1       2.687   6.676  18.165  0.00  0.00    +0.000 C 
ATOM      4  C   UNL     1       2.592   5.414  18.600  0.00  0.00    +0.000 C 
ATOM      5  C   UNL     1       1.534   5.063  19.550  0.00  0.00    +0.000 C 
ATOM      6  C   UNL     1       1.719   4.055  20.411  0.00  0.00    +0.000 C 
ATOM      7  O   UNL     1       0.788   3.588  21.313  0.00  0.00    +0.000 OA
ATOM      8  C   UNL     1       1.417   2.520  21.907  0.00  0.00    +0.000 C 
ATOM      9  O   UNL     1       0.926   1.801  22.761  0.00  0.00    +0.000 OA
ATOM     10  C   UNL     1       2.775   2.342  21.381  0.00  0.00    +0.000 C 
ATOM     11  C   UNL     1       2.926   3.303  20.483  0.00  0.00    +0.000 C 
ATOM     12  C   UNL     1       4.069   3.666  19.582  0.00  0.00    +0.000 C 
ATOM     13  C   UNL     1       3.576   4.291  18.224  0.00  0.00    +0.000 C 
ATOM     14  C   UNL     1       2.777   3.199  17.444  0.00  0.00    +0.000 C 
ATOM     15  C   UNL     1       4.846   4.768  17.388  0.00  0.00    +0.000 C 
ATOM     16  C   UNL     1       5.045   4.044  16.038  0.00  0.00    +0.000 C 
ENDROOT
BRANCH   1  17
ATOM     17  O   UNL     1       5.765   6.605  16.029  0.00  0.00    +0.000 OA
BRANCH  17  19
ATOM     18  C   UNL     1       7.730   7.249  17.159  0.00  0.00    +0.000 C 
ATOM     19  C   UNL     1       7.116   6.482  16.024  0.00  0.00    +0.000 C 
ATOM     20  O   UNL     1       7.763   5.849  15.205  0.00  0.00    +0.000 OA
ENDBRANCH  17  19
ENDBRANCH   1  17
TORSDOF 2
ENDMDL
MODEL 9
REMARK VINA RESULT:      -6.6      1.323      6.643
REMARK  Name = 
REMARK  5 active torsions:
REMARK  status: ('A' for Active; 'I' for Inactive)
REMARK    1  A    between atoms: C_1  and  C_2
REMARK    2  A    between atoms: C_2  and  O_4
REMARK    3  A    between atoms: O_4  and  C_5
REMARK    4  A    between atoms: C_17  and  C_18
REMARK    5  A    between atoms: C_19  and  C_20
REMARK                            x       y       z     vdW  Elec       q    Type
REMARK                         _______ _______ _______ _____ _____    ______ ____
ROOT
ATOM      1  C   UNL     1       3.552   3.633  20.323  0.00  0.00    +0.000 C 
ATOM      2  C   UNL     1       3.025   2.517  19.413  0.00  0.00    +0.000 C 
ATOM      3  C   UNL     1       3.513   2.529  18.010  0.00  0.00    +0.000 C 
ATOM      4  C   UNL     1       4.115   3.575  17.434  0.00  0.00    +0.000 C 
ATOM      5  C   UNL     1       4.700   3.418  16.100  0.00  0.00    +0.000 C 
ATOM      6  C   UNL     1       5.743   4.174  15.737  0.00  0.00    +0.000 C 
ATOM      7  O   UNL     1       6.348   4.166  14.499  0.00  0.00    +0.000 OA
ATOM      8  C   UNL     1       7.305   5.146  14.597  0.00  0.00    +0.000 C 
ATOM      9  O   UNL     1       8.061   5.485  13.702  0.00  0.00    +0.000 OA
ATOM     10  C   UNL     1       7.311   5.754  15.934  0.00  0.00    +0.000 C 
ATOM     11  C   UNL     1       6.355   5.125  16.602  0.00  0.00    +0.000 C 
ATOM     12  C   UNL     1       5.841   5.277  18.002  0.00  0.00    +0.000 C 
ATOM     13  C   UNL     1       4.307   4.946  18.109  0.00  0.00    +0.000 C 
ATOM     14  C   UNL     1       3.519   6.003  17.272  0.00  0.00    +0.000 C 
ATOM     15  C   UNL     1       3.875   5.002  19.642  0.00  0.00    +0.000 C 
ATOM     16  C   UNL     1       2.829   6.086  19.984  0.00  0.00    +0.000 C 
ENDROOT
BRANCH   1  17
ATOM     17  O   UNL     1       2.591   3.845  21.396  0.00  0.00    +0.000 OA
BRANCH  17  19
ATOM     18  C   UNL     1       0.546   3.313  20.353  0.00  0.00    +0.000 C 
ATOM     19  C   UNL     1       1.518   3.017  21.458  0.00  0.00    +0.000 C 
ATOM     20  O   UNL     1       1.343   2.151  22.301  0.00  0.00    +0.000 OA
ENDBRANCH  17  19
ENDBRANCH   1  17
TORSDOF 2
ENDMDL
