MODEL 1
REMARK VINA RESULT:      -8.3      0.000      0.000
REMARK  Name = 
REMARK  10 active torsions:
REMARK  status: ('A' for Active; 'I' for Inactive)
REMARK    1  A    between atoms: C_1  and  C_2
REMARK    2  A    between atoms: C_5  and  C_6
REMARK    3  A    between atoms: C_6  and  C_7
REMARK    4  A    between atoms: C_6  and  C_8
REMARK    5  A    between atoms: C_9  and  O_10
REMARK    6  A    between atoms: O_10  and  C_11
REMARK    7  A    between atoms: C_13  and  C_14
REMARK    8  A    between atoms: N_15  and  O_16
REMARK    9  A    between atoms: N_17  and  C_18
REMARK   10  A    between atoms: C_18  and  C_19
REMARK                            x       y       z     vdW  Elec       q    Type
REMARK                         _______ _______ _______ _____ _____    ______ ____
ROOT
ATOM      1  C   UNL     1       2.405   7.564  19.356  0.00  0.00    +0.000 A 
ATOM      2  C   UNL     1       1.864   8.188  20.473  0.00  0.00    +0.000 A 
ATOM      3  C   UNL     1       1.004   9.277  20.273  0.00  0.00    +0.000 A 
ATOM      4  C   UNL     1       0.719   9.690  18.972  0.00  0.00    +0.000 A 
ATOM      5  C   UNL     1       1.340   9.029  17.929  0.00  0.00    +0.000 A 
ATOM      6  N   UNL     1       2.192   7.998  18.093  0.00  0.00    +0.000 NA
ENDROOT
BRANCH   3   7
ATOM      7  C   UNL     1       0.334   9.960  21.452  0.00  0.00    +0.000 C 
ATOM      8  N   UNL     1       0.722   9.522  22.617  0.00  0.00    +0.000 NA
ATOM      9  N   UNL     1      -0.616  10.939  21.177  0.00  0.00    +0.000 N 
ATOM     10  H   UNL     1      -0.750  11.175  20.203  0.00  0.00    +0.000 HD
BRANCH   8  11
ATOM     11  O   UNL     1      -0.008  10.051  23.682  0.00  0.00    +0.000 OA
ATOM     12  H   UNL     1      -0.843  10.317  23.258  0.00  0.00    +0.000 HD
ENDBRANCH   8  11
BRANCH   9  13
ATOM     13  C   UNL     1      -0.899  12.088  22.022  0.00  0.00    +0.000 C 
BRANCH  13  14
ATOM     14  C   UNL     1      -2.378  12.326  22.187  0.00  0.00    +0.000 A 
ATOM     15  C   UNL     1      -3.149  12.802  21.117  0.00  0.00    +0.000 A 
ATOM     16  C   UNL     1      -4.502  13.079  21.299  0.00  0.00    +0.000 A 
ATOM     17  C   UNL     1      -5.050  12.875  22.552  0.00  0.00    +0.000 A 
ATOM     18  N   UNL     1      -4.345  12.430  23.613  0.00  0.00    +0.000 NA
ATOM     19  C   UNL     1      -3.027  12.179  23.410  0.00  0.00    +0.000 A 
ENDBRANCH  13  14
ENDBRANCH   9  13
ENDBRANCH   3   7
BRANCH   1  20
ATOM     20  O   UNL     1       3.214   6.448  19.565  0.00  0.00    +0.000 OA
BRANCH  20  26
ATOM     21  C   UNL     1       0.536   2.358  18.776  0.00  0.00    +0.000 C 
ATOM     22  C   UNL     1       1.686   3.253  18.419  0.00  0.00    +0.000 A 
ATOM     23  C   UNL     1       2.543   2.940  17.366  0.00  0.00    +0.000 A 
ATOM     24  C   UNL     1       3.611   3.783  17.053  0.00  0.00    +0.000 A 
ATOM     25  C   UNL     1       3.842   4.981  17.760  0.00  0.00    +0.000 A 
ATOM     26  C   UNL     1       2.963   5.304  18.819  0.00  0.00    +0.000 A 
ATOM     27  C   UNL     1       1.920   4.421  19.154  0.00  0.00    +0.000 A 
BRANCH  25  28
ATOM     28  C   UNL     1       5.032   5.865  17.405  0.00  0.00    +0.000 C 
ATOM     29  C   UNL     1       6.321   5.302  18.011  0.00  0.00    +0.000 C 
ATOM     30  C   UNL     1       5.231   6.076  15.894  0.00  0.00    +0.000 C 
ENDBRANCH  25  28
ENDBRANCH  20  26
ENDBRANCH   1  20
TORSDOF 7
ENDMDL
MODEL 2
REMARK VINA RESULT:      -8.0      0.741      2.596
REMARK  Name = 
REMARK  10 active torsions:
REMARK  status: ('A' for Active; 'I' for Inactive)
REMARK    1  A    between atoms: C_1  and  C_2
REMARK    2  A    between atoms: C_5  and  C_6
REMARK    3  A    between atoms: C_6  and  C_7
REMARK    4  A    between atoms: C_6  and  C_8
REMARK    5  A    between atoms: C_9  and  O_10
REMARK    6  A    between atoms: O_10  and  C_11
REMARK    7  A    between atoms: C_13  and  C_14
REMARK    8  A    between atoms: N_15  and  O_16
REMARK    9  A    between atoms: N_17  and  C_18
REMARK   10  A    between atoms: C_18  and  C_19
REMARK                            x       y       z     vdW  Elec       q    Type
REMARK                         _______ _______ _______ _____ _____    ______ ____
ROOT
ATOM      1  C   UNL     1       2.124   7.581  19.548  0.00  0.00    +0.000 A 
ATOM      2  C   UNL     1       1.495   8.307  20.552  0.00  0.00    +0.000 A 
ATOM      3  C   UNL     1       0.861   9.509  20.202  0.00  0.00    +0.000 A 
ATOM      4  C   UNL     1       0.880   9.927  18.873  0.00  0.00    +0.000 A 
ATOM      5  C   UNL     1       1.568   9.155  17.957  0.00  0.00    +0.000 A 
ATOM      6  N   UNL     1       2.209   8.011  18.269  0.00  0.00    +0.000 NA
ENDROOT
BRANCH   3   7
ATOM      7  C   UNL     1       0.105  10.314  21.243  0.00  0.00    +0.000 C 
ATOM      8  N   UNL     1       0.459  10.067  22.474  0.00  0.00    +0.000 NA
ATOM      9  N   UNL     1      -0.877  11.191  20.793  0.00  0.00    +0.000 N 
ATOM     10  H   UNL     1      -0.977  11.279  19.791  0.00  0.00    +0.000 HD
BRANCH   8  11
ATOM     11  O   UNL     1      -0.345  10.702  23.422  0.00  0.00    +0.000 OA
ATOM     12  H   UNL     1      -1.181  10.834  22.940  0.00  0.00    +0.000 HD
ENDBRANCH   8  11
BRANCH   9  13
ATOM     13  C   UNL     1      -1.255  12.431  21.452  0.00  0.00    +0.000 C 
BRANCH  13  14
ATOM     14  C   UNL     1      -2.746  12.546  21.642  0.00  0.00    +0.000 A 
ATOM     15  C   UNL     1      -3.578  12.898  20.571  0.00  0.00    +0.000 A 
ATOM     16  C   UNL     1      -4.947  13.064  20.774  0.00  0.00    +0.000 A 
ATOM     17  C   UNL     1      -5.448  12.876  22.049  0.00  0.00    +0.000 A 
ATOM     18  N   UNL     1      -4.683  12.548  23.111  0.00  0.00    +0.000 NA
ATOM     19  C   UNL     1      -3.354  12.404  22.887  0.00  0.00    +0.000 A 
ENDBRANCH  13  14
ENDBRANCH   9  13
ENDBRANCH   3   7
BRANCH   1  20
ATOM     20  O   UNL     1       2.702   6.361  19.896  0.00  0.00    +0.000 OA
BRANCH  20  26
ATOM     21  C   UNL     1       5.843   5.548  16.156  0.00  0.00    +0.000 C 
ATOM     22  C   UNL     1       4.680   5.116  16.999  0.00  0.00    +0.000 A 
ATOM     23  C   UNL     1       4.024   3.911  16.759  0.00  0.00    +0.000 A 
ATOM     24  C   UNL     1       2.939   3.530  17.551  0.00  0.00    +0.000 A 
ATOM     25  C   UNL     1       2.492   4.323  18.628  0.00  0.00    +0.000 A 
ATOM     26  C   UNL     1       3.168   5.539  18.879  0.00  0.00    +0.000 A 
ATOM     27  C   UNL     1       4.229   5.933  18.042  0.00  0.00    +0.000 A 
BRANCH  25  28
ATOM     28  C   UNL     1       1.291   3.885  19.458  0.00  0.00    +0.000 C 
ATOM     29  C   UNL     1       0.586   2.696  18.798  0.00  0.00    +0.000 C 
ATOM     30  C   UNL     1       1.628   3.531  20.917  0.00  0.00    +0.000 C 
ENDBRANCH  25  28
ENDBRANCH  20  26
ENDBRANCH   1  20
TORSDOF 7
ENDMDL
MODEL 3
REMARK VINA RESULT:      -7.9      1.556      2.329
REMARK  Name = 
REMARK  10 active torsions:
REMARK  status: ('A' for Active; 'I' for Inactive)
REMARK    1  A    between atoms: C_1  and  C_2
REMARK    2  A    between atoms: C_5  and  C_6
REMARK    3  A    between atoms: C_6  and  C_7
REMARK    4  A    between atoms: C_6  and  C_8
REMARK    5  A    between atoms: C_9  and  O_10
REMARK    6  A    between atoms: O_10  and  C_11
REMARK    7  A    between atoms: C_13  and  C_14
REMARK    8  A    between atoms: N_15  and  O_16
REMARK    9  A    between atoms: N_17  and  C_18
REMARK   10  A    between atoms: C_18  and  C_19
REMARK                            x       y       z     vdW  Elec       q    Type
REMARK                         _______ _______ _______ _____ _____    ______ ____
ROOT
ATOM      1  C   UNL     1       2.506   7.561  19.274  0.00  0.00    +0.000 A 
ATOM      2  C   UNL     1       1.730   8.063  20.311  0.00  0.00    +0.000 A 
ATOM      3  C   UNL     1       0.900   9.163  20.045  0.00  0.00    +0.000 A 
ATOM      4  C   UNL     1       0.880   9.705  18.761  0.00  0.00    +0.000 A 
ATOM      5  C   UNL     1       1.720   9.159  17.810  0.00  0.00    +0.000 A 
ATOM      6  N   UNL     1       2.547   8.121  18.044  0.00  0.00    +0.000 NA
ENDROOT
BRANCH   3   7
ATOM      7  C   UNL     1      -0.016   9.717  21.120  0.00  0.00    +0.000 C 
ATOM      8  N   UNL     1       0.060   9.095  22.264  0.00  0.00    +0.000 NA
ATOM      9  N   UNL     1      -0.839  10.787  20.780  0.00  0.00    +0.000 N 
ATOM     10  H   UNL     1      -0.722  11.165  19.849  0.00  0.00    +0.000 HD
BRANCH   8  11
ATOM     11  O   UNL     1      -0.892   9.518  23.193  0.00  0.00    +0.000 OA
ATOM     12  H   UNL     1      -0.811   8.852  23.899  0.00  0.00    +0.000 HD
ENDBRANCH   8  11
BRANCH   9  13
ATOM     13  C   UNL     1      -1.285  11.822  21.698  0.00  0.00    +0.000 C 
BRANCH  13  14
ATOM     14  C   UNL     1      -0.337  12.992  21.746  0.00  0.00    +0.000 A 
ATOM     15  C   UNL     1       0.781  13.041  20.902  0.00  0.00    +0.000 A 
ATOM     16  C   UNL     1       1.686  14.097  20.999  0.00  0.00    +0.000 A 
ATOM     17  C   UNL     1       1.449  15.078  21.944  0.00  0.00    +0.000 A 
ATOM     18  N   UNL     1       0.393  15.066  22.785  0.00  0.00    +0.000 NA
ATOM     19  C   UNL     1      -0.465  14.021  22.676  0.00  0.00    +0.000 A 
ENDBRANCH  13  14
ENDBRANCH   9  13
ENDBRANCH   3   7
BRANCH   1  20
ATOM     20  O   UNL     1       3.284   6.433  19.535  0.00  0.00    +0.000 OA
BRANCH  20  26
ATOM     21  C   UNL     1       0.513   2.404  18.758  0.00  0.00    +0.000 C 
ATOM     22  C   UNL     1       1.704   3.252  18.422  0.00  0.00    +0.000 A 
ATOM     23  C   UNL     1       2.592   2.881  17.415  0.00  0.00    +0.000 A 
ATOM     24  C   UNL     1       3.698   3.681  17.122  0.00  0.00    +0.000 A 
ATOM     25  C   UNL     1       3.938   4.893  17.802  0.00  0.00    +0.000 A 
ATOM     26  C   UNL     1       3.028   5.275  18.814  0.00  0.00    +0.000 A 
ATOM     27  C   UNL     1       1.944   4.435  19.131  0.00  0.00    +0.000 A 
BRANCH  25  28
ATOM     28  C   UNL     1       5.168   5.730  17.470  0.00  0.00    +0.000 C 
ATOM     29  C   UNL     1       6.440   4.882  17.573  0.00  0.00    +0.000 C 
ATOM     30  C   UNL     1       5.117   6.404  16.088  0.00  0.00    +0.000 C 
ENDBRANCH  25  28
ENDBRANCH  20  26
ENDBRANCH   1  20
TORSDOF 7
ENDMDL
MODEL 4
REMARK VINA RESULT:      -7.9      1.270      3.014
REMARK  Name = 
REMARK  10 active torsions:
REMARK  status: ('A' for Active; 'I' for Inactive)
REMARK    1  A    between atoms: C_1  and  C_2
REMARK    2  A    between atoms: C_5  and  C_6
REMARK    3  A    between atoms: C_6  and  C_7
REMARK    4  A    between atoms: C_6  and  C_8
REMARK    5  A    between atoms: C_9  and  O_10
REMARK    6  A    between atoms: O_10  and  C_11
REMARK    7  A    between atoms: C_13  and  C_14
REMARK    8  A    between atoms: N_15  and  O_16
REMARK    9  A    between atoms: N_17  and  C_18
REMARK   10  A    between atoms: C_18  and  C_19
REMARK                            x       y       z     vdW  Elec       q    Type
REMARK                         _______ _______ _______ _____ _____    ______ ____
ROOT
ATOM      1  C   UNL     1       1.917   8.284  18.361  0.00  0.00    +0.000 A 
ATOM      2  C   UNL     1       1.463   8.440  19.665  0.00  0.00    +0.000 A 
ATOM      3  C   UNL     1       1.161   9.735  20.111  0.00  0.00    +0.000 A 
ATOM      4  C   UNL     1       1.320  10.810  19.238  0.00  0.00    +0.000 A 
ATOM      5  C   UNL     1       1.817  10.555  17.974  0.00  0.00    +0.000 A 
ATOM      6  N   UNL     1       2.142   9.326  17.529  0.00  0.00    +0.000 NA
ENDROOT
BRANCH   3   7
ATOM      7  C   UNL     1       0.602   9.962  21.504  0.00  0.00    +0.000 C 
ATOM      8  N   UNL     1       1.324   9.449  22.461  0.00  0.00    +0.000 NA
ATOM      9  N   UNL     1      -0.600  10.652  21.613  0.00  0.00    +0.000 N 
ATOM     10  H   UNL     1      -0.991  11.014  20.754  0.00  0.00    +0.000 HD
BRANCH   8  11
ATOM     11  O   UNL     1       0.724   9.535  23.719  0.00  0.00    +0.000 OA
ATOM     12  H   UNL     1       0.971   8.688  24.131  0.00  0.00    +0.000 HD
ENDBRANCH   8  11
BRANCH   9  13
ATOM     13  C   UNL     1      -0.983  11.491  22.738  0.00  0.00    +0.000 C 
BRANCH  13  14
ATOM     14  C   UNL     1      -2.293  12.198  22.506  0.00  0.00    +0.000 A 
ATOM     15  C   UNL     1      -3.226  12.332  23.543  0.00  0.00    +0.000 A 
ATOM     16  C   UNL     1      -4.461  12.931  23.300  0.00  0.00    +0.000 A 
ATOM     17  C   UNL     1      -4.732  13.378  22.020  0.00  0.00    +0.000 A 
ATOM     18  N   UNL     1      -3.869  13.260  20.989  0.00  0.00    +0.000 NA
ATOM     19  C   UNL     1      -2.680  12.663  21.252  0.00  0.00    +0.000 A 
ENDBRANCH  13  14
ENDBRANCH   9  13
ENDBRANCH   3   7
BRANCH   1  20
ATOM     20  O   UNL     1       2.162   6.988  17.911  0.00  0.00    +0.000 OA
BRANCH  20  26
ATOM     21  C   UNL     1       7.067   6.736  17.284  0.00  0.00    +0.000 C 
ATOM     22  C   UNL     1       5.805   6.222  17.910  0.00  0.00    +0.000 A 
ATOM     23  C   UNL     1       5.822   5.131  18.777  0.00  0.00    +0.000 A 
ATOM     24  C   UNL     1       4.634   4.663  19.344  0.00  0.00    +0.000 A 
ATOM     25  C   UNL     1       3.395   5.287  19.089  0.00  0.00    +0.000 A 
ATOM     26  C   UNL     1       3.382   6.401  18.221  0.00  0.00    +0.000 A 
ATOM     27  C   UNL     1       4.579   6.832  17.619  0.00  0.00    +0.000 A 
BRANCH  25  28
ATOM     28  C   UNL     1       2.116   4.735  19.709  0.00  0.00    +0.000 C 
ATOM     29  C   UNL     1       1.633   3.502  18.938  0.00  0.00    +0.000 C 
ATOM     30  C   UNL     1       2.240   4.384  21.202  0.00  0.00    +0.000 C 
ENDBRANCH  25  28
ENDBRANCH  20  26
ENDBRANCH   1  20
TORSDOF 7
ENDMDL
MODEL 5
REMARK VINA RESULT:      -7.8      1.853      2.425
REMARK  Name = 
REMARK  10 active torsions:
REMARK  status: ('A' for Active; 'I' for Inactive)
REMARK    1  A    between atoms: C_1  and  C_2
REMARK    2  A    between atoms: C_5  and  C_6
REMARK    3  A    between atoms: C_6  and  C_7
REMARK    4  A    between atoms: C_6  and  C_8
REMARK    5  A    between atoms: C_9  and  O_10
REMARK    6  A    between atoms: O_10  and  C_11
REMARK    7  A    between atoms: C_13  and  C_14
REMARK    8  A    between atoms: N_15  and  O_16
REMARK    9  A    between atoms: N_17  and  C_18
REMARK   10  A    between atoms: C_18  and  C_19
REMARK                            x       y       z     vdW  Elec       q    Type
REMARK                         _______ _______ _______ _____ _____    ______ ____
ROOT
ATOM      1  C   UNL     1       2.341   7.820  18.748  0.00  0.00    +0.000 A 
ATOM      2  C   UNL     1       1.568   8.867  18.265  0.00  0.00    +0.000 A 
ATOM      3  C   UNL     1       0.721   9.535  19.162  0.00  0.00    +0.000 A 
ATOM      4  C   UNL     1       0.689   9.132  20.495  0.00  0.00    +0.000 A 
ATOM      5  C   UNL     1       1.465   8.052  20.869  0.00  0.00    +0.000 A 
ATOM      6  N   UNL     1       2.266   7.374  20.023  0.00  0.00    +0.000 NA
ENDROOT
BRANCH   3   7
ATOM      7  C   UNL     1      -0.101  10.727  18.706  0.00  0.00    +0.000 C 
ATOM      8  N   UNL     1      -0.998  10.446  17.802  0.00  0.00    +0.000 NA
ATOM      9  N   UNL     1       0.192  11.966  19.266  0.00  0.00    +0.000 N 
ATOM     10  H   UNL     1       0.897  11.977  19.991  0.00  0.00    +0.000 HD
BRANCH   8  11
ATOM     11  O   UNL     1      -1.641  11.573  17.287  0.00  0.00    +0.000 OA
ATOM     12  H   UNL     1      -1.565  12.214  18.016  0.00  0.00    +0.000 HD
ENDBRANCH   8  11
BRANCH   9  13
ATOM     13  C   UNL     1      -0.769  13.037  19.477  0.00  0.00    +0.000 C 
BRANCH  13  14
ATOM     14  C   UNL     1      -1.589  12.832  20.724  0.00  0.00    +0.000 A 
ATOM     15  C   UNL     1      -0.980  12.434  21.922  0.00  0.00    +0.000 A 
ATOM     16  C   UNL     1      -1.756  12.187  23.053  0.00  0.00    +0.000 A 
ATOM     17  C   UNL     1      -3.127  12.341  22.954  0.00  0.00    +0.000 A 
ATOM     18  N   UNL     1      -3.757  12.710  21.819  0.00  0.00    +0.000 NA
ATOM     19  C   UNL     1      -2.978  12.934  20.731  0.00  0.00    +0.000 A 
ENDBRANCH  13  14
ENDBRANCH   9  13
ENDBRANCH   3   7
BRANCH   1  20
ATOM     20  O   UNL     1       3.220   7.200  17.861  0.00  0.00    +0.000 OA
BRANCH  20  26
ATOM     21  C   UNL     1       0.914   2.917  18.788  0.00  0.00    +0.000 C 
ATOM     22  C   UNL     1       2.061   3.677  18.192  0.00  0.00    +0.000 A 
ATOM     23  C   UNL     1       3.094   3.020  17.528  0.00  0.00    +0.000 A 
ATOM     24  C   UNL     1       4.157   3.747  16.986  0.00  0.00    +0.000 A 
ATOM     25  C   UNL     1       4.208   5.154  17.061  0.00  0.00    +0.000 A 
ATOM     26  C   UNL     1       3.153   5.820  17.724  0.00  0.00    +0.000 A 
ATOM     27  C   UNL     1       2.113   5.072  18.307  0.00  0.00    +0.000 A 
BRANCH  25  28
ATOM     28  C   UNL     1       5.396   5.911  16.477  0.00  0.00    +0.000 C 
ATOM     29  C   UNL     1       6.533   6.000  17.499  0.00  0.00    +0.000 C 
ATOM     30  C   UNL     1       5.937   5.318  15.165  0.00  0.00    +0.000 C 
ENDBRANCH  25  28
ENDBRANCH  20  26
ENDBRANCH   1  20
TORSDOF 7
ENDMDL
MODEL 6
REMARK VINA RESULT:      -7.8      2.642      3.488
REMARK  Name = 
REMARK  10 active torsions:
REMARK  status: ('A' for Active; 'I' for Inactive)
REMARK    1  A    between atoms: C_1  and  C_2
REMARK    2  A    between atoms: C_5  and  C_6
REMARK    3  A    between atoms: C_6  and  C_7
REMARK    4  A    between atoms: C_6  and  C_8
REMARK    5  A    between atoms: C_9  and  O_10
REMARK    6  A    between atoms: O_10  and  C_11
REMARK    7  A    between atoms: C_13  and  C_14
REMARK    8  A    between atoms: N_15  and  O_16
REMARK    9  A    between atoms: N_17  and  C_18
REMARK   10  A    between atoms: C_18  and  C_19
REMARK                            x       y       z     vdW  Elec       q    Type
REMARK                         _______ _______ _______ _____ _____    ______ ____
ROOT
ATOM      1  C   UNL     1       2.306   7.639  18.861  0.00  0.00    +0.000 A 
ATOM      2  C   UNL     1       1.669   8.837  18.566  0.00  0.00    +0.000 A 
ATOM      3  C   UNL     1       0.962   9.481  19.592  0.00  0.00    +0.000 A 
ATOM      4  C   UNL     1       0.927   8.905  20.860  0.00  0.00    +0.000 A 
ATOM      5  C   UNL     1       1.558   7.689  21.041  0.00  0.00    +0.000 A 
ATOM      6  N   UNL     1       2.221   7.035  20.068  0.00  0.00    +0.000 NA
ENDROOT
BRANCH   3   7
ATOM      7  C   UNL     1       0.297  10.824  19.347  0.00  0.00    +0.000 C 
ATOM      8  N   UNL     1       1.059  11.700  18.754  0.00  0.00    +0.000 NA
ATOM      9  N   UNL     1      -1.012  10.987  19.790  0.00  0.00    +0.000 N 
ATOM     10  H   UNL     1      -1.456  10.172  20.191  0.00  0.00    +0.000 HD
BRANCH   8  11
ATOM     11  O   UNL     1       0.487  12.970  18.671  0.00  0.00    +0.000 OA
ATOM     12  H   UNL     1      -0.397  12.832  19.054  0.00  0.00    +0.000 HD
ENDBRANCH   8  11
BRANCH   9  13
ATOM     13  C   UNL     1      -2.002  11.851  19.168  0.00  0.00    +0.000 C 
BRANCH  13  14
ATOM     14  C   UNL     1      -2.604  11.234  17.931  0.00  0.00    +0.000 A 
ATOM     15  C   UNL     1      -1.913  10.245  17.217  0.00  0.00    +0.000 A 
ATOM     16  C   UNL     1      -2.451   9.728  16.041  0.00  0.00    +0.000 A 
ATOM     17  C   UNL     1      -3.669  10.218  15.605  0.00  0.00    +0.000 A 
ATOM     18  N   UNL     1      -4.363  11.177  16.253  0.00  0.00    +0.000 NA
ATOM     19  C   UNL     1      -3.811  11.670  17.390  0.00  0.00    +0.000 A 
ENDBRANCH  13  14
ENDBRANCH   9  13
ENDBRANCH   3   7
BRANCH   1  20
ATOM     20  O   UNL     1       3.052   7.036  17.849  0.00  0.00    +0.000 OA
BRANCH  20  26
ATOM     21  C   UNL     1       0.806   2.715  18.740  0.00  0.00    +0.000 C 
ATOM     22  C   UNL     1       1.974   3.491  18.210  0.00  0.00    +0.000 A 
ATOM     23  C   UNL     1       3.075   2.846  17.652  0.00  0.00    +0.000 A 
ATOM     24  C   UNL     1       4.156   3.588  17.170  0.00  0.00    +0.000 A 
ATOM     25  C   UNL     1       4.161   4.998  17.201  0.00  0.00    +0.000 A 
ATOM     26  C   UNL     1       3.037   5.651  17.754  0.00  0.00    +0.000 A 
ATOM     27  C   UNL     1       1.976   4.889  18.280  0.00  0.00    +0.000 A 
BRANCH  25  28
ATOM     28  C   UNL     1       5.368   5.773  16.685  0.00  0.00    +0.000 C 
ATOM     29  C   UNL     1       6.611   5.451  17.520  0.00  0.00    +0.000 C 
ATOM     30  C   UNL     1       5.680   5.536  15.197  0.00  0.00    +0.000 C 
ENDBRANCH  25  28
ENDBRANCH  20  26
ENDBRANCH   1  20
TORSDOF 7
ENDMDL
MODEL 7
REMARK VINA RESULT:      -7.8      0.981      2.786
REMARK  Name = 
REMARK  10 active torsions:
REMARK  status: ('A' for Active; 'I' for Inactive)
REMARK    1  A    between atoms: C_1  and  C_2
REMARK    2  A    between atoms: C_5  and  C_6
REMARK    3  A    between atoms: C_6  and  C_7
REMARK    4  A    between atoms: C_6  and  C_8
REMARK    5  A    between atoms: C_9  and  O_10
REMARK    6  A    between atoms: O_10  and  C_11
REMARK    7  A    between atoms: C_13  and  C_14
REMARK    8  A    between atoms: N_15  and  O_16
REMARK    9  A    between atoms: N_17  and  C_18
REMARK   10  A    between atoms: C_18  and  C_19
REMARK                            x       y       z     vdW  Elec       q    Type
REMARK                         _______ _______ _______ _____ _____    ______ ____
ROOT
ATOM      1  C   UNL     1       2.426   7.177  19.384  0.00  0.00    +0.000 A 
ATOM      2  C   UNL     1       1.905   7.849  20.482  0.00  0.00    +0.000 A 
ATOM      3  C   UNL     1       1.219   9.052  20.257  0.00  0.00    +0.000 A 
ATOM      4  C   UNL     1       1.082   9.524  18.953  0.00  0.00    +0.000 A 
ATOM      5  C   UNL     1       1.672   8.803  17.933  0.00  0.00    +0.000 A 
ATOM      6  N   UNL     1       2.360   7.659  18.122  0.00  0.00    +0.000 NA
ENDROOT
BRANCH   3   7
ATOM      7  C   UNL     1       0.575   9.800  21.410  0.00  0.00    +0.000 C 
ATOM      8  N   UNL     1       0.903   9.354  22.590  0.00  0.00    +0.000 NA
ATOM      9  N   UNL     1      -0.295  10.841  21.098  0.00  0.00    +0.000 N 
ATOM     10  H   UNL     1      -0.389  11.070  20.118  0.00  0.00    +0.000 HD
BRANCH   8  11
ATOM     11  O   UNL     1       0.189   9.952  23.630  0.00  0.00    +0.000 OA
ATOM     12  H   UNL     1      -0.725   9.669  23.452  0.00  0.00    +0.000 HD
ENDBRANCH   8  11
BRANCH   9  13
ATOM     13  C   UNL     1      -0.513  12.021  21.920  0.00  0.00    +0.000 C 
BRANCH  13  14
ATOM     14  C   UNL     1      -1.973  12.376  22.035  0.00  0.00    +0.000 A 
ATOM     15  C   UNL     1      -2.622  12.341  23.277  0.00  0.00    +0.000 A 
ATOM     16  C   UNL     1      -3.987  12.609  23.361  0.00  0.00    +0.000 A 
ATOM     17  C   UNL     1      -4.670  12.903  22.195  0.00  0.00    +0.000 A 
ATOM     18  N   UNL     1      -4.090  12.937  20.977  0.00  0.00    +0.000 NA
ATOM     19  C   UNL     1      -2.763  12.661  20.924  0.00  0.00    +0.000 A 
ENDBRANCH  13  14
ENDBRANCH   9  13
ENDBRANCH   3   7
BRANCH   1  20
ATOM     20  O   UNL     1       3.057   5.954  19.613  0.00  0.00    +0.000 OA
BRANCH  20  26
ATOM     21  C   UNL     1       7.319   6.626  17.185  0.00  0.00    +0.000 C 
ATOM     22  C   UNL     1       6.077   5.827  17.439  0.00  0.00    +0.000 A 
ATOM     23  C   UNL     1       5.815   4.656  16.732  0.00  0.00    +0.000 A 
ATOM     24  C   UNL     1       4.648   3.929  16.979  0.00  0.00    +0.000 A 
ATOM     25  C   UNL     1       3.719   4.331  17.961  0.00  0.00    +0.000 A 
ATOM     26  C   UNL     1       3.992   5.512  18.687  0.00  0.00    +0.000 A 
ATOM     27  C   UNL     1       5.148   6.259  18.393  0.00  0.00    +0.000 A 
BRANCH  25  28
ATOM     28  C   UNL     1       2.445   3.524  18.187  0.00  0.00    +0.000 C 
ATOM     29  C   UNL     1       1.260   4.177  17.469  0.00  0.00    +0.000 C 
ATOM     30  C   UNL     1       2.549   2.050  17.761  0.00  0.00    +0.000 C 
ENDBRANCH  25  28
ENDBRANCH  20  26
ENDBRANCH   1  20
TORSDOF 7
ENDMDL
MODEL 8
REMARK VINA RESULT:      -7.8      3.221      9.338
REMARK  Name = 
REMARK  10 active torsions:
REMARK  status: ('A' for Active; 'I' for Inactive)
REMARK    1  A    between atoms: C_1  and  C_2
REMARK    2  A    between atoms: C_5  and  C_6
REMARK    3  A    between atoms: C_6  and  C_7
REMARK    4  A    between atoms: C_6  and  C_8
REMARK    5  A    between atoms: C_9  and  O_10
REMARK    6  A    between atoms: O_10  and  C_11
REMARK    7  A    between atoms: C_13  and  C_14
REMARK    8  A    between atoms: N_15  and  O_16
REMARK    9  A    between atoms: N_17  and  C_18
REMARK   10  A    between atoms: C_18  and  C_19
REMARK                            x       y       z     vdW  Elec       q    Type
REMARK                         _______ _______ _______ _____ _____    ______ ____
ROOT
ATOM      1  C   UNL     1       1.793   8.541  19.053  0.00  0.00    +0.000 A 
ATOM      2  C   UNL     1       2.359   7.388  18.524  0.00  0.00    +0.000 A 
ATOM      3  C   UNL     1       2.424   6.248  19.339  0.00  0.00    +0.000 A 
ATOM      4  C   UNL     1       1.919   6.309  20.636  0.00  0.00    +0.000 A 
ATOM      5  C   UNL     1       1.413   7.514  21.083  0.00  0.00    +0.000 A 
ATOM      6  N   UNL     1       1.363   8.632  20.332  0.00  0.00    +0.000 NA
ENDROOT
BRANCH   3   7
ATOM      7  C   UNL     1       2.976   4.942  18.797  0.00  0.00    +0.000 C 
ATOM      8  N   UNL     1       2.443   3.874  19.324  0.00  0.00    +0.000 NA
ATOM      9  N   UNL     1       3.982   5.014  17.838  0.00  0.00    +0.000 N 
ATOM     10  H   UNL     1       4.234   5.939  17.519  0.00  0.00    +0.000 HD
BRANCH   8  11
ATOM     11  O   UNL     1       3.063   2.688  18.926  0.00  0.00    +0.000 OA
ATOM     12  H   UNL     1       3.208   2.832  17.974  0.00  0.00    +0.000 HD
ENDBRANCH   8  11
BRANCH   9  13
ATOM     13  C   UNL     1       4.203   4.035  16.785  0.00  0.00    +0.000 C 
BRANCH  13  14
ATOM     14  C   UNL     1       5.311   4.443  15.848  0.00  0.00    +0.000 A 
ATOM     15  C   UNL     1       5.387   3.906  14.556  0.00  0.00    +0.000 A 
ATOM     16  C   UNL     1       6.451   4.242  13.721  0.00  0.00    +0.000 A 
ATOM     17  C   UNL     1       7.416   5.107  14.205  0.00  0.00    +0.000 A 
ATOM     18  N   UNL     1       7.389   5.638  15.445  0.00  0.00    +0.000 NA
ATOM     19  C   UNL     1       6.348   5.285  16.240  0.00  0.00    +0.000 A 
ENDBRANCH  13  14
ENDBRANCH   9  13
ENDBRANCH   3   7
BRANCH   1  20
ATOM     20  O   UNL     1       1.682   9.651  18.217  0.00  0.00    +0.000 OA
BRANCH  20  26
ATOM     21  C   UNL     1      -3.166   9.923  17.252  0.00  0.00    +0.000 C 
ATOM     22  C   UNL     1      -1.896  10.557  17.734  0.00  0.00    +0.000 A 
ATOM     23  C   UNL     1      -1.869  11.881  18.166  0.00  0.00    +0.000 A 
ATOM     24  C   UNL     1      -0.674  12.455  18.605  0.00  0.00    +0.000 A 
ATOM     25  C   UNL     1       0.527  11.718  18.656  0.00  0.00    +0.000 A 
ATOM     26  C   UNL     1       0.495  10.371  18.231  0.00  0.00    +0.000 A 
ATOM     27  C   UNL     1      -0.706   9.821  17.746  0.00  0.00    +0.000 A 
BRANCH  25  28
ATOM     28  C   UNL     1       1.818  12.385  19.120  0.00  0.00    +0.000 C 
ATOM     29  C   UNL     1       2.305  13.398  18.079  0.00  0.00    +0.000 C 
ATOM     30  C   UNL     1       1.712  13.076  20.491  0.00  0.00    +0.000 C 
ENDBRANCH  25  28
ENDBRANCH  20  26
ENDBRANCH   1  20
TORSDOF 7
ENDMDL
MODEL 9
REMARK VINA RESULT:      -7.7      2.395      2.889
REMARK  Name = 
REMARK  10 active torsions:
REMARK  status: ('A' for Active; 'I' for Inactive)
REMARK    1  A    between atoms: C_1  and  C_2
REMARK    2  A    between atoms: C_5  and  C_6
REMARK    3  A    between atoms: C_6  and  C_7
REMARK    4  A    between atoms: C_6  and  C_8
REMARK    5  A    between atoms: C_9  and  O_10
REMARK    6  A    between atoms: O_10  and  C_11
REMARK    7  A    between atoms: C_13  and  C_14
REMARK    8  A    between atoms: N_15  and  O_16
REMARK    9  A    between atoms: N_17  and  C_18
REMARK   10  A    between atoms: C_18  and  C_19
REMARK                            x       y       z     vdW  Elec       q    Type
REMARK                         _______ _______ _______ _____ _____    ______ ____
ROOT
ATOM      1  C   UNL     1       2.450   7.573  18.692  0.00  0.00    +0.000 A 
ATOM      2  C   UNL     1       1.769   8.684  18.211  0.00  0.00    +0.000 A 
ATOM      3  C   UNL     1       0.983   9.420  19.111  0.00  0.00    +0.000 A 
ATOM      4  C   UNL     1       0.917   9.018  20.444  0.00  0.00    +0.000 A 
ATOM      5  C   UNL     1       1.600   7.875  20.814  0.00  0.00    +0.000 A 
ATOM      6  N   UNL     1       2.339   7.133  19.966  0.00  0.00    +0.000 NA
ENDROOT
BRANCH   3   7
ATOM      7  C   UNL     1       0.264  10.678  18.659  0.00  0.00    +0.000 C 
ATOM      8  N   UNL     1       1.051  11.690  18.423  0.00  0.00    +0.000 NA
ATOM      9  N   UNL     1      -1.123  10.632  18.568  0.00  0.00    +0.000 N 
ATOM     10  H   UNL     1      -1.557   9.737  18.750  0.00  0.00    +0.000 HD
BRANCH   8  11
ATOM     11  O   UNL     1       0.368  12.877  18.154  0.00  0.00    +0.000 OA
ATOM     12  H   UNL     1       0.517  13.398  18.963  0.00  0.00    +0.000 HD
ENDBRANCH   8  11
BRANCH   9  13
ATOM     13  C   UNL     1      -1.925  11.404  17.632  0.00  0.00    +0.000 C 
BRANCH  13  14
ATOM     14  C   UNL     1      -3.348  11.571  18.099  0.00  0.00    +0.000 A 
ATOM     15  C   UNL     1      -4.418  11.180  17.283  0.00  0.00    +0.000 A 
ATOM     16  C   UNL     1      -5.730  11.398  17.698  0.00  0.00    +0.000 A 
ATOM     17  C   UNL     1      -5.938  12.006  18.923  0.00  0.00    +0.000 A 
ATOM     18  N   UNL     1      -4.939  12.409  19.736  0.00  0.00    +0.000 NA
ATOM     19  C   UNL     1      -3.672  12.195  19.301  0.00  0.00    +0.000 A 
ENDBRANCH  13  14
ENDBRANCH   9  13
ENDBRANCH   3   7
BRANCH   1  20
ATOM     20  O   UNL     1       3.272   6.883  17.802  0.00  0.00    +0.000 OA
BRANCH  20  26
ATOM     21  C   UNL     1       0.717   2.751  18.756  0.00  0.00    +0.000 C 
ATOM     22  C   UNL     1       1.945   3.431  18.229  0.00  0.00    +0.000 A 
ATOM     23  C   UNL     1       3.008   2.698  17.708  0.00  0.00    +0.000 A 
ATOM     24  C   UNL     1       4.146   3.351  17.229  0.00  0.00    +0.000 A 
ATOM     25  C   UNL     1       4.248   4.757  17.225  0.00  0.00    +0.000 A 
ATOM     26  C   UNL     1       3.162   5.500  17.741  0.00  0.00    +0.000 A 
ATOM     27  C   UNL     1       2.043   4.827  18.265  0.00  0.00    +0.000 A 
BRANCH  25  28
ATOM     28  C   UNL     1       5.515   5.434  16.713  0.00  0.00    +0.000 C 
ATOM     29  C   UNL     1       6.735   4.537  16.944  0.00  0.00    +0.000 C 
ATOM     30  C   UNL     1       5.457   5.842  15.231  0.00  0.00    +0.000 C 
ENDBRANCH  25  28
ENDBRANCH  20  26
ENDBRANCH   1  20
TORSDOF 7
ENDMDL
