MODEL 1
REMARK VINA RESULT:      -7.3      0.000      0.000
REMARK  Name = 
REMARK  5 active torsions:
REMARK  status: ('A' for Active; 'I' for Inactive)
REMARK    1  A    between atoms: C_1  and  O_2
REMARK    2  A    between atoms: O_2  and  C_3
REMARK    3  A    between atoms: C_3  and  C_4
REMARK    4  A    between atoms: C_4  and  N_5
REMARK    5  A    between atoms: C_11  and  C_12
REMARK                            x       y       z     vdW  Elec       q    Type
REMARK                         _______ _______ _______ _____ _____    ______ ____
ROOT
ATOM      1  N   UNL     1       6.217   5.959  17.333  0.00  0.00    +0.000 N 
ATOM      2  C   UNL     1       5.343   5.905  16.149  0.00  0.00    +0.000 C 
ATOM      3  O   UNL     1       5.160   6.793  15.317  0.00  0.00    +0.000 OA
ATOM      4  N   UNL     1       4.509   4.821  16.092  0.00  0.00    +0.000 N 
ATOM      5  C   UNL     1       4.554   4.231  17.326  0.00  0.00    +0.000 C 
ATOM      6  C   UNL     1       4.450   5.380  18.559  0.00  0.00    +0.000 C 
ATOM      7  C   UNL     1       5.894   5.214  18.765  0.00  0.00    +0.000 C 
ATOM      8  C   UNL     1       7.063   5.571  19.689  0.00  0.00    +0.000 C 
ATOM      9  O   UNL     1       5.770   3.609  19.194  0.00  0.00    +0.000 OA
ATOM     10  C   UNL     1       4.446   2.968  19.128  0.00  0.00    +0.000 A 
ATOM     11  C   UNL     1       3.473   2.917  20.124  0.00  0.00    +0.000 A 
ATOM     12  C   UNL     1       2.101   2.793  19.720  0.00  0.00    +0.000 A 
ATOM     13 CL   UNL     1       0.835   3.233  20.815  0.00  0.00    +0.000 Cl
ATOM     14  C   UNL     1       1.709   2.557  18.386  0.00  0.00    +0.000 A 
ATOM     15  C   UNL     1       2.658   2.636  17.390  0.00  0.00    +0.000 A 
ATOM     16  C   UNL     1       3.923   3.012  17.824  0.00  0.00    +0.000 A 
ATOM     17  H   UNL     1       4.857   4.193  15.347  0.00  0.00    +0.000 HD
ENDROOT
BRANCH   1  18
ATOM     18  C   UNL     1       6.500   7.426  17.535  0.00  0.00    +0.000 C 
BRANCH  18  19
ATOM     19  C   UNL     1       7.949   7.801  17.301  0.00  0.00    +0.000 C 
BRANCH  19  21
ATOM     20  C   UNL     1       8.615   9.861  18.193  0.00  0.00    +0.000 C 
ATOM     21  O   UNL     1       8.445   8.483  18.446  0.00  0.00    +0.000 OA
ENDBRANCH  19  21
ENDBRANCH  18  19
ENDBRANCH   1  18
TORSDOF 3
ENDMDL
MODEL 2
REMARK VINA RESULT:      -6.9      2.414      3.902
REMARK  Name = 
REMARK  5 active torsions:
REMARK  status: ('A' for Active; 'I' for Inactive)
REMARK    1  A    between atoms: C_1  and  O_2
REMARK    2  A    between atoms: O_2  and  C_3
REMARK    3  A    between atoms: C_3  and  C_4
REMARK    4  A    between atoms: C_4  and  N_5
REMARK    5  A    between atoms: C_11  and  C_12
REMARK                            x       y       z     vdW  Elec       q    Type
REMARK                         _______ _______ _______ _____ _____    ______ ____
ROOT
ATOM      1  N   UNL     1       6.592   5.544  16.625  0.00  0.00    +0.000 N 
ATOM      2  C   UNL     1       7.267   4.633  17.567  0.00  0.00    +0.000 C 
ATOM      3  O   UNL     1       8.292   3.982  17.368  0.00  0.00    +0.000 OA
ATOM      4  N   UNL     1       6.559   4.342  18.701  0.00  0.00    +0.000 N 
ATOM      5  C   UNL     1       5.284   4.793  18.490  0.00  0.00    +0.000 C 
ATOM      6  C   UNL     1       4.730   4.367  16.954  0.00  0.00    +0.000 C 
ATOM      7  C   UNL     1       4.961   5.756  16.541  0.00  0.00    +0.000 C 
ATOM      8  C   UNL     1       4.736   6.768  15.412  0.00  0.00    +0.000 C 
ATOM      9  O   UNL     1       3.853   6.386  17.612  0.00  0.00    +0.000 OA
ATOM     10  C   UNL     1       3.187   5.467  18.551  0.00  0.00    +0.000 A 
ATOM     11  C   UNL     1       2.013   4.745  18.347  0.00  0.00    +0.000 A 
ATOM     12  C   UNL     1       1.840   3.519  19.073  0.00  0.00    +0.000 A 
ATOM     13 CL   UNL     1       0.703   2.339  18.518  0.00  0.00    +0.000 Cl
ATOM     14  C   UNL     1       2.719   3.099  20.093  0.00  0.00    +0.000 A 
ATOM     15  C   UNL     1       3.898   3.787  20.282  0.00  0.00    +0.000 A 
ATOM     16  C   UNL     1       4.120   4.813  19.373  0.00  0.00    +0.000 A 
ATOM     17  H   UNL     1       7.017   4.827  19.493  0.00  0.00    +0.000 HD
ENDROOT
BRANCH   1  18
ATOM     18  C   UNL     1       7.166   5.196  15.276  0.00  0.00    +0.000 C 
BRANCH  18  19
ATOM     19  C   UNL     1       6.462   4.038  14.598  0.00  0.00    +0.000 C 
BRANCH  19  21
ATOM     20  C   UNL     1       5.721   3.356  12.485  0.00  0.00    +0.000 C 
ATOM     21  O   UNL     1       6.668   4.125  13.194  0.00  0.00    +0.000 OA
ENDBRANCH  19  21
ENDBRANCH  18  19
ENDBRANCH   1  18
TORSDOF 3
ENDMDL
MODEL 3
REMARK VINA RESULT:      -6.8      3.160      6.223
REMARK  Name = 
REMARK  5 active torsions:
REMARK  status: ('A' for Active; 'I' for Inactive)
REMARK    1  A    between atoms: C_1  and  O_2
REMARK    2  A    between atoms: O_2  and  C_3
REMARK    3  A    between atoms: C_3  and  C_4
REMARK    4  A    between atoms: C_4  and  N_5
REMARK    5  A    between atoms: C_11  and  C_12
REMARK                            x       y       z     vdW  Elec       q    Type
REMARK                         _______ _______ _______ _____ _____    ______ ____
ROOT
ATOM      1  N   UNL     1       3.121   3.703  19.615  0.00  0.00    +0.000 N 
ATOM      2  C   UNL     1       4.260   2.862  20.020  0.00  0.00    +0.000 C 
ATOM      3  O   UNL     1       4.372   2.208  21.057  0.00  0.00    +0.000 OA
ATOM      4  N   UNL     1       5.381   2.989  19.245  0.00  0.00    +0.000 N 
ATOM      5  C   UNL     1       5.186   4.091  18.457  0.00  0.00    +0.000 C 
ATOM      6  C   UNL     1       4.563   5.380  19.352  0.00  0.00    +0.000 C 
ATOM      7  C   UNL     1       3.254   5.098  18.749  0.00  0.00    +0.000 C 
ATOM      8  C   UNL     1       1.822   5.623  18.592  0.00  0.00    +0.000 C 
ATOM      9  O   UNL     1       3.765   5.413  17.196  0.00  0.00    +0.000 OA
ATOM     10  C   UNL     1       5.188   5.723  16.978  0.00  0.00    +0.000 A 
ATOM     11  C   UNL     1       5.805   6.972  17.029  0.00  0.00    +0.000 A 
ATOM     12  C   UNL     1       7.198   7.022  17.371  0.00  0.00    +0.000 A 
ATOM     13 CL   UNL     1       7.892   8.498  17.950  0.00  0.00    +0.000 Cl
ATOM     14  C   UNL     1       8.001   5.870  17.496  0.00  0.00    +0.000 A 
ATOM     15  C   UNL     1       7.397   4.632  17.479  0.00  0.00    +0.000 A 
ATOM     16  C   UNL     1       6.011   4.665  17.398  0.00  0.00    +0.000 A 
ATOM     17  H   UNL     1       5.479   2.123  18.687  0.00  0.00    +0.000 HD
ENDROOT
BRANCH   1  18
ATOM     18  C   UNL     1       2.334   3.921  20.881  0.00  0.00    +0.000 C 
BRANCH  18  19
ATOM     19  C   UNL     1       1.180   2.954  21.051  0.00  0.00    +0.000 C 
BRANCH  19  21
ATOM     20  C   UNL     1       0.642   2.069  18.952  0.00  0.00    +0.000 C 
ATOM     21  O   UNL     1       0.324   3.046  19.920  0.00  0.00    +0.000 OA
ENDBRANCH  19  21
ENDBRANCH  18  19
ENDBRANCH   1  18
TORSDOF 3
ENDMDL
MODEL 4
REMARK VINA RESULT:      -6.6      3.185      5.734
REMARK  Name = 
REMARK  5 active torsions:
REMARK  status: ('A' for Active; 'I' for Inactive)
REMARK    1  A    between atoms: C_1  and  O_2
REMARK    2  A    between atoms: O_2  and  C_3
REMARK    3  A    between atoms: C_3  and  C_4
REMARK    4  A    between atoms: C_4  and  N_5
REMARK    5  A    between atoms: C_11  and  C_12
REMARK                            x       y       z     vdW  Elec       q    Type
REMARK                         _______ _______ _______ _____ _____    ______ ____
ROOT
ATOM      1  N   UNL     1       2.909   3.178  19.243  0.00  0.00    +0.000 N 
ATOM      2  C   UNL     1       4.046   2.671  20.032  0.00  0.00    +0.000 C 
ATOM      3  O   UNL     1       4.018   2.237  21.183  0.00  0.00    +0.000 OA
ATOM      4  N   UNL     1       5.279   2.899  19.485  0.00  0.00    +0.000 N 
ATOM      5  C   UNL     1       5.094   3.789  18.463  0.00  0.00    +0.000 C 
ATOM      6  C   UNL     1       4.073   5.051  18.928  0.00  0.00    +0.000 C 
ATOM      7  C   UNL     1       3.007   4.406  18.150  0.00  0.00    +0.000 C 
ATOM      8  C   UNL     1       1.586   4.588  17.606  0.00  0.00    +0.000 C 
ATOM      9  O   UNL     1       3.809   4.558  16.699  0.00  0.00    +0.000 OA
ATOM     10  C   UNL     1       5.171   5.118  16.707  0.00  0.00    +0.000 A 
ATOM     11  C   UNL     1       5.542   6.458  16.619  0.00  0.00    +0.000 A 
ATOM     12  C   UNL     1       6.787   6.854  17.213  0.00  0.00    +0.000 A 
ATOM     13 CL   UNL     1       7.072   8.517  17.599  0.00  0.00    +0.000 Cl
ATOM     14  C   UNL     1       7.720   5.931  17.732  0.00  0.00    +0.000 A 
ATOM     15  C   UNL     1       7.351   4.609  17.852  0.00  0.00    +0.000 A 
ATOM     16  C   UNL     1       6.037   4.339  17.493  0.00  0.00    +0.000 A 
ATOM     17  H   UNL     1       5.648   1.992  19.150  0.00  0.00    +0.000 HD
ENDROOT
BRANCH   1  18
ATOM     18  C   UNL     1       1.823   3.434  20.254  0.00  0.00    +0.000 C 
BRANCH  18  19
ATOM     19  C   UNL     1       2.069   4.660  21.111  0.00  0.00    +0.000 C 
BRANCH  19  21
ATOM     20  C   UNL     1       1.654   6.941  20.785  0.00  0.00    +0.000 C 
ATOM     21  O   UNL     1       1.092   5.647  20.804  0.00  0.00    +0.000 OA
ENDBRANCH  19  21
ENDBRANCH  18  19
ENDBRANCH   1  18
TORSDOF 3
ENDMDL
MODEL 5
REMARK VINA RESULT:      -6.6      2.211      3.347
REMARK  Name = 
REMARK  5 active torsions:
REMARK  status: ('A' for Active; 'I' for Inactive)
REMARK    1  A    between atoms: C_1  and  O_2
REMARK    2  A    between atoms: O_2  and  C_3
REMARK    3  A    between atoms: C_3  and  C_4
REMARK    4  A    between atoms: C_4  and  N_5
REMARK    5  A    between atoms: C_11  and  C_12
REMARK                            x       y       z     vdW  Elec       q    Type
REMARK                         _______ _______ _______ _____ _____    ______ ____
ROOT
ATOM      1  N   UNL     1       5.912   6.042  17.574  0.00  0.00    +0.000 N 
ATOM      2  C   UNL     1       6.706   4.831  17.848  0.00  0.00    +0.000 C 
ATOM      3  O   UNL     1       7.664   4.407  17.202  0.00  0.00    +0.000 OA
ATOM      4  N   UNL     1       6.188   4.001  18.804  0.00  0.00    +0.000 N 
ATOM      5  C   UNL     1       4.910   4.429  19.040  0.00  0.00    +0.000 C 
ATOM      6  C   UNL     1       4.096   4.753  17.597  0.00  0.00    +0.000 C 
ATOM      7  C   UNL     1       4.297   6.182  17.864  0.00  0.00    +0.000 C 
ATOM      8  C   UNL     1       3.918   7.595  17.406  0.00  0.00    +0.000 C 
ATOM      9  O   UNL     1       3.402   6.170  19.268  0.00  0.00    +0.000 OA
ATOM     10  C   UNL     1       2.874   4.883  19.750  0.00  0.00    +0.000 A 
ATOM     11  C   UNL     1       1.661   4.282  19.419  0.00  0.00    +0.000 A 
ATOM     12  C   UNL     1       1.574   2.852  19.492  0.00  0.00    +0.000 A 
ATOM     13 CL   UNL     1       0.325   2.017  18.632  0.00  0.00    +0.000 Cl
ATOM     14  C   UNL     1       2.597   2.045  20.033  0.00  0.00    +0.000 A 
ATOM     15  C   UNL     1       3.811   2.623  20.334  0.00  0.00    +0.000 A 
ATOM     16  C   UNL     1       3.910   3.968  20.000  0.00  0.00    +0.000 A 
ATOM     17  H   UNL     1       6.786   4.076  19.645  0.00  0.00    +0.000 HD
ENDROOT
BRANCH   1  18
ATOM     18  C   UNL     1       6.243   6.405  16.150  0.00  0.00    +0.000 C 
BRANCH  18  19
ATOM     19  C   UNL     1       5.699   5.423  15.132  0.00  0.00    +0.000 C 
BRANCH  19  21
ATOM     20  C   UNL     1       6.420   3.959  13.455  0.00  0.00    +0.000 C 
ATOM     21  O   UNL     1       6.709   5.138  14.173  0.00  0.00    +0.000 OA
ENDBRANCH  19  21
ENDBRANCH  18  19
ENDBRANCH   1  18
TORSDOF 3
ENDMDL
MODEL 6
REMARK VINA RESULT:      -6.6      2.224      3.682
REMARK  Name = 
REMARK  5 active torsions:
REMARK  status: ('A' for Active; 'I' for Inactive)
REMARK    1  A    between atoms: C_1  and  O_2
REMARK    2  A    between atoms: O_2  and  C_3
REMARK    3  A    between atoms: C_3  and  C_4
REMARK    4  A    between atoms: C_4  and  N_5
REMARK    5  A    between atoms: C_11  and  C_12
REMARK                            x       y       z     vdW  Elec       q    Type
REMARK                         _______ _______ _______ _____ _____    ______ ____
ROOT
ATOM      1  N   UNL     1       6.337   6.078  17.531  0.00  0.00    +0.000 N 
ATOM      2  C   UNL     1       6.886   5.362  18.695  0.00  0.00    +0.000 C 
ATOM      3  O   UNL     1       8.002   4.853  18.798  0.00  0.00    +0.000 OA
ATOM      4  N   UNL     1       5.980   5.071  19.678  0.00  0.00    +0.000 N 
ATOM      5  C   UNL     1       4.741   5.310  19.149  0.00  0.00    +0.000 C 
ATOM      6  C   UNL     1       4.608   4.675  17.590  0.00  0.00    +0.000 C 
ATOM      7  C   UNL     1       4.754   6.042  17.076  0.00  0.00    +0.000 C 
ATOM      8  C   UNL     1       4.669   6.908  15.814  0.00  0.00    +0.000 C 
ATOM      9  O   UNL     1       3.363   6.594  17.804  0.00  0.00    +0.000 OA
ATOM     10  C   UNL     1       2.619   5.673  18.680  0.00  0.00    +0.000 A 
ATOM     11  C   UNL     1       1.620   4.772  18.317  0.00  0.00    +0.000 A 
ATOM     12  C   UNL     1       1.439   3.602  19.128  0.00  0.00    +0.000 A 
ATOM     13 CL   UNL     1       0.613   2.224  18.486  0.00  0.00    +0.000 Cl
ATOM     14  C   UNL     1       2.108   3.405  20.354  0.00  0.00    +0.000 A 
ATOM     15  C   UNL     1       3.119   4.272  20.708  0.00  0.00    +0.000 A 
ATOM     16  C   UNL     1       3.414   5.237  19.754  0.00  0.00    +0.000 A 
ATOM     17  H   UNL     1       6.183   5.684  20.487  0.00  0.00    +0.000 HD
ENDROOT
BRANCH   1  18
ATOM     18  C   UNL     1       7.241   5.702  16.386  0.00  0.00    +0.000 C 
BRANCH  18  19
ATOM     19  C   UNL     1       7.000   4.302  15.858  0.00  0.00    +0.000 C 
BRANCH  19  21
ATOM     20  C   UNL     1       5.687   4.005  13.943  0.00  0.00    +0.000 C 
ATOM     21  O   UNL     1       6.966   4.339  14.437  0.00  0.00    +0.000 OA
ENDBRANCH  19  21
ENDBRANCH  18  19
ENDBRANCH   1  18
TORSDOF 3
ENDMDL
MODEL 7
REMARK VINA RESULT:      -6.5      3.082      5.889
REMARK  Name = 
REMARK  5 active torsions:
REMARK  status: ('A' for Active; 'I' for Inactive)
REMARK    1  A    between atoms: C_1  and  O_2
REMARK    2  A    between atoms: O_2  and  C_3
REMARK    3  A    between atoms: C_3  and  C_4
REMARK    4  A    between atoms: C_4  and  N_5
REMARK    5  A    between atoms: C_11  and  C_12
REMARK                            x       y       z     vdW  Elec       q    Type
REMARK                         _______ _______ _______ _____ _____    ______ ____
ROOT
ATOM      1  N   UNL     1       2.664   3.060  18.431  0.00  0.00    +0.000 N 
ATOM      2  C   UNL     1       3.597   2.049  17.905  0.00  0.00    +0.000 C 
ATOM      3  O   UNL     1       3.733   0.888  18.291  0.00  0.00    +0.000 OA
ATOM      4  N   UNL     1       4.538   2.524  17.032  0.00  0.00    +0.000 N 
ATOM      5  C   UNL     1       4.490   3.889  17.116  0.00  0.00    +0.000 C 
ATOM      6  C   UNL     1       4.417   4.403  18.723  0.00  0.00    +0.000 C 
ATOM      7  C   UNL     1       2.989   4.672  18.517  0.00  0.00    +0.000 C 
ATOM      8  C   UNL     1       1.745   5.310  19.145  0.00  0.00    +0.000 C 
ATOM      9  O   UNL     1       3.251   5.830  17.350  0.00  0.00    +0.000 OA
ATOM     10  C   UNL     1       4.634   6.078  16.909  0.00  0.00    +0.000 A 
ATOM     11  C   UNL     1       5.557   6.967  17.459  0.00  0.00    +0.000 A 
ATOM     12  C   UNL     1       6.953   6.668  17.309  0.00  0.00    +0.000 A 
ATOM     13 CL   UNL     1       8.111   7.402  18.364  0.00  0.00    +0.000 Cl
ATOM     14  C   UNL     1       7.432   5.617  16.499  0.00  0.00    +0.000 A 
ATOM     15  C   UNL     1       6.531   4.715  15.977  0.00  0.00    +0.000 A 
ATOM     16  C   UNL     1       5.215   4.917  16.372  0.00  0.00    +0.000 A 
ATOM     17  H   UNL     1       4.293   2.183  16.087  0.00  0.00    +0.000 HD
ENDROOT
BRANCH   1  18
ATOM     18  C   UNL     1       2.226   2.521  19.768  0.00  0.00    +0.000 C 
BRANCH  18  19
ATOM     19  C   UNL     1       3.293   2.617  20.839  0.00  0.00    +0.000 C 
BRANCH  19  21
ATOM     20  C   UNL     1       1.265   2.687  22.006  0.00  0.00    +0.000 C 
ATOM     21  O   UNL     1       2.669   2.789  22.105  0.00  0.00    +0.000 OA
ENDBRANCH  19  21
ENDBRANCH  18  19
ENDBRANCH   1  18
TORSDOF 3
ENDMDL
MODEL 8
REMARK VINA RESULT:      -6.4      0.954      1.002
REMARK  Name = 
REMARK  5 active torsions:
REMARK  status: ('A' for Active; 'I' for Inactive)
REMARK    1  A    between atoms: C_1  and  O_2
REMARK    2  A    between atoms: O_2  and  C_3
REMARK    3  A    between atoms: C_3  and  C_4
REMARK    4  A    between atoms: C_4  and  N_5
REMARK    5  A    between atoms: C_11  and  C_12
REMARK                            x       y       z     vdW  Elec       q    Type
REMARK                         _______ _______ _______ _____ _____    ______ ____
ROOT
ATOM      1  N   UNL     1       6.849   5.210  17.090  0.00  0.00    +0.000 N 
ATOM      2  C   UNL     1       6.079   5.018  15.848  0.00  0.00    +0.000 C 
ATOM      3  O   UNL     1       6.191   5.649  14.798  0.00  0.00    +0.000 OA
ATOM      4  N   UNL     1       5.001   4.182  15.956  0.00  0.00    +0.000 N 
ATOM      5  C   UNL     1       4.803   3.975  17.294  0.00  0.00    +0.000 C 
ATOM      6  C   UNL     1       4.907   5.421  18.160  0.00  0.00    +0.000 C 
ATOM      7  C   UNL     1       6.240   4.998  18.605  0.00  0.00    +0.000 C 
ATOM      8  C   UNL     1       7.391   5.331  19.561  0.00  0.00    +0.000 C 
ATOM      9  O   UNL     1       5.678   3.655  19.413  0.00  0.00    +0.000 OA
ATOM     10  C   UNL     1       4.243   3.338  19.328  0.00  0.00    +0.000 A 
ATOM     11  C   UNL     1       3.219   3.795  20.155  0.00  0.00    +0.000 A 
ATOM     12  C   UNL     1       1.894   3.874  19.607  0.00  0.00    +0.000 A 
ATOM     13 CL   UNL     1       0.707   4.883  20.361  0.00  0.00    +0.000 Cl
ATOM     14  C   UNL     1       1.554   3.362  18.338  0.00  0.00    +0.000 A 
ATOM     15  C   UNL     1       2.562   2.936  17.500  0.00  0.00    +0.000 A 
ATOM     16  C   UNL     1       3.845   3.124  17.997  0.00  0.00    +0.000 A 
ATOM     17  H   UNL     1       5.230   3.305  15.456  0.00  0.00    +0.000 HD
ENDROOT
BRANCH   1  18
ATOM     18  C   UNL     1       7.482   6.569  16.943  0.00  0.00    +0.000 C 
BRANCH  18  19
ATOM     19  C   UNL     1       6.621   7.700  17.468  0.00  0.00    +0.000 C 
BRANCH  19  21
ATOM     20  C   UNL     1       8.372   9.059  18.219  0.00  0.00    +0.000 C 
ATOM     21  O   UNL     1       7.312   8.931  17.297  0.00  0.00    +0.000 OA
ENDBRANCH  19  21
ENDBRANCH  18  19
ENDBRANCH   1  18
TORSDOF 3
ENDMDL
MODEL 9
REMARK VINA RESULT:      -6.3      2.300      3.394
REMARK  Name = 
REMARK  5 active torsions:
REMARK  status: ('A' for Active; 'I' for Inactive)
REMARK    1  A    between atoms: C_1  and  O_2
REMARK    2  A    between atoms: O_2  and  C_3
REMARK    3  A    between atoms: C_3  and  C_4
REMARK    4  A    between atoms: C_4  and  N_5
REMARK    5  A    between atoms: C_11  and  C_12
REMARK                            x       y       z     vdW  Elec       q    Type
REMARK                         _______ _______ _______ _____ _____    ______ ____
ROOT
ATOM      1  N   UNL     1       5.373   5.356  16.206  0.00  0.00    +0.000 N 
ATOM      2  C   UNL     1       5.474   6.677  16.850  0.00  0.00    +0.000 C 
ATOM      3  O   UNL     1       6.466   7.403  16.907  0.00  0.00    +0.000 OA
ATOM      4  N   UNL     1       4.404   7.028  17.627  0.00  0.00    +0.000 N 
ATOM      5  C   UNL     1       3.653   5.896  17.787  0.00  0.00    +0.000 C 
ATOM      6  C   UNL     1       4.623   4.562  18.147  0.00  0.00    +0.000 C 
ATOM      7  C   UNL     1       4.438   4.119  16.759  0.00  0.00    +0.000 C 
ATOM      8  C   UNL     1       4.673   2.958  15.787  0.00  0.00    +0.000 C 
ATOM      9  O   UNL     1       2.790   3.936  16.910  0.00  0.00    +0.000 OA
ATOM     10  C   UNL     1       2.156   4.327  18.180  0.00  0.00    +0.000 A 
ATOM     11  C   UNL     1       1.966   3.541  19.315  0.00  0.00    +0.000 A 
ATOM     12  C   UNL     1       1.890   4.201  20.588  0.00  0.00    +0.000 A 
ATOM     13 CL   UNL     1       2.170   3.307  22.043  0.00  0.00    +0.000 Cl
ATOM     14  C   UNL     1       1.835   5.604  20.725  0.00  0.00    +0.000 A 
ATOM     15  C   UNL     1       2.053   6.390  19.615  0.00  0.00    +0.000 A 
ATOM     16  C   UNL     1       2.373   5.687  18.461  0.00  0.00    +0.000 A 
ATOM     17  H   UNL     1       3.885   7.773  17.132  0.00  0.00    +0.000 HD
ENDROOT
BRANCH   1  18
ATOM     18  C   UNL     1       6.800   4.914  16.008  0.00  0.00    +0.000 C 
BRANCH  18  19
ATOM     19  C   UNL     1       7.172   4.700  14.555  0.00  0.00    +0.000 C 
BRANCH  19  21
ATOM     20  C   UNL     1       8.321   5.696  12.775  0.00  0.00    +0.000 C 
ATOM     21  O   UNL     1       8.142   5.668  14.175  0.00  0.00    +0.000 OA
ENDBRANCH  19  21
ENDBRANCH  18  19
ENDBRANCH   1  18
TORSDOF 3
ENDMDL
