MODEL 1
REMARK VINA RESULT:      -7.4      0.000      0.000
REMARK  Name = 
REMARK  4 active torsions:
REMARK  status: ('A' for Active; 'I' for Inactive)
REMARK    1  A    between atoms: N_1  and  C_2
REMARK    2  A    between atoms: C_6  and  S_7
REMARK    3  A    between atoms: S_7  and  N_10
REMARK    4  A    between atoms: N_10  and  C_11
REMARK                            x       y       z     vdW  Elec       q    Type
REMARK                         _______ _______ _______ _____ _____    ______ ____
ROOT
ATOM      1  S   UNL     1       5.497   4.748  19.213  0.00  0.00    +0.000 S 
ATOM      2  O   UNL     1       5.320   3.310  19.294  0.00  0.00    +0.000 OA
ATOM      3  O   UNL     1       6.604   5.393  19.888  0.00  0.00    +0.000 OA
ENDROOT
BRANCH   1   8
ATOM      4  C   UNL     1       5.879   4.385  15.189  0.00  0.00    +0.000 A 
ATOM      5  C   UNL     1       5.471   5.647  14.735  0.00  0.00    +0.000 A 
ATOM      6  C   UNL     1       5.102   6.645  15.638  0.00  0.00    +0.000 A 
ATOM      7  C   UNL     1       5.156   6.400  17.013  0.00  0.00    +0.000 A 
ATOM      8  C   UNL     1       5.632   5.173  17.476  0.00  0.00    +0.000 A 
ATOM      9  C   UNL     1       6.035   4.184  16.564  0.00  0.00    +0.000 A 
BRANCH   4  10
ATOM     10  N   UNL     1       6.304   3.415  14.273  0.00  0.00    +0.000 N 
ATOM     11  H   UNL     1       6.922   3.785  13.556  0.00  0.00    +0.000 HD
ATOM     12  H   UNL     1       5.540   2.884  13.865  0.00  0.00    +0.000 HD
ENDBRANCH   4  10
ENDBRANCH   1   8
BRANCH   1  13
ATOM     13  N   UNL     1       4.100   5.522  19.775  0.00  0.00    +0.000 N 
ATOM     14  H   UNL     1       4.100   6.526  19.639  0.00  0.00    +0.000 HD
BRANCH  13  15
ATOM     15  C   UNL     1       2.885   4.801  19.737  0.00  0.00    +0.000 A 
ATOM     16  C   UNL     1       2.362   4.282  20.924  0.00  0.00    +0.000 A 
ATOM     17  C   UNL     1       1.279   3.412  20.882  0.00  0.00    +0.000 A 
ATOM     18  C   UNL     1       0.729   3.051  19.651  0.00  0.00    +0.000 A 
ATOM     19  C   UNL     1       1.229   3.604  18.471  0.00  0.00    +0.000 A 
ATOM     20  C   UNL     1       2.295   4.496  18.513  0.00  0.00    +0.000 A 
ENDBRANCH  13  15
ENDBRANCH   1  13
TORSDOF 4
ENDMDL
MODEL 2
REMARK VINA RESULT:      -7.3      2.412      3.336
REMARK  Name = 
REMARK  4 active torsions:
REMARK  status: ('A' for Active; 'I' for Inactive)
REMARK    1  A    between atoms: N_1  and  C_2
REMARK    2  A    between atoms: C_6  and  S_7
REMARK    3  A    between atoms: S_7  and  N_10
REMARK    4  A    between atoms: N_10  and  C_11
REMARK                            x       y       z     vdW  Elec       q    Type
REMARK                         _______ _______ _______ _____ _____    ______ ____
ROOT
ATOM      1  S   UNL     1       4.475   4.717  17.118  0.00  0.00    +0.000 S 
ATOM      2  O   UNL     1       3.248   5.461  17.340  0.00  0.00    +0.000 OA
ATOM      3  O   UNL     1       4.868   4.327  15.780  0.00  0.00    +0.000 OA
ENDROOT
BRANCH   1   8
ATOM      4  C   UNL     1       7.731   5.786  19.290  0.00  0.00    +0.000 A 
ATOM      5  C   UNL     1       8.165   6.944  18.630  0.00  0.00    +0.000 A 
ATOM      6  C   UNL     1       7.462   7.445  17.534  0.00  0.00    +0.000 A 
ATOM      7  C   UNL     1       6.302   6.803  17.092  0.00  0.00    +0.000 A 
ATOM      8  C   UNL     1       5.821   5.693  17.789  0.00  0.00    +0.000 A 
ATOM      9  C   UNL     1       6.512   5.213  18.914  0.00  0.00    +0.000 A 
BRANCH   4  10
ATOM     10  N   UNL     1       8.412   5.332  20.427  0.00  0.00    +0.000 N 
ATOM     11  H   UNL     1       8.950   4.486  20.261  0.00  0.00    +0.000 HD
ATOM     12  H   UNL     1       7.814   5.236  21.243  0.00  0.00    +0.000 HD
ENDBRANCH   4  10
ENDBRANCH   1   8
BRANCH   1  13
ATOM     13  N   UNL     1       4.439   3.286  18.023  0.00  0.00    +0.000 N 
ATOM     14  H   UNL     1       5.352   2.965  18.325  0.00  0.00    +0.000 HD
BRANCH  13  15
ATOM     15  C   UNL     1       3.299   3.037  18.821  0.00  0.00    +0.000 A 
ATOM     16  C   UNL     1       2.162   2.483  18.231  0.00  0.00    +0.000 A 
ATOM     17  C   UNL     1       0.974   2.410  18.949  0.00  0.00    +0.000 A 
ATOM     18  C   UNL     1       0.922   2.907  20.253  0.00  0.00    +0.000 A 
ATOM     19  C   UNL     1       2.072   3.423  20.852  0.00  0.00    +0.000 A 
ATOM     20  C   UNL     1       3.269   3.471  20.144  0.00  0.00    +0.000 A 
ENDBRANCH  13  15
ENDBRANCH   1  13
TORSDOF 4
ENDMDL
MODEL 3
REMARK VINA RESULT:      -7.3      2.119      3.026
REMARK  Name = 
REMARK  4 active torsions:
REMARK  status: ('A' for Active; 'I' for Inactive)
REMARK    1  A    between atoms: N_1  and  C_2
REMARK    2  A    between atoms: C_6  and  S_7
REMARK    3  A    between atoms: S_7  and  N_10
REMARK    4  A    between atoms: N_10  and  C_11
REMARK                            x       y       z     vdW  Elec       q    Type
REMARK                         _______ _______ _______ _____ _____    ______ ____
ROOT
ATOM      1  S   UNL     1       4.438   4.519  17.146  0.00  0.00    +0.000 S 
ATOM      2  O   UNL     1       4.538   4.523  15.699  0.00  0.00    +0.000 OA
ATOM      3  O   UNL     1       4.491   3.275  17.886  0.00  0.00    +0.000 OA
ENDROOT
BRANCH   1   8
ATOM      4  C   UNL     1       7.688   5.741  19.247  0.00  0.00    +0.000 A 
ATOM      5  C   UNL     1       8.074   6.898  18.555  0.00  0.00    +0.000 A 
ATOM      6  C   UNL     1       7.340   7.351  17.458  0.00  0.00    +0.000 A 
ATOM      7  C   UNL     1       6.195   6.662  17.048  0.00  0.00    +0.000 A 
ATOM      8  C   UNL     1       5.761   5.553  17.776  0.00  0.00    +0.000 A 
ATOM      9  C   UNL     1       6.483   5.122  18.901  0.00  0.00    +0.000 A 
BRANCH   4  10
ATOM     10  N   UNL     1       8.399   5.336  20.384  0.00  0.00    +0.000 N 
ATOM     11  H   UNL     1       8.319   4.341  20.572  0.00  0.00    +0.000 HD
ATOM     12  H   UNL     1       8.185   5.887  21.210  0.00  0.00    +0.000 HD
ENDBRANCH   4  10
ENDBRANCH   1   8
BRANCH   1  13
ATOM     13  N   UNL     1       2.995   5.272  17.615  0.00  0.00    +0.000 N 
ATOM     14  H   UNL     1       2.499   5.724  16.856  0.00  0.00    +0.000 HD
BRANCH  13  15
ATOM     15  C   UNL     1       2.278   4.710  18.696  0.00  0.00    +0.000 A 
ATOM     16  C   UNL     1       2.599   5.092  19.999  0.00  0.00    +0.000 A 
ATOM     17  C   UNL     1       2.044   4.414  21.078  0.00  0.00    +0.000 A 
ATOM     18  C   UNL     1       1.178   3.343  20.850  0.00  0.00    +0.000 A 
ATOM     19  C   UNL     1       0.828   2.991  19.546  0.00  0.00    +0.000 A 
ATOM     20  C   UNL     1       1.362   3.686  18.466  0.00  0.00    +0.000 A 
ENDBRANCH  13  15
ENDBRANCH   1  13
TORSDOF 4
ENDMDL
MODEL 4
REMARK VINA RESULT:      -7.2      2.162      3.180
REMARK  Name = 
REMARK  4 active torsions:
REMARK  status: ('A' for Active; 'I' for Inactive)
REMARK    1  A    between atoms: N_1  and  C_2
REMARK    2  A    between atoms: C_6  and  S_7
REMARK    3  A    between atoms: S_7  and  N_10
REMARK    4  A    between atoms: N_10  and  C_11
REMARK                            x       y       z     vdW  Elec       q    Type
REMARK                         _______ _______ _______ _____ _____    ______ ____
ROOT
ATOM      1  S   UNL     1       4.602   4.450  16.949  0.00  0.00    +0.000 S 
ATOM      2  O   UNL     1       4.682   4.582  15.506  0.00  0.00    +0.000 OA
ATOM      3  O   UNL     1       4.756   3.155  17.580  0.00  0.00    +0.000 OA
ENDROOT
BRANCH   1   8
ATOM      4  C   UNL     1       7.707   5.756  19.212  0.00  0.00    +0.000 A 
ATOM      5  C   UNL     1       8.077   6.940  18.558  0.00  0.00    +0.000 A 
ATOM      6  C   UNL     1       7.374   7.385  17.437  0.00  0.00    +0.000 A 
ATOM      7  C   UNL     1       6.276   6.660  16.965  0.00  0.00    +0.000 A 
ATOM      8  C   UNL     1       5.855   5.521  17.654  0.00  0.00    +0.000 A 
ATOM      9  C   UNL     1       6.544   5.097  18.802  0.00  0.00    +0.000 A 
BRANCH   4  10
ATOM     10  N   UNL     1       8.383   5.357  20.372  0.00  0.00    +0.000 N 
ATOM     11  H   UNL     1       8.244   4.377  20.599  0.00  0.00    +0.000 HD
ATOM     12  H   UNL     1       8.195   5.953  21.172  0.00  0.00    +0.000 HD
ENDBRANCH   4  10
ENDBRANCH   1   8
BRANCH   1  13
ATOM     13  N   UNL     1       3.114   5.052  17.489  0.00  0.00    +0.000 N 
ATOM     14  H   UNL     1       2.535   5.442  16.755  0.00  0.00    +0.000 HD
BRANCH  13  15
ATOM     15  C   UNL     1       2.518   4.430  18.610  0.00  0.00    +0.000 A 
ATOM     16  C   UNL     1       1.560   3.435  18.408  0.00  0.00    +0.000 A 
ATOM     17  C   UNL     1       0.826   2.950  19.484  0.00  0.00    +0.000 A 
ATOM     18  C   UNL     1       1.043   3.473  20.761  0.00  0.00    +0.000 A 
ATOM     19  C   UNL     1       2.030   4.438  20.964  0.00  0.00    +0.000 A 
ATOM     20  C   UNL     1       2.784   4.905  19.892  0.00  0.00    +0.000 A 
ENDBRANCH  13  15
ENDBRANCH   1  13
TORSDOF 4
ENDMDL
MODEL 5
REMARK VINA RESULT:      -7.2      2.369      3.147
REMARK  Name = 
REMARK  4 active torsions:
REMARK  status: ('A' for Active; 'I' for Inactive)
REMARK    1  A    between atoms: N_1  and  C_2
REMARK    2  A    between atoms: C_6  and  S_7
REMARK    3  A    between atoms: S_7  and  N_10
REMARK    4  A    between atoms: N_10  and  C_11
REMARK                            x       y       z     vdW  Elec       q    Type
REMARK                         _______ _______ _______ _____ _____    ______ ____
ROOT
ATOM      1  S   UNL     1       4.353   4.993  17.233  0.00  0.00    +0.000 S 
ATOM      2  O   UNL     1       3.206   5.868  17.388  0.00  0.00    +0.000 OA
ATOM      3  O   UNL     1       4.721   4.484  15.928  0.00  0.00    +0.000 OA
ENDROOT
BRANCH   1   8
ATOM      4  C   UNL     1       7.753   5.808  19.293  0.00  0.00    +0.000 A 
ATOM      5  C   UNL     1       8.232   6.952  18.639  0.00  0.00    +0.000 A 
ATOM      6  C   UNL     1       7.520   7.520  17.582  0.00  0.00    +0.000 A 
ATOM      7  C   UNL     1       6.305   6.961  17.175  0.00  0.00    +0.000 A 
ATOM      8  C   UNL     1       5.783   5.868  17.869  0.00  0.00    +0.000 A 
ATOM      9  C   UNL     1       6.487   5.321  18.955  0.00  0.00    +0.000 A 
BRANCH   4  10
ATOM     10  N   UNL     1       8.448   5.288  20.392  0.00  0.00    +0.000 N 
ATOM     11  H   UNL     1       8.175   5.709  21.275  0.00  0.00    +0.000 HD
ATOM     12  H   UNL     1       9.457   5.300  20.273  0.00  0.00    +0.000 HD
ENDBRANCH   4  10
ENDBRANCH   1   8
BRANCH   1  13
ATOM     13  N   UNL     1       4.163   3.630  18.221  0.00  0.00    +0.000 N 
ATOM     14  H   UNL     1       5.035   3.218  18.529  0.00  0.00    +0.000 HD
BRANCH  13  15
ATOM     15  C   UNL     1       3.018   3.569  19.047  0.00  0.00    +0.000 A 
ATOM     16  C   UNL     1       3.100   4.031  20.362  0.00  0.00    +0.000 A 
ATOM     17  C   UNL     1       2.049   3.804  21.244  0.00  0.00    +0.000 A 
ATOM     18  C   UNL     1       0.923   3.100  20.811  0.00  0.00    +0.000 A 
ATOM     19  C   UNL     1       0.829   2.676  19.486  0.00  0.00    +0.000 A 
ATOM     20  C   UNL     1       1.868   2.927  18.595  0.00  0.00    +0.000 A 
ENDBRANCH  13  15
ENDBRANCH   1  13
TORSDOF 4
ENDMDL
MODEL 6
REMARK VINA RESULT:      -7.2      1.244      1.795
REMARK  Name = 
REMARK  4 active torsions:
REMARK  status: ('A' for Active; 'I' for Inactive)
REMARK    1  A    between atoms: N_1  and  C_2
REMARK    2  A    between atoms: C_6  and  S_7
REMARK    3  A    between atoms: S_7  and  N_10
REMARK    4  A    between atoms: N_10  and  C_11
REMARK                            x       y       z     vdW  Elec       q    Type
REMARK                         _______ _______ _______ _____ _____    ______ ____
ROOT
ATOM      1  S   UNL     1       5.502   4.884  19.222  0.00  0.00    +0.000 S 
ATOM      2  O   UNL     1       6.804   5.122  19.816  0.00  0.00    +0.000 OA
ATOM      3  O   UNL     1       4.331   5.583  19.711  0.00  0.00    +0.000 OA
ENDROOT
BRANCH   1   8
ATOM      4  C   UNL     1       5.898   4.402  15.213  0.00  0.00    +0.000 A 
ATOM      5  C   UNL     1       5.474   5.644  14.718  0.00  0.00    +0.000 A 
ATOM      6  C   UNL     1       5.090   6.664  15.589  0.00  0.00    +0.000 A 
ATOM      7  C   UNL     1       5.144   6.463  16.971  0.00  0.00    +0.000 A 
ATOM      8  C   UNL     1       5.635   5.257  17.474  0.00  0.00    +0.000 A 
ATOM      9  C   UNL     1       6.054   4.246  16.593  0.00  0.00    +0.000 A 
BRANCH   4  10
ATOM     10  N   UNL     1       6.339   3.410  14.328  0.00  0.00    +0.000 N 
ATOM     11  H   UNL     1       5.930   3.489  13.402  0.00  0.00    +0.000 HD
ATOM     12  H   UNL     1       6.242   2.469  14.697  0.00  0.00    +0.000 HD
ENDBRANCH   4  10
ENDBRANCH   1   8
BRANCH   1  13
ATOM     13  N   UNL     1       5.128   3.235  19.321  0.00  0.00    +0.000 N 
ATOM     14  H   UNL     1       5.820   2.683  19.814  0.00  0.00    +0.000 HD
BRANCH  13  15
ATOM     15  C   UNL     1       3.764   2.869  19.367  0.00  0.00    +0.000 A 
ATOM     16  C   UNL     1       3.046   2.761  18.175  0.00  0.00    +0.000 A 
ATOM     17  C   UNL     1       1.666   2.593  18.209  0.00  0.00    +0.000 A 
ATOM     18  C   UNL     1       1.005   2.548  19.438  0.00  0.00    +0.000 A 
ATOM     19  C   UNL     1       1.732   2.616  20.627  0.00  0.00    +0.000 A 
ATOM     20  C   UNL     1       3.115   2.757  20.595  0.00  0.00    +0.000 A 
ENDBRANCH  13  15
ENDBRANCH   1  13
TORSDOF 4
ENDMDL
MODEL 7
REMARK VINA RESULT:      -7.1      0.164      1.185
REMARK  Name = 
REMARK  4 active torsions:
REMARK  status: ('A' for Active; 'I' for Inactive)
REMARK    1  A    between atoms: N_1  and  C_2
REMARK    2  A    between atoms: C_6  and  S_7
REMARK    3  A    between atoms: S_7  and  N_10
REMARK    4  A    between atoms: N_10  and  C_11
REMARK                            x       y       z     vdW  Elec       q    Type
REMARK                         _______ _______ _______ _____ _____    ______ ____
ROOT
ATOM      1  S   UNL     1       5.622   4.744  19.192  0.00  0.00    +0.000 S 
ATOM      2  O   UNL     1       5.588   3.296  19.271  0.00  0.00    +0.000 OA
ATOM      3  O   UNL     1       6.664   5.494  19.862  0.00  0.00    +0.000 OA
ENDROOT
BRANCH   1   8
ATOM      4  C   UNL     1       5.905   4.418  15.157  0.00  0.00    +0.000 A 
ATOM      5  C   UNL     1       5.459   5.674  14.723  0.00  0.00    +0.000 A 
ATOM      6  C   UNL     1       5.094   6.658  15.643  0.00  0.00    +0.000 A 
ATOM      7  C   UNL     1       5.189   6.405  17.014  0.00  0.00    +0.000 A 
ATOM      8  C   UNL     1       5.702   5.184  17.456  0.00  0.00    +0.000 A 
ATOM      9  C   UNL     1       6.102   4.210  16.526  0.00  0.00    +0.000 A 
BRANCH   4  10
ATOM     10  N   UNL     1       6.327   3.463  14.223  0.00  0.00    +0.000 N 
ATOM     11  H   UNL     1       7.337   3.373  14.170  0.00  0.00    +0.000 HD
ATOM     12  H   UNL     1       5.918   3.595  13.302  0.00  0.00    +0.000 HD
ENDBRANCH   4  10
ENDBRANCH   1   8
BRANCH   1  13
ATOM     13  N   UNL     1       4.159   5.376  19.766  0.00  0.00    +0.000 N 
ATOM     14  H   UNL     1       4.048   6.371  19.610  0.00  0.00    +0.000 HD
BRANCH  13  15
ATOM     15  C   UNL     1       3.029   4.527  19.767  0.00  0.00    +0.000 A 
ATOM     16  C   UNL     1       2.372   4.265  18.563  0.00  0.00    +0.000 A 
ATOM     17  C   UNL     1       1.154   3.595  18.568  0.00  0.00    +0.000 A 
ATOM     18  C   UNL     1       0.588   3.201  19.782  0.00  0.00    +0.000 A 
ATOM     19  C   UNL     1       1.267   3.429  20.979  0.00  0.00    +0.000 A 
ATOM     20  C   UNL     1       2.499   4.075  20.973  0.00  0.00    +0.000 A 
ENDBRANCH  13  15
ENDBRANCH   1  13
TORSDOF 4
ENDMDL
MODEL 8
REMARK VINA RESULT:      -6.9      1.113      1.221
REMARK  Name = 
REMARK  4 active torsions:
REMARK  status: ('A' for Active; 'I' for Inactive)
REMARK    1  A    between atoms: N_1  and  C_2
REMARK    2  A    between atoms: C_6  and  S_7
REMARK    3  A    between atoms: S_7  and  N_10
REMARK    4  A    between atoms: N_10  and  C_11
REMARK                            x       y       z     vdW  Elec       q    Type
REMARK                         _______ _______ _______ _____ _____    ______ ____
ROOT
ATOM      1  S   UNL     1       5.560   4.941  19.195  0.00  0.00    +0.000 S 
ATOM      2  O   UNL     1       6.903   4.992  19.743  0.00  0.00    +0.000 OA
ATOM      3  O   UNL     1       4.520   5.805  19.712  0.00  0.00    +0.000 OA
ENDROOT
BRANCH   1   8
ATOM      4  C   UNL     1       5.915   4.373  15.192  0.00  0.00    +0.000 A 
ATOM      5  C   UNL     1       5.509   5.612  14.677  0.00  0.00    +0.000 A 
ATOM      6  C   UNL     1       5.150   6.656  15.531  0.00  0.00    +0.000 A 
ATOM      7  C   UNL     1       5.212   6.481  16.916  0.00  0.00    +0.000 A 
ATOM      8  C   UNL     1       5.686   5.276  17.438  0.00  0.00    +0.000 A 
ATOM      9  C   UNL     1       6.079   4.241  16.575  0.00  0.00    +0.000 A 
BRANCH   4  10
ATOM     10  N   UNL     1       6.331   3.356  14.324  0.00  0.00    +0.000 N 
ATOM     11  H   UNL     1       5.686   3.197  13.556  0.00  0.00    +0.000 HD
ATOM     12  H   UNL     1       6.560   2.489  14.800  0.00  0.00    +0.000 HD
ENDBRANCH   4  10
ENDBRANCH   1   8
BRANCH   1  13
ATOM     13  N   UNL     1       4.956   3.363  19.326  0.00  0.00    +0.000 N 
ATOM     14  H   UNL     1       5.570   2.726  19.820  0.00  0.00    +0.000 HD
BRANCH  13  15
ATOM     15  C   UNL     1       3.555   3.197  19.397  0.00  0.00    +0.000 A 
ATOM     16  C   UNL     1       2.965   2.892  20.625  0.00  0.00    +0.000 A 
ATOM     17  C   UNL     1       1.622   2.536  20.681  0.00  0.00    +0.000 A 
ATOM     18  C   UNL     1       0.875   2.471  19.503  0.00  0.00    +0.000 A 
ATOM     19  C   UNL     1       1.458   2.816  18.283  0.00  0.00    +0.000 A 
ATOM     20  C   UNL     1       2.795   3.199  18.230  0.00  0.00    +0.000 A 
ENDBRANCH  13  15
ENDBRANCH   1  13
TORSDOF 4
ENDMDL
MODEL 9
REMARK VINA RESULT:      -6.9      2.514      5.928
REMARK  Name = 
REMARK  4 active torsions:
REMARK  status: ('A' for Active; 'I' for Inactive)
REMARK    1  A    between atoms: N_1  and  C_2
REMARK    2  A    between atoms: C_6  and  S_7
REMARK    3  A    between atoms: S_7  and  N_10
REMARK    4  A    between atoms: N_10  and  C_11
REMARK                            x       y       z     vdW  Elec       q    Type
REMARK                         _______ _______ _______ _____ _____    ______ ____
ROOT
ATOM      1  S   UNL     1       6.063   6.176  16.654  0.00  0.00    +0.000 S 
ATOM      2  O   UNL     1       5.331   6.914  15.642  0.00  0.00    +0.000 OA
ATOM      3  O   UNL     1       6.837   6.874  17.660  0.00  0.00    +0.000 OA
ENDROOT
BRANCH   1   8
ATOM      4  C   UNL     1       4.511   3.413  19.189  0.00  0.00    +0.000 A 
ATOM      5  C   UNL     1       3.157   3.774  19.233  0.00  0.00    +0.000 A 
ATOM      6  C   UNL     1       2.679   4.841  18.471  0.00  0.00    +0.000 A 
ATOM      7  C   UNL     1       3.547   5.551  17.637  0.00  0.00    +0.000 A 
ATOM      8  C   UNL     1       4.880   5.152  17.531  0.00  0.00    +0.000 A 
ATOM      9  C   UNL     1       5.349   4.056  18.273  0.00  0.00    +0.000 A 
BRANCH   4  10
ATOM     10  N   UNL     1       4.962   2.301  19.912  0.00  0.00    +0.000 N 
ATOM     11  H   UNL     1       4.316   1.519  19.888  0.00  0.00    +0.000 HD
ATOM     12  H   UNL     1       5.237   2.525  20.864  0.00  0.00    +0.000 HD
ENDBRANCH   4  10
ENDBRANCH   1   8
BRANCH   1  13
ATOM     13  N   UNL     1       7.141   5.105  15.905  0.00  0.00    +0.000 N 
ATOM     14  H   UNL     1       7.522   4.401  16.525  0.00  0.00    +0.000 HD
BRANCH  13  15
ATOM     15  C   UNL     1       6.937   4.812  14.538  0.00  0.00    +0.000 A 
ATOM     16  C   UNL     1       5.996   3.844  14.181  0.00  0.00    +0.000 A 
ATOM     17  C   UNL     1       5.918   3.405  12.864  0.00  0.00    +0.000 A 
ATOM     18  C   UNL     1       6.792   3.927  11.908  0.00  0.00    +0.000 A 
ATOM     19  C   UNL     1       7.702   4.924  12.261  0.00  0.00    +0.000 A 
ATOM     20  C   UNL     1       7.763   5.383  13.573  0.00  0.00    +0.000 A 
ENDBRANCH  13  15
ENDBRANCH   1  13
TORSDOF 4
ENDMDL
