MODEL 1
REMARK VINA RESULT:      -6.9      0.000      0.000
REMARK  Name = 
REMARK  14 active torsions:
REMARK  status: ('A' for Active; 'I' for Inactive)
REMARK    1  A    between atoms: C_1  and  C_2
REMARK    2  A    between atoms: C_2  and  C_3
REMARK    3  A    between atoms: C_3  and  C_4
REMARK    4  A    between atoms: C_4  and  C_5
REMARK    5  A    between atoms: C_5  and  O_6
REMARK    6  A    between atoms: O_6  and  C_7
REMARK    7  A    between atoms: C_7  and  C_9
REMARK    8  A    between atoms: C_14  and  C_15
REMARK    9  A    between atoms: C_15  and  O_17
REMARK   10  A    between atoms: O_17  and  C_18
REMARK   11  A    between atoms: C_18  and  C_19
REMARK   12  A    between atoms: C_19  and  C_20
REMARK   13  A    between atoms: C_20  and  C_21
REMARK   14  A    between atoms: C_21  and  C_22
REMARK                            x       y       z     vdW  Elec       q    Type
REMARK                         _______ _______ _______ _____ _____    ______ ____
ROOT
ATOM      1  C   UNL     1       4.931   5.236  17.872  0.00  0.00    +0.000 A 
ATOM      2  C   UNL     1       5.416   5.219  19.199  0.00  0.00    +0.000 A 
ATOM      3  C   UNL     1       6.763   5.440  19.481  0.00  0.00    +0.000 A 
ATOM      4  C   UNL     1       7.656   5.662  18.443  0.00  0.00    +0.000 A 
ATOM      5  C   UNL     1       7.197   5.663  17.124  0.00  0.00    +0.000 A 
ATOM      6  C   UNL     1       5.835   5.460  16.825  0.00  0.00    +0.000 A 
ENDROOT
BRANCH   1   7
ATOM      7  C   UNL     1       3.455   5.250  17.687  0.00  0.00    +0.000 C 
ATOM      8  O   UNL     1       2.739   6.207  17.912  0.00  0.00    +0.000 OA
BRANCH   7   9
ATOM      9  O   UNL     1       3.028   3.978  17.458  0.00  0.00    +0.000 OA
BRANCH   9  10
ATOM     10  C   UNL     1       1.647   3.780  17.788  0.00  0.00    +0.000 C 
BRANCH  10  11
ATOM     11  C   UNL     1       1.416   2.466  18.516  0.00  0.00    +0.000 C 
BRANCH  11  12
ATOM     12  C   UNL     1       0.938   2.767  19.937  0.00  0.00    +0.000 C 
BRANCH  12  14
ATOM     13  C   UNL     1       2.272   4.477  21.194  0.00  0.00    +0.000 C 
ATOM     14  C   UNL     1       1.062   4.242  20.299  0.00  0.00    +0.000 C 
ENDBRANCH  12  14
ENDBRANCH  11  12
ENDBRANCH  10  11
ENDBRANCH   9  10
ENDBRANCH   7   9
ENDBRANCH   1   7
BRANCH   6  15
ATOM     15  C   UNL     1       5.450   5.650  15.408  0.00  0.00    +0.000 C 
ATOM     16  O   UNL     1       5.311   6.768  14.929  0.00  0.00    +0.000 OA
BRANCH  15  17
ATOM     17  O   UNL     1       5.328   4.479  14.742  0.00  0.00    +0.000 OA
BRANCH  17  18
ATOM     18  C   UNL     1       6.465   4.161  13.914  0.00  0.00    +0.000 C 
BRANCH  18  19
ATOM     19  C   UNL     1       6.056   3.517  12.590  0.00  0.00    +0.000 C 
BRANCH  19  20
ATOM     20  C   UNL     1       4.551   3.650  12.341  0.00  0.00    +0.000 C 
BRANCH  20  21
ATOM     21  C   UNL     1       4.149   2.967  11.035  0.00  0.00    +0.000 C 
ATOM     22  C   UNL     1       3.259   3.847  10.182  0.00  0.00    +0.000 C 
ENDBRANCH  20  21
ENDBRANCH  19  20
ENDBRANCH  18  19
ENDBRANCH  17  18
ENDBRANCH  15  17
ENDBRANCH   6  15
TORSDOF 12
ENDMDL
MODEL 2
REMARK VINA RESULT:      -6.7      1.692      6.468
REMARK  Name = 
REMARK  14 active torsions:
REMARK  status: ('A' for Active; 'I' for Inactive)
REMARK    1  A    between atoms: C_1  and  C_2
REMARK    2  A    between atoms: C_2  and  C_3
REMARK    3  A    between atoms: C_3  and  C_4
REMARK    4  A    between atoms: C_4  and  C_5
REMARK    5  A    between atoms: C_5  and  O_6
REMARK    6  A    between atoms: O_6  and  C_7
REMARK    7  A    between atoms: C_7  and  C_9
REMARK    8  A    between atoms: C_14  and  C_15
REMARK    9  A    between atoms: C_15  and  O_17
REMARK   10  A    between atoms: O_17  and  C_18
REMARK   11  A    between atoms: C_18  and  C_19
REMARK   12  A    between atoms: C_19  and  C_20
REMARK   13  A    between atoms: C_20  and  C_21
REMARK   14  A    between atoms: C_21  and  C_22
REMARK                            x       y       z     vdW  Elec       q    Type
REMARK                         _______ _______ _______ _____ _____    ______ ____
ROOT
ATOM      1  C   UNL     1       5.005   6.080  17.341  0.00  0.00    +0.000 A 
ATOM      2  C   UNL     1       4.575   7.413  17.159  0.00  0.00    +0.000 A 
ATOM      3  C   UNL     1       3.353   7.856  17.663  0.00  0.00    +0.000 A 
ATOM      4  C   UNL     1       2.528   6.971  18.342  0.00  0.00    +0.000 A 
ATOM      5  C   UNL     1       2.929   5.645  18.516  0.00  0.00    +0.000 A 
ATOM      6  C   UNL     1       4.170   5.188  18.028  0.00  0.00    +0.000 A 
ENDROOT
BRANCH   1   7
ATOM      7  C   UNL     1       6.419   5.767  17.001  0.00  0.00    +0.000 C 
ATOM      8  O   UNL     1       7.305   5.596  17.817  0.00  0.00    +0.000 OA
BRANCH   7   9
ATOM      9  O   UNL     1       6.597   5.937  15.662  0.00  0.00    +0.000 OA
BRANCH   9  10
ATOM     10  C   UNL     1       5.616   5.250  14.872  0.00  0.00    +0.000 C 
BRANCH  10  11
ATOM     11  C   UNL     1       6.099   3.881  14.425  0.00  0.00    +0.000 C 
BRANCH  11  12
ATOM     12  C   UNL     1       6.401   3.932  12.925  0.00  0.00    +0.000 C 
BRANCH  12  14
ATOM     13  C   UNL     1       6.075   1.891  11.507  0.00  0.00    +0.000 C 
ATOM     14  C   UNL     1       5.407   3.126  12.098  0.00  0.00    +0.000 C 
ENDBRANCH  12  14
ENDBRANCH  11  12
ENDBRANCH  10  11
ENDBRANCH   9  10
ENDBRANCH   7   9
ENDBRANCH   1   7
BRANCH   6  15
ATOM     15  C   UNL     1       4.549   3.812  18.419  0.00  0.00    +0.000 C 
ATOM     16  O   UNL     1       5.120   3.584  19.478  0.00  0.00    +0.000 OA
BRANCH  15  17
ATOM     17  O   UNL     1       4.154   2.887  17.514  0.00  0.00    +0.000 OA
BRANCH  17  18
ATOM     18  C   UNL     1       3.347   1.833  18.075  0.00  0.00    +0.000 C 
BRANCH  18  19
ATOM     19  C   UNL     1       1.893   2.258  18.272  0.00  0.00    +0.000 C 
BRANCH  19  20
ATOM     20  C   UNL     1       1.405   1.954  19.691  0.00  0.00    +0.000 C 
BRANCH  20  21
ATOM     21  C   UNL     1       1.076   3.242  20.446  0.00  0.00    +0.000 C 
ATOM     22  C   UNL     1       2.037   3.493  21.589  0.00  0.00    +0.000 C 
ENDBRANCH  20  21
ENDBRANCH  19  20
ENDBRANCH  18  19
ENDBRANCH  17  18
ENDBRANCH  15  17
ENDBRANCH   6  15
TORSDOF 12
ENDMDL
MODEL 3
REMARK VINA RESULT:      -6.6      1.121      6.448
REMARK  Name = 
REMARK  14 active torsions:
REMARK  status: ('A' for Active; 'I' for Inactive)
REMARK    1  A    between atoms: C_1  and  C_2
REMARK    2  A    between atoms: C_2  and  C_3
REMARK    3  A    between atoms: C_3  and  C_4
REMARK    4  A    between atoms: C_4  and  C_5
REMARK    5  A    between atoms: C_5  and  O_6
REMARK    6  A    between atoms: O_6  and  C_7
REMARK    7  A    between atoms: C_7  and  C_9
REMARK    8  A    between atoms: C_14  and  C_15
REMARK    9  A    between atoms: C_15  and  O_17
REMARK   10  A    between atoms: O_17  and  C_18
REMARK   11  A    between atoms: C_18  and  C_19
REMARK   12  A    between atoms: C_19  and  C_20
REMARK   13  A    between atoms: C_20  and  C_21
REMARK   14  A    between atoms: C_21  and  C_22
REMARK                            x       y       z     vdW  Elec       q    Type
REMARK                         _______ _______ _______ _____ _____    ______ ____
ROOT
ATOM      1  C   UNL     1       6.111   6.106  16.920  0.00  0.00    +0.000 A 
ATOM      2  C   UNL     1       7.347   6.624  17.368  0.00  0.00    +0.000 A 
ATOM      3  C   UNL     1       7.825   6.356  18.650  0.00  0.00    +0.000 A 
ATOM      4  C   UNL     1       7.068   5.581  19.517  0.00  0.00    +0.000 A 
ATOM      5  C   UNL     1       5.835   5.076  19.099  0.00  0.00    +0.000 A 
ATOM      6  C   UNL     1       5.349   5.323  17.799  0.00  0.00    +0.000 A 
ENDROOT
BRANCH   1   7
ATOM      7  C   UNL     1       5.807   6.225  15.470  0.00  0.00    +0.000 C 
ATOM      8  O   UNL     1       4.857   6.829  15.009  0.00  0.00    +0.000 OA
BRANCH   7   9
ATOM      9  O   UNL     1       6.612   5.370  14.780  0.00  0.00    +0.000 OA
BRANCH   9  10
ATOM     10  C   UNL     1       5.906   4.247  14.236  0.00  0.00    +0.000 C 
BRANCH  10  11
ATOM     11  C   UNL     1       6.407   3.872  12.852  0.00  0.00    +0.000 C 
BRANCH  11  12
ATOM     12  C   UNL     1       5.287   3.149  12.101  0.00  0.00    +0.000 C 
BRANCH  12  14
ATOM     13  C   UNL     1       7.214   1.910  11.088  0.00  0.00    +0.000 C 
ATOM     14  C   UNL     1       5.746   1.835  11.483  0.00  0.00    +0.000 C 
ENDBRANCH  12  14
ENDBRANCH  11  12
ENDBRANCH  10  11
ENDBRANCH   9  10
ENDBRANCH   7   9
ENDBRANCH   1   7
BRANCH   6  15
ATOM     15  C   UNL     1       4.115   4.598  17.423  0.00  0.00    +0.000 C 
ATOM     16  O   UNL     1       4.147   3.430  17.058  0.00  0.00    +0.000 OA
BRANCH  15  17
ATOM     17  O   UNL     1       3.002   5.351  17.579  0.00  0.00    +0.000 OA
BRANCH  17  18
ATOM     18  C   UNL     1       2.118   4.875  18.613  0.00  0.00    +0.000 C 
BRANCH  18  19
ATOM     19  C   UNL     1       1.488   3.528  18.263  0.00  0.00    +0.000 C 
BRANCH  19  20
ATOM     20  C   UNL     1       0.835   2.878  19.486  0.00  0.00    +0.000 C 
BRANCH  20  21
ATOM     21  C   UNL     1       1.246   3.592  20.772  0.00  0.00    +0.000 C 
ATOM     22  C   UNL     1       2.142   2.732  21.640  0.00  0.00    +0.000 C 
ENDBRANCH  20  21
ENDBRANCH  19  20
ENDBRANCH  18  19
ENDBRANCH  17  18
ENDBRANCH  15  17
ENDBRANCH   6  15
TORSDOF 12
ENDMDL
MODEL 4
REMARK VINA RESULT:      -6.5      1.830      6.094
REMARK  Name = 
REMARK  14 active torsions:
REMARK  status: ('A' for Active; 'I' for Inactive)
REMARK    1  A    between atoms: C_1  and  C_2
REMARK    2  A    between atoms: C_2  and  C_3
REMARK    3  A    between atoms: C_3  and  C_4
REMARK    4  A    between atoms: C_4  and  C_5
REMARK    5  A    between atoms: C_5  and  O_6
REMARK    6  A    between atoms: O_6  and  C_7
REMARK    7  A    between atoms: C_7  and  C_9
REMARK    8  A    between atoms: C_14  and  C_15
REMARK    9  A    between atoms: C_15  and  O_17
REMARK   10  A    between atoms: O_17  and  C_18
REMARK   11  A    between atoms: C_18  and  C_19
REMARK   12  A    between atoms: C_19  and  C_20
REMARK   13  A    between atoms: C_20  and  C_21
REMARK   14  A    between atoms: C_21  and  C_22
REMARK                            x       y       z     vdW  Elec       q    Type
REMARK                         _______ _______ _______ _____ _____    ______ ____
ROOT
ATOM      1  C   UNL     1       4.484   6.579  17.510  0.00  0.00    +0.000 A 
ATOM      2  C   UNL     1       3.575   7.647  17.335  0.00  0.00    +0.000 A 
ATOM      3  C   UNL     1       2.542   7.875  18.242  0.00  0.00    +0.000 A 
ATOM      4  C   UNL     1       2.384   7.029  19.331  0.00  0.00    +0.000 A 
ATOM      5  C   UNL     1       3.261   5.958  19.509  0.00  0.00    +0.000 A 
ATOM      6  C   UNL     1       4.322   5.727  18.610  0.00  0.00    +0.000 A 
ENDROOT
BRANCH   1   7
ATOM      7  C   UNL     1       5.696   6.569  16.647  0.00  0.00    +0.000 C 
ATOM      8  O   UNL     1       6.720   7.181  16.886  0.00  0.00    +0.000 OA
BRANCH   7   9
ATOM      9  O   UNL     1       5.389   5.969  15.465  0.00  0.00    +0.000 OA
BRANCH   9  10
ATOM     10  C   UNL     1       6.498   5.272  14.882  0.00  0.00    +0.000 C 
BRANCH  10  11
ATOM     11  C   UNL     1       6.137   3.850  14.489  0.00  0.00    +0.000 C 
BRANCH  11  12
ATOM     12  C   UNL     1       5.086   3.897  13.379  0.00  0.00    +0.000 C 
BRANCH  12  14
ATOM     13  C   UNL     1       7.044   3.540  11.857  0.00  0.00    +0.000 C 
ATOM     14  C   UNL     1       5.567   3.251  12.085  0.00  0.00    +0.000 C 
ENDBRANCH  12  14
ENDBRANCH  11  12
ENDBRANCH  10  11
ENDBRANCH   9  10
ENDBRANCH   7   9
ENDBRANCH   1   7
BRANCH   6  15
ATOM     15  C   UNL     1       5.277   4.665  18.999  0.00  0.00    +0.000 C 
ATOM     16  O   UNL     1       6.399   4.934  19.410  0.00  0.00    +0.000 OA
BRANCH  15  17
ATOM     17  O   UNL     1       4.748   3.425  18.888  0.00  0.00    +0.000 OA
BRANCH  17  18
ATOM     18  C   UNL     1       4.270   3.114  17.564  0.00  0.00    +0.000 C 
BRANCH  18  19
ATOM     19  C   UNL     1       3.025   2.229  17.590  0.00  0.00    +0.000 C 
BRANCH  19  20
ATOM     20  C   UNL     1       1.817   2.974  18.165  0.00  0.00    +0.000 C 
BRANCH  20  21
ATOM     21  C   UNL     1       1.543   2.544  19.606  0.00  0.00    +0.000 C 
ATOM     22  C   UNL     1       0.824   3.619  20.394  0.00  0.00    +0.000 C 
ENDBRANCH  20  21
ENDBRANCH  19  20
ENDBRANCH  18  19
ENDBRANCH  17  18
ENDBRANCH  15  17
ENDBRANCH   6  15
TORSDOF 12
ENDMDL
MODEL 5
REMARK VINA RESULT:      -6.5      1.798      6.629
REMARK  Name = 
REMARK  14 active torsions:
REMARK  status: ('A' for Active; 'I' for Inactive)
REMARK    1  A    between atoms: C_1  and  C_2
REMARK    2  A    between atoms: C_2  and  C_3
REMARK    3  A    between atoms: C_3  and  C_4
REMARK    4  A    between atoms: C_4  and  C_5
REMARK    5  A    between atoms: C_5  and  O_6
REMARK    6  A    between atoms: O_6  and  C_7
REMARK    7  A    between atoms: C_7  and  C_9
REMARK    8  A    between atoms: C_14  and  C_15
REMARK    9  A    between atoms: C_15  and  O_17
REMARK   10  A    between atoms: O_17  and  C_18
REMARK   11  A    between atoms: C_18  and  C_19
REMARK   12  A    between atoms: C_19  and  C_20
REMARK   13  A    between atoms: C_20  and  C_21
REMARK   14  A    between atoms: C_21  and  C_22
REMARK                            x       y       z     vdW  Elec       q    Type
REMARK                         _______ _______ _______ _____ _____    ______ ____
ROOT
ATOM      1  C   UNL     1       5.612   5.381  17.415  0.00  0.00    +0.000 A 
ATOM      2  C   UNL     1       5.570   6.767  17.142  0.00  0.00    +0.000 A 
ATOM      3  C   UNL     1       4.397   7.502  17.303  0.00  0.00    +0.000 A 
ATOM      4  C   UNL     1       3.237   6.865  17.720  0.00  0.00    +0.000 A 
ATOM      5  C   UNL     1       3.255   5.492  17.976  0.00  0.00    +0.000 A 
ATOM      6  C   UNL     1       4.439   4.740  17.836  0.00  0.00    +0.000 A 
ENDROOT
BRANCH   1   7
ATOM      7  C   UNL     1       6.951   4.737  17.466  0.00  0.00    +0.000 C 
ATOM      8  O   UNL     1       7.568   4.504  18.488  0.00  0.00    +0.000 OA
BRANCH   7   9
ATOM      9  O   UNL     1       7.457   4.674  16.204  0.00  0.00    +0.000 OA
BRANCH   9  10
ATOM     10  C   UNL     1       6.622   3.940  15.298  0.00  0.00    +0.000 C 
BRANCH  10  11
ATOM     11  C   UNL     1       6.628   4.538  13.902  0.00  0.00    +0.000 C 
BRANCH  11  12
ATOM     12  C   UNL     1       6.152   3.476  12.908  0.00  0.00    +0.000 C 
BRANCH  12  14
ATOM     13  C   UNL     1       4.437   2.796  11.212  0.00  0.00    +0.000 C 
ATOM     14  C   UNL     1       4.831   3.844  12.244  0.00  0.00    +0.000 C 
ENDBRANCH  12  14
ENDBRANCH  11  12
ENDBRANCH  10  11
ENDBRANCH   9  10
ENDBRANCH   7   9
ENDBRANCH   1   7
BRANCH   6  15
ATOM     15  C   UNL     1       4.368   3.334  18.296  0.00  0.00    +0.000 C 
ATOM     16  O   UNL     1       4.008   2.436  17.546  0.00  0.00    +0.000 OA
BRANCH  15  17
ATOM     17  O   UNL     1       4.781   3.185  19.575  0.00  0.00    +0.000 OA
BRANCH  17  18
ATOM     18  C   UNL     1       4.034   2.200  20.315  0.00  0.00    +0.000 C 
BRANCH  18  19
ATOM     19  C   UNL     1       3.012   2.835  21.257  0.00  0.00    +0.000 C 
BRANCH  19  20
ATOM     20  C   UNL     1       1.577   2.521  20.824  0.00  0.00    +0.000 C 
BRANCH  20  21
ATOM     21  C   UNL     1       0.931   3.730  20.147  0.00  0.00    +0.000 C 
ATOM     22  C   UNL     1       1.402   5.038  20.748  0.00  0.00    +0.000 C 
ENDBRANCH  20  21
ENDBRANCH  19  20
ENDBRANCH  18  19
ENDBRANCH  17  18
ENDBRANCH  15  17
ENDBRANCH   6  15
TORSDOF 12
ENDMDL
MODEL 6
REMARK VINA RESULT:      -6.5      1.583      2.331
REMARK  Name = 
REMARK  14 active torsions:
REMARK  status: ('A' for Active; 'I' for Inactive)
REMARK    1  A    between atoms: C_1  and  C_2
REMARK    2  A    between atoms: C_2  and  C_3
REMARK    3  A    between atoms: C_3  and  C_4
REMARK    4  A    between atoms: C_4  and  C_5
REMARK    5  A    between atoms: C_5  and  O_6
REMARK    6  A    between atoms: O_6  and  C_7
REMARK    7  A    between atoms: C_7  and  C_9
REMARK    8  A    between atoms: C_14  and  C_15
REMARK    9  A    between atoms: C_15  and  O_17
REMARK   10  A    between atoms: O_17  and  C_18
REMARK   11  A    between atoms: C_18  and  C_19
REMARK   12  A    between atoms: C_19  and  C_20
REMARK   13  A    between atoms: C_20  and  C_21
REMARK   14  A    between atoms: C_21  and  C_22
REMARK                            x       y       z     vdW  Elec       q    Type
REMARK                         _______ _______ _______ _____ _____    ______ ____
ROOT
ATOM      1  C   UNL     1       4.249   5.468  18.375  0.00  0.00    +0.000 A 
ATOM      2  C   UNL     1       3.182   6.011  19.125  0.00  0.00    +0.000 A 
ATOM      3  C   UNL     1       2.619   7.243  18.798  0.00  0.00    +0.000 A 
ATOM      4  C   UNL     1       3.124   7.967  17.727  0.00  0.00    +0.000 A 
ATOM      5  C   UNL     1       4.190   7.454  16.985  0.00  0.00    +0.000 A 
ATOM      6  C   UNL     1       4.757   6.201  17.293  0.00  0.00    +0.000 A 
ENDROOT
BRANCH   1   7
ATOM      7  C   UNL     1       4.610   4.048  18.632  0.00  0.00    +0.000 C 
ATOM      8  O   UNL     1       5.615   3.685  19.213  0.00  0.00    +0.000 OA
BRANCH   7   9
ATOM      9  O   UNL     1       3.771   3.246  17.922  0.00  0.00    +0.000 OA
BRANCH   9  10
ATOM     10  C   UNL     1       3.617   1.941  18.498  0.00  0.00    +0.000 C 
BRANCH  10  11
ATOM     11  C   UNL     1       2.168   1.633  18.832  0.00  0.00    +0.000 C 
BRANCH  11  12
ATOM     12  C   UNL     1       1.429   2.949  19.084  0.00  0.00    +0.000 C 
BRANCH  12  14
ATOM     13  C   UNL     1       2.000   3.493  21.462  0.00  0.00    +0.000 C 
ATOM     14  C   UNL     1       0.896   3.062  20.507  0.00  0.00    +0.000 C 
ENDBRANCH  12  14
ENDBRANCH  11  12
ENDBRANCH  10  11
ENDBRANCH   9  10
ENDBRANCH   7   9
ENDBRANCH   1   7
BRANCH   6  15
ATOM     15  C   UNL     1       5.766   5.697  16.335  0.00  0.00    +0.000 C 
ATOM     16  O   UNL     1       6.965   5.765  16.576  0.00  0.00    +0.000 OA
BRANCH  15  17
ATOM     17  O   UNL     1       5.206   5.136  15.239  0.00  0.00    +0.000 OA
BRANCH  17  18
ATOM     18  C   UNL     1       5.937   4.003  14.730  0.00  0.00    +0.000 C 
BRANCH  18  19
ATOM     19  C   UNL     1       6.720   4.339  13.462  0.00  0.00    +0.000 C 
BRANCH  19  20
ATOM     20  C   UNL     1       6.257   3.493  12.273  0.00  0.00    +0.000 C 
BRANCH  20  21
ATOM     21  C   UNL     1       4.759   3.205  12.355  0.00  0.00    +0.000 C 
ATOM     22  C   UNL     1       4.071   3.377  11.016  0.00  0.00    +0.000 C 
ENDBRANCH  20  21
ENDBRANCH  19  20
ENDBRANCH  18  19
ENDBRANCH  17  18
ENDBRANCH  15  17
ENDBRANCH   6  15
TORSDOF 12
ENDMDL
MODEL 7
REMARK VINA RESULT:      -6.5      1.963      6.605
REMARK  Name = 
REMARK  14 active torsions:
REMARK  status: ('A' for Active; 'I' for Inactive)
REMARK    1  A    between atoms: C_1  and  C_2
REMARK    2  A    between atoms: C_2  and  C_3
REMARK    3  A    between atoms: C_3  and  C_4
REMARK    4  A    between atoms: C_4  and  C_5
REMARK    5  A    between atoms: C_5  and  O_6
REMARK    6  A    between atoms: O_6  and  C_7
REMARK    7  A    between atoms: C_7  and  C_9
REMARK    8  A    between atoms: C_14  and  C_15
REMARK    9  A    between atoms: C_15  and  O_17
REMARK   10  A    between atoms: O_17  and  C_18
REMARK   11  A    between atoms: C_18  and  C_19
REMARK   12  A    between atoms: C_19  and  C_20
REMARK   13  A    between atoms: C_20  and  C_21
REMARK   14  A    between atoms: C_21  and  C_22
REMARK                            x       y       z     vdW  Elec       q    Type
REMARK                         _______ _______ _______ _____ _____    ______ ____
ROOT
ATOM      1  C   UNL     1       4.270   6.531  17.567  0.00  0.00    +0.000 A 
ATOM      2  C   UNL     1       3.328   7.569  17.390  0.00  0.00    +0.000 A 
ATOM      3  C   UNL     1       2.383   7.867  18.370  0.00  0.00    +0.000 A 
ATOM      4  C   UNL     1       2.348   7.120  19.540  0.00  0.00    +0.000 A 
ATOM      5  C   UNL     1       3.259   6.078  19.724  0.00  0.00    +0.000 A 
ATOM      6  C   UNL     1       4.232   5.778  18.749  0.00  0.00    +0.000 A 
ENDROOT
BRANCH   1   7
ATOM      7  C   UNL     1       5.391   6.455  16.593  0.00  0.00    +0.000 C 
ATOM      8  O   UNL     1       6.244   7.311  16.453  0.00  0.00    +0.000 OA
BRANCH   7   9
ATOM      9  O   UNL     1       5.171   5.411  15.748  0.00  0.00    +0.000 OA
BRANCH   9  10
ATOM     10  C   UNL     1       6.380   4.839  15.231  0.00  0.00    +0.000 C 
BRANCH  10  11
ATOM     11  C   UNL     1       6.109   3.819  14.139  0.00  0.00    +0.000 C 
BRANCH  11  12
ATOM     12  C   UNL     1       6.743   4.312  12.836  0.00  0.00    +0.000 C 
BRANCH  12  14
ATOM     13  C   UNL     1       5.503   2.445  11.716  0.00  0.00    +0.000 C 
ATOM     14  C   UNL     1       6.807   3.229  11.767  0.00  0.00    +0.000 C 
ENDBRANCH  12  14
ENDBRANCH  11  12
ENDBRANCH  10  11
ENDBRANCH   9  10
ENDBRANCH   7   9
ENDBRANCH   1   7
BRANCH   6  15
ATOM     15  C   UNL     1       5.240   4.765  19.133  0.00  0.00    +0.000 C 
ATOM     16  O   UNL     1       6.199   5.055  19.837  0.00  0.00    +0.000 OA
BRANCH  15  17
ATOM     17  O   UNL     1       4.941   3.532  18.665  0.00  0.00    +0.000 OA
BRANCH  17  18
ATOM     18  C   UNL     1       4.649   2.573  19.699  0.00  0.00    +0.000 C 
BRANCH  18  19
ATOM     19  C   UNL     1       3.153   2.291  19.824  0.00  0.00    +0.000 C 
BRANCH  19  20
ATOM     20  C   UNL     1       2.638   2.593  21.234  0.00  0.00    +0.000 C 
BRANCH  20  21
ATOM     21  C   UNL     1       1.186   3.067  21.198  0.00  0.00    +0.000 C 
ATOM     22  C   UNL     1       0.721   3.373  19.789  0.00  0.00    +0.000 C 
ENDBRANCH  20  21
ENDBRANCH  19  20
ENDBRANCH  18  19
ENDBRANCH  17  18
ENDBRANCH  15  17
ENDBRANCH   6  15
TORSDOF 12
ENDMDL
MODEL 8
REMARK VINA RESULT:      -6.5      1.633      6.509
REMARK  Name = 
REMARK  14 active torsions:
REMARK  status: ('A' for Active; 'I' for Inactive)
REMARK    1  A    between atoms: C_1  and  C_2
REMARK    2  A    between atoms: C_2  and  C_3
REMARK    3  A    between atoms: C_3  and  C_4
REMARK    4  A    between atoms: C_4  and  C_5
REMARK    5  A    between atoms: C_5  and  O_6
REMARK    6  A    between atoms: O_6  and  C_7
REMARK    7  A    between atoms: C_7  and  C_9
REMARK    8  A    between atoms: C_14  and  C_15
REMARK    9  A    between atoms: C_15  and  O_17
REMARK   10  A    between atoms: O_17  and  C_18
REMARK   11  A    between atoms: C_18  and  C_19
REMARK   12  A    between atoms: C_19  and  C_20
REMARK   13  A    between atoms: C_20  and  C_21
REMARK   14  A    between atoms: C_21  and  C_22
REMARK                            x       y       z     vdW  Elec       q    Type
REMARK                         _______ _______ _______ _____ _____    ______ ____
ROOT
ATOM      1  C   UNL     1       4.580   6.125  17.209  0.00  0.00    +0.000 A 
ATOM      2  C   UNL     1       4.161   7.474  17.153  0.00  0.00    +0.000 A 
ATOM      3  C   UNL     1       2.960   7.885  17.729  0.00  0.00    +0.000 A 
ATOM      4  C   UNL     1       2.144   6.954  18.357  0.00  0.00    +0.000 A 
ATOM      5  C   UNL     1       2.533   5.614  18.406  0.00  0.00    +0.000 A 
ATOM      6  C   UNL     1       3.753   5.187  17.844  0.00  0.00    +0.000 A 
ENDROOT
BRANCH   1   7
ATOM      7  C   UNL     1       5.978   5.829  16.801  0.00  0.00    +0.000 C 
ATOM      8  O   UNL     1       6.922   5.759  17.566  0.00  0.00    +0.000 OA
BRANCH   7   9
ATOM      9  O   UNL     1       6.062   5.884  15.444  0.00  0.00    +0.000 OA
BRANCH   9  10
ATOM     10  C   UNL     1       5.937   4.600  14.818  0.00  0.00    +0.000 C 
BRANCH  10  11
ATOM     11  C   UNL     1       6.875   4.447  13.634  0.00  0.00    +0.000 C 
BRANCH  11  12
ATOM     12  C   UNL     1       6.245   3.481  12.628  0.00  0.00    +0.000 C 
BRANCH  12  14
ATOM     13  C   UNL     1       4.236   3.097  11.180  0.00  0.00    +0.000 C 
ATOM     14  C   UNL     1       4.738   3.665  12.500  0.00  0.00    +0.000 C 
ENDBRANCH  12  14
ENDBRANCH  11  12
ENDBRANCH  10  11
ENDBRANCH   9  10
ENDBRANCH   7   9
ENDBRANCH   1   7
BRANCH   6  15
ATOM     15  C   UNL     1       4.127   3.779  18.106  0.00  0.00    +0.000 C 
ATOM     16  O   UNL     1       3.981   2.911  17.255  0.00  0.00    +0.000 OA
BRANCH  15  17
ATOM     17  O   UNL     1       4.667   3.606  19.334  0.00  0.00    +0.000 OA
BRANCH  17  18
ATOM     18  C   UNL     1       4.005   2.597  20.122  0.00  0.00    +0.000 C 
BRANCH  18  19
ATOM     19  C   UNL     1       3.009   3.197  21.113  0.00  0.00    +0.000 C 
BRANCH  19  20
ATOM     20  C   UNL     1       1.656   2.481  21.053  0.00  0.00    +0.000 C 
BRANCH  20  21
ATOM     21  C   UNL     1       0.739   3.129  20.016  0.00  0.00    +0.000 C 
ATOM     22  C   UNL     1       0.730   2.365  18.708  0.00  0.00    +0.000 C 
ENDBRANCH  20  21
ENDBRANCH  19  20
ENDBRANCH  18  19
ENDBRANCH  17  18
ENDBRANCH  15  17
ENDBRANCH   6  15
TORSDOF 12
ENDMDL
MODEL 9
REMARK VINA RESULT:      -6.5      1.068      6.418
REMARK  Name = 
REMARK  14 active torsions:
REMARK  status: ('A' for Active; 'I' for Inactive)
REMARK    1  A    between atoms: C_1  and  C_2
REMARK    2  A    between atoms: C_2  and  C_3
REMARK    3  A    between atoms: C_3  and  C_4
REMARK    4  A    between atoms: C_4  and  C_5
REMARK    5  A    between atoms: C_5  and  O_6
REMARK    6  A    between atoms: O_6  and  C_7
REMARK    7  A    between atoms: C_7  and  C_9
REMARK    8  A    between atoms: C_14  and  C_15
REMARK    9  A    between atoms: C_15  and  O_17
REMARK   10  A    between atoms: O_17  and  C_18
REMARK   11  A    between atoms: C_18  and  C_19
REMARK   12  A    between atoms: C_19  and  C_20
REMARK   13  A    between atoms: C_20  and  C_21
REMARK   14  A    between atoms: C_21  and  C_22
REMARK                            x       y       z     vdW  Elec       q    Type
REMARK                         _______ _______ _______ _____ _____    ______ ____
ROOT
ATOM      1  C   UNL     1       5.981   6.065  17.034  0.00  0.00    +0.000 A 
ATOM      2  C   UNL     1       7.249   6.637  17.283  0.00  0.00    +0.000 A 
ATOM      3  C   UNL     1       7.897   6.458  18.504  0.00  0.00    +0.000 A 
ATOM      4  C   UNL     1       7.284   5.722  19.507  0.00  0.00    +0.000 A 
ATOM      5  C   UNL     1       6.022   5.165  19.285  0.00  0.00    +0.000 A 
ATOM      6  C   UNL     1       5.363   5.322  18.049  0.00  0.00    +0.000 A 
ENDROOT
BRANCH   1   7
ATOM      7  C   UNL     1       5.487   6.089  15.631  0.00  0.00    +0.000 C 
ATOM      8  O   UNL     1       4.865   7.008  15.133  0.00  0.00    +0.000 OA
BRANCH   7   9
ATOM      9  O   UNL     1       5.636   4.848  15.091  0.00  0.00    +0.000 OA
BRANCH   9  10
ATOM     10  C   UNL     1       6.867   4.692  14.371  0.00  0.00    +0.000 C 
BRANCH  10  11
ATOM     11  C   UNL     1       6.640   4.193  12.955  0.00  0.00    +0.000 C 
BRANCH  11  12
ATOM     12  C   UNL     1       5.271   3.514  12.885  0.00  0.00    +0.000 C 
BRANCH  12  14
ATOM     13  C   UNL     1       3.830   3.395  10.837  0.00  0.00    +0.000 C 
ATOM     14  C   UNL     1       5.034   2.804  11.557  0.00  0.00    +0.000 C 
ENDBRANCH  12  14
ENDBRANCH  11  12
ENDBRANCH  10  11
ENDBRANCH   9  10
ENDBRANCH   7   9
ENDBRANCH   1   7
BRANCH   6  15
ATOM     15  C   UNL     1       4.112   4.548  17.882  0.00  0.00    +0.000 C 
ATOM     16  O   UNL     1       4.117   3.324  17.865  0.00  0.00    +0.000 OA
BRANCH  15  17
ATOM     17  O   UNL     1       3.018   5.340  17.806  0.00  0.00    +0.000 OA
BRANCH  17  18
ATOM     18  C   UNL     1       2.768   6.102  19.003  0.00  0.00    +0.000 C 
BRANCH  18  19
ATOM     19  C   UNL     1       2.509   5.209  20.215  0.00  0.00    +0.000 C 
BRANCH  19  20
ATOM     20  C   UNL     1       1.304   4.291  19.991  0.00  0.00    +0.000 C 
BRANCH  20  21
ATOM     21  C   UNL     1       1.206   3.236  21.092  0.00  0.00    +0.000 C 
ATOM     22  C   UNL     1       2.562   2.667  21.457  0.00  0.00    +0.000 C 
ENDBRANCH  20  21
ENDBRANCH  19  20
ENDBRANCH  18  19
ENDBRANCH  17  18
ENDBRANCH  15  17
ENDBRANCH   6  15
TORSDOF 12
ENDMDL
