MODEL 1
REMARK VINA RESULT:      -8.8      0.000      0.000
REMARK  Name = 
REMARK  6 active torsions:
REMARK  status: ('A' for Active; 'I' for Inactive)
REMARK    1  A    between atoms: C_1  and  N_2
REMARK    2  A    between atoms: C_6  and  C_7
REMARK    3  A    between atoms: C_7  and  O_8
REMARK    4  A    between atoms: O_8  and  C_9
REMARK    5  A    between atoms: C_11  and  C_12
REMARK    6  A    between atoms: C_19  and  N_20
REMARK                            x       y       z     vdW  Elec       q    Type
REMARK                         _______ _______ _______ _____ _____    ______ ____
ROOT
ATOM      1  C   UNL     1       4.308   4.758  17.657  0.00  0.00    +0.000 A 
ATOM      2  C   UNL     1       4.663   4.612  16.310  0.00  0.00    +0.000 A 
ATOM      3  C   UNL     1       5.966   4.878  15.837  0.00  0.00    +0.000 A 
ATOM      4  C   UNL     1       6.903   5.356  16.769  0.00  0.00    +0.000 A 
ATOM      5  C   UNL     1       6.547   5.524  18.116  0.00  0.00    +0.000 A 
ATOM      6  C   UNL     1       5.257   5.221  18.565  0.00  0.00    +0.000 A 
ENDROOT
BRANCH   3   7
ATOM      7  C   UNL     1       6.341   4.607  14.427  0.00  0.00    +0.000 A 
ATOM      8  C   UNL     1       7.436   5.237  13.806  0.00  0.00    +0.000 A 
ATOM      9  C   UNL     1       7.793   4.940  12.484  0.00  0.00    +0.000 A 
ATOM     10  C   UNL     1       7.056   4.017  11.748  0.00  0.00    +0.000 A 
ATOM     11  C   UNL     1       5.968   3.383  12.336  0.00  0.00    +0.000 A 
ATOM     12  C   UNL     1       5.623   3.670  13.657  0.00  0.00    +0.000 A 
ENDBRANCH   3   7
BRANCH   5  13
ATOM     13  N   UNL     1       7.548   5.997  19.081  0.00  0.00    +0.000 N 
ATOM     14  O   UNL     1       8.255   6.962  18.754  0.00  0.00    +0.000 OA
ATOM     15  O   UNL     1       7.633   5.405  20.168  0.00  0.00    +0.000 OA
ENDBRANCH   5  13
BRANCH   1  16
ATOM     16  O   UNL     1       3.020   4.394  17.962  0.00  0.00    +0.000 OA
BRANCH  16  17
ATOM     17  C   UNL     1       2.729   2.997  17.854  0.00  0.00    +0.000 C 
BRANCH  17  23
ATOM     18  C   UNL     1       4.522   2.000  20.221  0.00  0.00    +0.000 C 
ATOM     19  N   UNL     1       3.277   2.754  20.280  0.00  0.00    +0.000 NA
ATOM     20  C   UNL     1       2.557   2.519  21.532  0.00  0.00    +0.000 C 
ATOM     21  C   UNL     1       1.179   3.091  21.245  0.00  0.00    +0.000 C 
ATOM     22  C   UNL     1       0.996   2.963  19.734  0.00  0.00    +0.000 C 
ATOM     23  C   UNL     1       2.323   2.405  19.211  0.00  0.00    +0.000 C 
ENDBRANCH  17  23
ENDBRANCH  16  17
ENDBRANCH   1  16
TORSDOF 5
ENDMDL
MODEL 2
REMARK VINA RESULT:      -8.7      2.980      5.034
REMARK  Name = 
REMARK  6 active torsions:
REMARK  status: ('A' for Active; 'I' for Inactive)
REMARK    1  A    between atoms: C_1  and  N_2
REMARK    2  A    between atoms: C_6  and  C_7
REMARK    3  A    between atoms: C_7  and  O_8
REMARK    4  A    between atoms: O_8  and  C_9
REMARK    5  A    between atoms: C_11  and  C_12
REMARK    6  A    between atoms: C_19  and  N_20
REMARK                            x       y       z     vdW  Elec       q    Type
REMARK                         _______ _______ _______ _____ _____    ______ ____
ROOT
ATOM      1  C   UNL     1       3.407   4.215  17.249  0.00  0.00    +0.000 A 
ATOM      2  C   UNL     1       2.716   5.280  17.841  0.00  0.00    +0.000 A 
ATOM      3  C   UNL     1       3.288   6.561  17.999  0.00  0.00    +0.000 A 
ATOM      4  C   UNL     1       4.622   6.724  17.585  0.00  0.00    +0.000 A 
ATOM      5  C   UNL     1       5.326   5.654  17.010  0.00  0.00    +0.000 A 
ATOM      6  C   UNL     1       4.723   4.404  16.834  0.00  0.00    +0.000 A 
ENDROOT
BRANCH   3   7
ATOM      7  C   UNL     1       2.494   7.697  18.526  0.00  0.00    +0.000 A 
ATOM      8  C   UNL     1       2.179   8.824  17.744  0.00  0.00    +0.000 A 
ATOM      9  C   UNL     1       1.399   9.870  18.252  0.00  0.00    +0.000 A 
ATOM     10  C   UNL     1       0.926   9.821  19.560  0.00  0.00    +0.000 A 
ATOM     11  C   UNL     1       1.224   8.722  20.356  0.00  0.00    +0.000 A 
ATOM     12  C   UNL     1       1.991   7.675  19.843  0.00  0.00    +0.000 A 
ENDBRANCH   3   7
BRANCH   5  13
ATOM     13  N   UNL     1       6.709   5.853  16.557  0.00  0.00    +0.000 N 
ATOM     14  O   UNL     1       7.215   6.974  16.719  0.00  0.00    +0.000 OA
ATOM     15  O   UNL     1       7.294   4.890  16.037  0.00  0.00    +0.000 OA
ENDBRANCH   5  13
BRANCH   1  16
ATOM     16  O   UNL     1       2.684   3.057  17.110  0.00  0.00    +0.000 OA
BRANCH  16  17
ATOM     17  C   UNL     1       3.152   1.939  17.872  0.00  0.00    +0.000 C 
BRANCH  17  23
ATOM     18  C   UNL     1       4.492   1.971  20.703  0.00  0.00    +0.000 C 
ATOM     19  N   UNL     1       3.286   2.659  20.261  0.00  0.00    +0.000 NA
ATOM     20  C   UNL     1       2.362   2.906  21.368  0.00  0.00    +0.000 C 
ATOM     21  C   UNL     1       1.075   3.290  20.659  0.00  0.00    +0.000 C 
ATOM     22  C   UNL     1       1.135   2.588  19.305  0.00  0.00    +0.000 C 
ATOM     23  C   UNL     1       2.506   1.904  19.264  0.00  0.00    +0.000 C 
ENDBRANCH  17  23
ENDBRANCH  16  17
ENDBRANCH   1  16
TORSDOF 5
ENDMDL
MODEL 3
REMARK VINA RESULT:      -8.6      1.287      2.090
REMARK  Name = 
REMARK  6 active torsions:
REMARK  status: ('A' for Active; 'I' for Inactive)
REMARK    1  A    between atoms: C_1  and  N_2
REMARK    2  A    between atoms: C_6  and  C_7
REMARK    3  A    between atoms: C_7  and  O_8
REMARK    4  A    between atoms: O_8  and  C_9
REMARK    5  A    between atoms: C_11  and  C_12
REMARK    6  A    between atoms: C_19  and  N_20
REMARK                            x       y       z     vdW  Elec       q    Type
REMARK                         _______ _______ _______ _____ _____    ______ ____
ROOT
ATOM      1  C   UNL     1       4.770   3.749  17.806  0.00  0.00    +0.000 A 
ATOM      2  C   UNL     1       5.060   3.789  16.436  0.00  0.00    +0.000 A 
ATOM      3  C   UNL     1       6.191   4.458  15.921  0.00  0.00    +0.000 A 
ATOM      4  C   UNL     1       7.006   5.143  16.838  0.00  0.00    +0.000 A 
ATOM      5  C   UNL     1       6.709   5.122  18.210  0.00  0.00    +0.000 A 
ATOM      6  C   UNL     1       5.599   4.423  18.698  0.00  0.00    +0.000 A 
ENDROOT
BRANCH   3   7
ATOM      7  C   UNL     1       6.533   4.389  14.479  0.00  0.00    +0.000 A 
ATOM      8  C   UNL     1       5.883   3.512  13.591  0.00  0.00    +0.000 A 
ATOM      9  C   UNL     1       6.199   3.489  12.227  0.00  0.00    +0.000 A 
ATOM     10  C   UNL     1       7.181   4.334  11.719  0.00  0.00    +0.000 A 
ATOM     11  C   UNL     1       7.841   5.209  12.574  0.00  0.00    +0.000 A 
ATOM     12  C   UNL     1       7.515   5.239  13.931  0.00  0.00    +0.000 A 
ENDBRANCH   3   7
BRANCH   5  13
ATOM     13  N   UNL     1       7.590   5.819  19.157  0.00  0.00    +0.000 N 
ATOM     14  O   UNL     1       7.687   5.357  20.303  0.00  0.00    +0.000 OA
ATOM     15  O   UNL     1       8.186   6.832  18.758  0.00  0.00    +0.000 OA
ENDBRANCH   5  13
BRANCH   1  16
ATOM     16  O   UNL     1       3.671   3.001  18.147  0.00  0.00    +0.000 OA
BRANCH  16  17
ATOM     17  C   UNL     1       2.425   3.444  17.600  0.00  0.00    +0.000 C 
BRANCH  17  23
ATOM     18  C   UNL     1       1.212   3.194  20.477  0.00  0.00    +0.000 C 
ATOM     19  N   UNL     1       2.018   4.273  19.922  0.00  0.00    +0.000 NA
ATOM     20  C   UNL     1       1.746   5.551  20.580  0.00  0.00    +0.000 C 
ATOM     21  C   UNL     1       2.396   6.560  19.649  0.00  0.00    +0.000 C 
ATOM     22  C   UNL     1       2.363   5.913  18.267  0.00  0.00    +0.000 C 
ATOM     23  C   UNL     1       1.776   4.515  18.488  0.00  0.00    +0.000 C 
ENDBRANCH  17  23
ENDBRANCH  16  17
ENDBRANCH   1  16
TORSDOF 5
ENDMDL
MODEL 4
REMARK VINA RESULT:      -8.6      1.051      1.465
REMARK  Name = 
REMARK  6 active torsions:
REMARK  status: ('A' for Active; 'I' for Inactive)
REMARK    1  A    between atoms: C_1  and  N_2
REMARK    2  A    between atoms: C_6  and  C_7
REMARK    3  A    between atoms: C_7  and  O_8
REMARK    4  A    between atoms: O_8  and  C_9
REMARK    5  A    between atoms: C_11  and  C_12
REMARK    6  A    between atoms: C_19  and  N_20
REMARK                            x       y       z     vdW  Elec       q    Type
REMARK                         _______ _______ _______ _____ _____    ______ ____
ROOT
ATOM      1  C   UNL     1       4.548   4.317  17.612  0.00  0.00    +0.000 A 
ATOM      2  C   UNL     1       4.906   4.291  16.258  0.00  0.00    +0.000 A 
ATOM      3  C   UNL     1       6.153   4.763  15.795  0.00  0.00    +0.000 A 
ATOM      4  C   UNL     1       7.022   5.324  16.747  0.00  0.00    +0.000 A 
ATOM      5  C   UNL     1       6.659   5.372  18.102  0.00  0.00    +0.000 A 
ATOM      6  C   UNL     1       5.430   4.865  18.539  0.00  0.00    +0.000 A 
ENDROOT
BRANCH   3   7
ATOM      7  C   UNL     1       6.549   4.620  14.373  0.00  0.00    +0.000 A 
ATOM      8  C   UNL     1       7.568   5.397  13.792  0.00  0.00    +0.000 A 
ATOM      9  C   UNL     1       7.949   5.220  12.455  0.00  0.00    +0.000 A 
ATOM     10  C   UNL     1       7.310   4.271  11.664  0.00  0.00    +0.000 A 
ATOM     11  C   UNL     1       6.297   3.491  12.210  0.00  0.00    +0.000 A 
ATOM     12  C   UNL     1       5.929   3.660  13.546  0.00  0.00    +0.000 A 
ENDBRANCH   3   7
BRANCH   5  13
ATOM     13  N   UNL     1       7.593   5.935  19.086  0.00  0.00    +0.000 N 
ATOM     14  O   UNL     1       7.677   5.376  20.190  0.00  0.00    +0.000 OA
ATOM     15  O   UNL     1       8.246   6.939  18.760  0.00  0.00    +0.000 OA
ENDBRANCH   5  13
BRANCH   1  16
ATOM     16  O   UNL     1       3.329   3.758  17.903  0.00  0.00    +0.000 OA
BRANCH  16  17
ATOM     17  C   UNL     1       2.289   4.681  18.243  0.00  0.00    +0.000 C 
BRANCH  17  23
ATOM     18  C   UNL     1       0.538   2.171  18.914  0.00  0.00    +0.000 C 
ATOM     19  N   UNL     1       1.544   2.825  19.741  0.00  0.00    +0.000 NA
ATOM     20  C   UNL     1       1.290   2.625  21.168  0.00  0.00    +0.000 C 
ATOM     21  C   UNL     1       2.206   3.644  21.824  0.00  0.00    +0.000 C 
ATOM     22  C   UNL     1       2.365   4.763  20.798  0.00  0.00    +0.000 C 
ATOM     23  C   UNL     1       1.602   4.287  19.557  0.00  0.00    +0.000 C 
ENDBRANCH  17  23
ENDBRANCH  16  17
ENDBRANCH   1  16
TORSDOF 5
ENDMDL
MODEL 5
REMARK VINA RESULT:      -8.5      0.599      1.167
REMARK  Name = 
REMARK  6 active torsions:
REMARK  status: ('A' for Active; 'I' for Inactive)
REMARK    1  A    between atoms: C_1  and  N_2
REMARK    2  A    between atoms: C_6  and  C_7
REMARK    3  A    between atoms: C_7  and  O_8
REMARK    4  A    between atoms: O_8  and  C_9
REMARK    5  A    between atoms: C_11  and  C_12
REMARK    6  A    between atoms: C_19  and  N_20
REMARK                            x       y       z     vdW  Elec       q    Type
REMARK                         _______ _______ _______ _____ _____    ______ ____
ROOT
ATOM      1  C   UNL     1       4.229   5.354  17.632  0.00  0.00    +0.000 A 
ATOM      2  C   UNL     1       4.595   5.079  16.308  0.00  0.00    +0.000 A 
ATOM      3  C   UNL     1       5.939   5.072  15.879  0.00  0.00    +0.000 A 
ATOM      4  C   UNL     1       6.919   5.411  16.829  0.00  0.00    +0.000 A 
ATOM      5  C   UNL     1       6.556   5.707  18.153  0.00  0.00    +0.000 A 
ATOM      6  C   UNL     1       5.218   5.673  18.559  0.00  0.00    +0.000 A 
ENDROOT
BRANCH   3   7
ATOM      7  C   UNL     1       6.304   4.668  14.499  0.00  0.00    +0.000 A 
ATOM      8  C   UNL     1       5.557   3.726  13.768  0.00  0.00    +0.000 A 
ATOM      9  C   UNL     1       5.900   3.385  12.453  0.00  0.00    +0.000 A 
ATOM     10  C   UNL     1       7.006   3.970  11.843  0.00  0.00    +0.000 A 
ATOM     11  C   UNL     1       7.763   4.901  12.542  0.00  0.00    +0.000 A 
ATOM     12  C   UNL     1       7.411   5.249  13.848  0.00  0.00    +0.000 A 
ENDBRANCH   3   7
BRANCH   5  13
ATOM     13  N   UNL     1       7.596   6.030  19.138  0.00  0.00    +0.000 N 
ATOM     14  O   UNL     1       8.376   6.957  18.873  0.00  0.00    +0.000 OA
ATOM     15  O   UNL     1       7.638   5.357  20.180  0.00  0.00    +0.000 OA
ENDBRANCH   5  13
BRANCH   1  16
ATOM     16  O   UNL     1       2.887   5.252  17.898  0.00  0.00    +0.000 OA
BRANCH  16  17
ATOM     17  C   UNL     1       2.299   3.972  17.645  0.00  0.00    +0.000 C 
BRANCH  17  23
ATOM     18  C   UNL     1       3.909   1.724  19.117  0.00  0.00    +0.000 C 
ATOM     19  N   UNL     1       3.202   2.860  19.692  0.00  0.00    +0.000 NA
ATOM     20  C   UNL     1       2.757   2.590  21.060  0.00  0.00    +0.000 C 
ATOM     21  C   UNL     1       1.775   3.717  21.329  0.00  0.00    +0.000 C 
ATOM     22  C   UNL     1       1.219   4.102  19.960  0.00  0.00    +0.000 C 
ATOM     23  C   UNL     1       1.983   3.235  18.953  0.00  0.00    +0.000 C 
ENDBRANCH  17  23
ENDBRANCH  16  17
ENDBRANCH   1  16
TORSDOF 5
ENDMDL
MODEL 6
REMARK VINA RESULT:      -8.5      3.170      5.274
REMARK  Name = 
REMARK  6 active torsions:
REMARK  status: ('A' for Active; 'I' for Inactive)
REMARK    1  A    between atoms: C_1  and  N_2
REMARK    2  A    between atoms: C_6  and  C_7
REMARK    3  A    between atoms: C_7  and  O_8
REMARK    4  A    between atoms: O_8  and  C_9
REMARK    5  A    between atoms: C_11  and  C_12
REMARK    6  A    between atoms: C_19  and  N_20
REMARK                            x       y       z     vdW  Elec       q    Type
REMARK                         _______ _______ _______ _____ _____    ______ ____
ROOT
ATOM      1  C   UNL     1       2.959   4.361  17.267  0.00  0.00    +0.000 A 
ATOM      2  C   UNL     1       2.339   5.438  17.914  0.00  0.00    +0.000 A 
ATOM      3  C   UNL     1       2.954   6.702  18.038  0.00  0.00    +0.000 A 
ATOM      4  C   UNL     1       4.259   6.836  17.530  0.00  0.00    +0.000 A 
ATOM      5  C   UNL     1       4.892   5.753  16.900  0.00  0.00    +0.000 A 
ATOM      6  C   UNL     1       4.246   4.520  16.760  0.00  0.00    +0.000 A 
ENDROOT
BRANCH   3   7
ATOM      7  C   UNL     1       2.230   7.854  18.628  0.00  0.00    +0.000 A 
ATOM      8  C   UNL     1       1.827   7.880  19.976  0.00  0.00    +0.000 A 
ATOM      9  C   UNL     1       1.174   8.994  20.521  0.00  0.00    +0.000 A 
ATOM     10  C   UNL     1       0.898  10.103  19.727  0.00  0.00    +0.000 A 
ATOM     11  C   UNL     1       1.280  10.103  18.392  0.00  0.00    +0.000 A 
ATOM     12  C   UNL     1       1.943   8.998  17.855  0.00  0.00    +0.000 A 
ENDBRANCH   3   7
BRANCH   5  13
ATOM     13  N   UNL     1       6.244   5.921  16.349  0.00  0.00    +0.000 N 
ATOM     14  O   UNL     1       7.120   6.380  17.097  0.00  0.00    +0.000 OA
ATOM     15  O   UNL     1       6.434   5.594  15.167  0.00  0.00    +0.000 OA
ENDBRANCH   5  13
BRANCH   1  16
ATOM     16  O   UNL     1       2.198   3.222  17.173  0.00  0.00    +0.000 OA
BRANCH  16  17
ATOM     17  C   UNL     1       2.770   2.046  17.753  0.00  0.00    +0.000 C 
BRANCH  17  23
ATOM     18  C   UNL     1       4.557   2.075  20.326  0.00  0.00    +0.000 C 
ATOM     19  N   UNL     1       3.245   2.677  20.124  0.00  0.00    +0.000 NA
ATOM     20  C   UNL     1       2.503   2.799  21.379  0.00  0.00    +0.000 C 
ATOM     21  C   UNL     1       1.090   3.102  20.910  0.00  0.00    +0.000 C 
ATOM     22  C   UNL     1       0.977   2.463  19.529  0.00  0.00    +0.000 C 
ATOM     23  C   UNL     1       2.370   1.900  19.228  0.00  0.00    +0.000 C 
ENDBRANCH  17  23
ENDBRANCH  16  17
ENDBRANCH   1  16
TORSDOF 5
ENDMDL
MODEL 7
REMARK VINA RESULT:      -8.4      1.073      1.651
REMARK  Name = 
REMARK  6 active torsions:
REMARK  status: ('A' for Active; 'I' for Inactive)
REMARK    1  A    between atoms: C_1  and  N_2
REMARK    2  A    between atoms: C_6  and  C_7
REMARK    3  A    between atoms: C_7  and  O_8
REMARK    4  A    between atoms: O_8  and  C_9
REMARK    5  A    between atoms: C_11  and  C_12
REMARK    6  A    between atoms: C_19  and  N_20
REMARK                            x       y       z     vdW  Elec       q    Type
REMARK                         _______ _______ _______ _____ _____    ______ ____
ROOT
ATOM      1  C   UNL     1       4.664   4.135  17.646  0.00  0.00    +0.000 A 
ATOM      2  C   UNL     1       5.008   4.139  16.288  0.00  0.00    +0.000 A 
ATOM      3  C   UNL     1       6.226   4.674  15.817  0.00  0.00    +0.000 A 
ATOM      4  C   UNL     1       7.078   5.266  16.766  0.00  0.00    +0.000 A 
ATOM      5  C   UNL     1       6.729   5.283  18.125  0.00  0.00    +0.000 A 
ATOM      6  C   UNL     1       5.530   4.714  18.570  0.00  0.00    +0.000 A 
ENDROOT
BRANCH   3   7
ATOM      7  C   UNL     1       6.612   4.564  14.389  0.00  0.00    +0.000 A 
ATOM      8  C   UNL     1       5.991   3.659  13.508  0.00  0.00    +0.000 A 
ATOM      9  C   UNL     1       6.348   3.596  12.155  0.00  0.00    +0.000 A 
ATOM     10  C   UNL     1       7.344   4.429  11.653  0.00  0.00    +0.000 A 
ATOM     11  C   UNL     1       7.976   5.330  12.501  0.00  0.00    +0.000 A 
ATOM     12  C   UNL     1       7.609   5.400  13.846  0.00  0.00    +0.000 A 
ENDBRANCH   3   7
BRANCH   5  13
ATOM     13  N   UNL     1       7.647   5.879  19.105  0.00  0.00    +0.000 N 
ATOM     14  O   UNL     1       8.307   6.868  18.752  0.00  0.00    +0.000 OA
ATOM     15  O   UNL     1       7.711   5.361  20.231  0.00  0.00    +0.000 OA
ENDBRANCH   5  13
BRANCH   1  16
ATOM     16  O   UNL     1       3.476   3.516  17.944  0.00  0.00    +0.000 OA
BRANCH  16  17
ATOM     17  C   UNL     1       2.344   4.381  18.084  0.00  0.00    +0.000 C 
BRANCH  17  23
ATOM     18  C   UNL     1       0.493   2.053  19.065  0.00  0.00    +0.000 C 
ATOM     19  N   UNL     1       1.534   2.757  19.801  0.00  0.00    +0.000 NA
ATOM     20  C   UNL     1       1.285   2.744  21.243  0.00  0.00    +0.000 C 
ATOM     21  C   UNL     1       2.252   3.793  21.766  0.00  0.00    +0.000 C 
ATOM     22  C   UNL     1       2.449   4.771  20.609  0.00  0.00    +0.000 C 
ATOM     23  C   UNL     1       1.654   4.182  19.440  0.00  0.00    +0.000 C 
ENDBRANCH  17  23
ENDBRANCH  16  17
ENDBRANCH   1  16
TORSDOF 5
ENDMDL
MODEL 8
REMARK VINA RESULT:      -8.0      1.107      1.858
REMARK  Name = 
REMARK  6 active torsions:
REMARK  status: ('A' for Active; 'I' for Inactive)
REMARK    1  A    between atoms: C_1  and  N_2
REMARK    2  A    between atoms: C_6  and  C_7
REMARK    3  A    between atoms: C_7  and  O_8
REMARK    4  A    between atoms: O_8  and  C_9
REMARK    5  A    between atoms: C_11  and  C_12
REMARK    6  A    between atoms: C_19  and  N_20
REMARK                            x       y       z     vdW  Elec       q    Type
REMARK                         _______ _______ _______ _____ _____    ______ ____
ROOT
ATOM      1  C   UNL     1       4.452   5.880  17.491  0.00  0.00    +0.000 A 
ATOM      2  C   UNL     1       4.756   5.484  16.183  0.00  0.00    +0.000 A 
ATOM      3  C   UNL     1       6.081   5.279  15.742  0.00  0.00    +0.000 A 
ATOM      4  C   UNL     1       7.112   5.543  16.660  0.00  0.00    +0.000 A 
ATOM      5  C   UNL     1       6.814   5.959  17.967  0.00  0.00    +0.000 A 
ATOM      6  C   UNL     1       5.489   6.122  18.388  0.00  0.00    +0.000 A 
ENDROOT
BRANCH   3   7
ATOM      7  C   UNL     1       6.366   4.753  14.385  0.00  0.00    +0.000 A 
ATOM      8  C   UNL     1       5.553   3.785  13.766  0.00  0.00    +0.000 A 
ATOM      9  C   UNL     1       5.822   3.328  12.469  0.00  0.00    +0.000 A 
ATOM     10  C   UNL     1       6.918   3.818  11.766  0.00  0.00    +0.000 A 
ATOM     11  C   UNL     1       7.740   4.771  12.354  0.00  0.00    +0.000 A 
ATOM     12  C   UNL     1       7.462   5.235  13.641  0.00  0.00    +0.000 A 
ENDBRANCH   3   7
BRANCH   5  13
ATOM     13  N   UNL     1       7.904   6.201  18.921  0.00  0.00    +0.000 N 
ATOM     14  O   UNL     1       8.178   5.298  19.727  0.00  0.00    +0.000 OA
ATOM     15  O   UNL     1       8.490   7.293  18.869  0.00  0.00    +0.000 OA
ENDBRANCH   5  13
BRANCH   1  16
ATOM     16  O   UNL     1       3.112   5.969  17.777  0.00  0.00    +0.000 OA
BRANCH  16  17
ATOM     17  C   UNL     1       2.738   5.615  19.112  0.00  0.00    +0.000 C 
BRANCH  17  23
ATOM     18  C   UNL     1       2.334   3.859  21.675  0.00  0.00    +0.000 C 
ATOM     19  N   UNL     1       1.634   3.780  20.399  0.00  0.00    +0.000 NA
ATOM     20  C   UNL     1       1.126   2.433  20.139  0.00  0.00    +0.000 C 
ATOM     21  C   UNL     1       0.763   2.484  18.665  0.00  0.00    +0.000 C 
ATOM     22  C   UNL     1       1.690   3.534  18.058  0.00  0.00    +0.000 C 
ATOM     23  C   UNL     1       2.481   4.107  19.238  0.00  0.00    +0.000 C 
ENDBRANCH  17  23
ENDBRANCH  16  17
ENDBRANCH   1  16
TORSDOF 5
ENDMDL
MODEL 9
REMARK VINA RESULT:      -7.9      1.111      1.441
REMARK  Name = 
REMARK  6 active torsions:
REMARK  status: ('A' for Active; 'I' for Inactive)
REMARK    1  A    between atoms: C_1  and  N_2
REMARK    2  A    between atoms: C_6  and  C_7
REMARK    3  A    between atoms: C_7  and  O_8
REMARK    4  A    between atoms: O_8  and  C_9
REMARK    5  A    between atoms: C_11  and  C_12
REMARK    6  A    between atoms: C_19  and  N_20
REMARK                            x       y       z     vdW  Elec       q    Type
REMARK                         _______ _______ _______ _____ _____    ______ ____
ROOT
ATOM      1  C   UNL     1       4.445   5.888  17.510  0.00  0.00    +0.000 A 
ATOM      2  C   UNL     1       4.742   5.511  16.195  0.00  0.00    +0.000 A 
ATOM      3  C   UNL     1       6.065   5.313  15.744  0.00  0.00    +0.000 A 
ATOM      4  C   UNL     1       7.101   5.564  16.661  0.00  0.00    +0.000 A 
ATOM      5  C   UNL     1       6.809   5.962  17.975  0.00  0.00    +0.000 A 
ATOM      6  C   UNL     1       5.487   6.117  18.405  0.00  0.00    +0.000 A 
ENDROOT
BRANCH   3   7
ATOM      7  C   UNL     1       6.344   4.807  14.378  0.00  0.00    +0.000 A 
ATOM      8  C   UNL     1       7.456   5.233  13.629  0.00  0.00    +0.000 A 
ATOM      9  C   UNL     1       7.719   4.715  12.354  0.00  0.00    +0.000 A 
ATOM     10  C   UNL     1       6.867   3.769  11.792  0.00  0.00    +0.000 A 
ATOM     11  C   UNL     1       5.759   3.333  12.508  0.00  0.00    +0.000 A 
ATOM     12  C   UNL     1       5.507   3.841  13.783  0.00  0.00    +0.000 A 
ENDBRANCH   3   7
BRANCH   5  13
ATOM     13  N   UNL     1       7.904   6.190  18.927  0.00  0.00    +0.000 N 
ATOM     14  O   UNL     1       8.491   7.282  18.882  0.00  0.00    +0.000 OA
ATOM     15  O   UNL     1       8.182   5.280  19.723  0.00  0.00    +0.000 OA
ENDBRANCH   5  13
BRANCH   1  16
ATOM     16  O   UNL     1       3.107   5.972  17.804  0.00  0.00    +0.000 OA
BRANCH  16  17
ATOM     17  C   UNL     1       2.741   5.608  19.139  0.00  0.00    +0.000 C 
BRANCH  17  23
ATOM     18  C   UNL     1       2.320   3.837  21.688  0.00  0.00    +0.000 C 
ATOM     19  N   UNL     1       1.625   3.768  20.410  0.00  0.00    +0.000 NA
ATOM     20  C   UNL     1       1.113   2.425  20.139  0.00  0.00    +0.000 C 
ATOM     21  C   UNL     1       0.756   2.487  18.663  0.00  0.00    +0.000 C 
ATOM     22  C   UNL     1       1.689   3.538  18.067  0.00  0.00    +0.000 C 
ATOM     23  C   UNL     1       2.478   4.100  19.254  0.00  0.00    +0.000 C 
ENDBRANCH  17  23
ENDBRANCH  16  17
ENDBRANCH   1  16
TORSDOF 5
ENDMDL
