MODEL 1
REMARK VINA RESULT:      -8.7      0.000      0.000
REMARK  Name = 
REMARK  7 active torsions:
REMARK  status: ('A' for Active; 'I' for Inactive)
REMARK    1  A    between atoms: C_1  and  C_2
REMARK    2  A    between atoms: C_5  and  C_6
REMARK    3  A    between atoms: C_7  and  N_8
REMARK    4  A    between atoms: C_12  and  C_14
REMARK    5  A    between atoms: C_14  and  O_15
REMARK    6  A    between atoms: O_15  and  C_16
REMARK    7  A    between atoms: N_20  and  C_21
REMARK                            x       y       z     vdW  Elec       q    Type
REMARK                         _______ _______ _______ _____ _____    ______ ____
ROOT
ATOM      1  N   UNL     1       2.535   6.978  18.453  0.00  0.00    +0.000 N 
ATOM      2  C   UNL     1       2.602   8.324  17.848  0.00  0.00    +0.000 C 
ATOM      3  C   UNL     1       1.372   9.129  18.289  0.00  0.00    +0.000 C 
ATOM      4  N   UNL     1       1.285   9.197  19.754  0.00  0.00    +0.000 N 
ATOM      5  C   UNL     1       1.018  10.345  20.484  0.00  0.00    +0.000 C 
ATOM      6  O   UNL     1       0.906  10.325  21.715  0.00  0.00    +0.000 OA
ATOM      7  C   UNL     1       1.362   7.891  20.432  0.00  0.00    +0.000 C 
ATOM      8  C   UNL     1       2.559   7.047  19.937  0.00  0.00    +0.000 C 
ENDROOT
BRANCH   1  15
ATOM      9  C   UNL     1       6.762   5.608  16.235  0.00  0.00    +0.000 C 
ATOM     10  C   UNL     1       5.399   5.258  16.754  0.00  0.00    +0.000 A 
ATOM     11  C   UNL     1       4.879   3.975  16.603  0.00  0.00    +0.000 A 
ATOM     12  C   UNL     1       3.596   3.686  17.063  0.00  0.00    +0.000 A 
ATOM     13  C   UNL     1       2.802   4.675  17.676  0.00  0.00    +0.000 A 
ATOM     14  C   UNL     1       1.387   4.313  18.046  0.00  0.00    +0.000 C 
ATOM     15  C   UNL     1       3.323   5.974  17.872  0.00  0.00    +0.000 A 
ATOM     16  C   UNL     1       4.623   6.235  17.394  0.00  0.00    +0.000 A 
ENDBRANCH   1  15
BRANCH   5  17
ATOM     17  C   UNL     1       0.846  11.659  19.718  0.00  0.00    +0.000 C 
BRANCH  17  18
ATOM     18  O   UNL     1      -0.378  12.297  20.079  0.00  0.00    +0.000 OA
BRANCH  18  19
ATOM     19  C   UNL     1      -1.488  12.047  19.292  0.00  0.00    +0.000 A 
ATOM     20  C   UNL     1      -1.465  11.617  18.024  0.00  0.00    +0.000 A 
ATOM     21  C   UNL     1      -2.694  11.422  17.223  0.00  0.00    +0.000 A 
ATOM     22  O   UNL     1      -2.560  11.046  16.061  0.00  0.00    +0.000 OA
ATOM     23  N   UNL     1      -3.904  11.689  17.833  0.00  0.00    +0.000 N 
ATOM     24  C   UNL     1      -5.117  11.524  17.047  0.00  0.00    +0.000 C 
ATOM     25  C   UNL     1      -3.985  12.108  19.196  0.00  0.00    +0.000 A 
ATOM     26  C   UNL     1      -5.226  12.336  19.819  0.00  0.00    +0.000 A 
ATOM     27  C   UNL     1      -5.294  12.729  21.157  0.00  0.00    +0.000 A 
ATOM     28  C   UNL     1      -4.126  12.898  21.889  0.00  0.00    +0.000 A 
ATOM     29  C   UNL     1      -2.887  12.681  21.284  0.00  0.00    +0.000 A 
ATOM     30  C   UNL     1      -2.798  12.288  19.938  0.00  0.00    +0.000 A 
ENDBRANCH  18  19
ENDBRANCH  17  18
ENDBRANCH   5  17
TORSDOF 4
ENDMDL
MODEL 2
REMARK VINA RESULT:      -8.3      2.969      4.760
REMARK  Name = 
REMARK  7 active torsions:
REMARK  status: ('A' for Active; 'I' for Inactive)
REMARK    1  A    between atoms: C_1  and  C_2
REMARK    2  A    between atoms: C_5  and  C_6
REMARK    3  A    between atoms: C_7  and  N_8
REMARK    4  A    between atoms: C_12  and  C_14
REMARK    5  A    between atoms: C_14  and  O_15
REMARK    6  A    between atoms: O_15  and  C_16
REMARK    7  A    between atoms: N_20  and  C_21
REMARK                            x       y       z     vdW  Elec       q    Type
REMARK                         _______ _______ _______ _____ _____    ______ ____
ROOT
ATOM      1  N   UNL     1       4.364   4.471  17.074  0.00  0.00    +0.000 N 
ATOM      2  C   UNL     1       3.578   5.685  17.376  0.00  0.00    +0.000 C 
ATOM      3  C   UNL     1       2.303   5.278  18.126  0.00  0.00    +0.000 C 
ATOM      4  N   UNL     1       2.626   4.524  19.345  0.00  0.00    +0.000 N 
ATOM      5  C   UNL     1       2.054   4.738  20.590  0.00  0.00    +0.000 C 
ATOM      6  O   UNL     1       2.333   4.033  21.565  0.00  0.00    +0.000 OA
ATOM      7  C   UNL     1       3.531   3.380  19.134  0.00  0.00    +0.000 C 
ATOM      8  C   UNL     1       4.783   3.771  18.315  0.00  0.00    +0.000 C 
ENDROOT
BRANCH   1  15
ATOM      9  C   UNL     1       5.883   3.359  12.478  0.00  0.00    +0.000 C 
ATOM     10  C   UNL     1       6.131   4.026  13.799  0.00  0.00    +0.000 A 
ATOM     11  C   UNL     1       7.334   4.675  14.063  0.00  0.00    +0.000 A 
ATOM     12  C   UNL     1       7.553   5.255  15.311  0.00  0.00    +0.000 A 
ATOM     13  C   UNL     1       6.577   5.192  16.324  0.00  0.00    +0.000 A 
ATOM     14  C   UNL     1       6.932   5.747  17.680  0.00  0.00    +0.000 C 
ATOM     15  C   UNL     1       5.334   4.570  16.067  0.00  0.00    +0.000 A 
ATOM     16  C   UNL     1       5.145   3.990  14.796  0.00  0.00    +0.000 A 
ENDBRANCH   1  15
BRANCH   5  17
ATOM     17  C   UNL     1       1.042   5.878  20.728  0.00  0.00    +0.000 C 
BRANCH  17  18
ATOM     18  O   UNL     1       1.683   7.068  21.182  0.00  0.00    +0.000 OA
BRANCH  18  19
ATOM     19  C   UNL     1       1.419   8.240  20.497  0.00  0.00    +0.000 A 
ATOM     20  C   UNL     1       1.796   8.513  19.241  0.00  0.00    +0.000 A 
ATOM     21  C   UNL     1       1.524   9.811  18.587  0.00  0.00    +0.000 A 
ATOM     22  O   UNL     1       1.934   9.966  17.439  0.00  0.00    +0.000 OA
ATOM     23  N   UNL     1       0.841  10.765  19.318  0.00  0.00    +0.000 N 
ATOM     24  C   UNL     1       0.590  12.054  18.693  0.00  0.00    +0.000 C 
ATOM     25  C   UNL     1       0.379  10.509  20.644  0.00  0.00    +0.000 A 
ATOM     26  C   UNL     1      -0.352  11.472  21.363  0.00  0.00    +0.000 A 
ATOM     27  C   UNL     1      -0.814  11.206  22.653  0.00  0.00    +0.000 A 
ATOM     28  C   UNL     1      -0.552   9.975  23.242  0.00  0.00    +0.000 A 
ATOM     29  C   UNL     1       0.178   9.011  22.545  0.00  0.00    +0.000 A 
ATOM     30  C   UNL     1       0.653   9.262  21.246  0.00  0.00    +0.000 A 
ENDBRANCH  18  19
ENDBRANCH  17  18
ENDBRANCH   5  17
TORSDOF 4
ENDMDL
MODEL 3
REMARK VINA RESULT:      -8.3      1.001      2.414
REMARK  Name = 
REMARK  7 active torsions:
REMARK  status: ('A' for Active; 'I' for Inactive)
REMARK    1  A    between atoms: C_1  and  C_2
REMARK    2  A    between atoms: C_5  and  C_6
REMARK    3  A    between atoms: C_7  and  N_8
REMARK    4  A    between atoms: C_12  and  C_14
REMARK    5  A    between atoms: C_14  and  O_15
REMARK    6  A    between atoms: O_15  and  C_16
REMARK    7  A    between atoms: N_20  and  C_21
REMARK                            x       y       z     vdW  Elec       q    Type
REMARK                         _______ _______ _______ _____ _____    ______ ____
ROOT
ATOM      1  N   UNL     1       2.561   6.887  18.544  0.00  0.00    +0.000 N 
ATOM      2  C   UNL     1       2.613   8.260  18.003  0.00  0.00    +0.000 C 
ATOM      3  C   UNL     1       1.373   9.029  18.479  0.00  0.00    +0.000 C 
ATOM      4  N   UNL     1       1.283   9.026  19.946  0.00  0.00    +0.000 N 
ATOM      5  C   UNL     1       1.001  10.135  20.729  0.00  0.00    +0.000 C 
ATOM      6  O   UNL     1       0.887  10.055  21.957  0.00  0.00    +0.000 OA
ATOM      7  C   UNL     1       1.374   7.690  20.561  0.00  0.00    +0.000 C 
ATOM      8  C   UNL     1       2.582   6.884  20.029  0.00  0.00    +0.000 C 
ENDROOT
BRANCH   1  15
ATOM      9  C   UNL     1       6.830   5.658  16.322  0.00  0.00    +0.000 C 
ATOM     10  C   UNL     1       5.459   5.275  16.795  0.00  0.00    +0.000 A 
ATOM     11  C   UNL     1       4.944   4.004  16.558  0.00  0.00    +0.000 A 
ATOM     12  C   UNL     1       3.654   3.686  16.977  0.00  0.00    +0.000 A 
ATOM     13  C   UNL     1       2.847   4.635  17.634  0.00  0.00    +0.000 A 
ATOM     14  C   UNL     1       1.426   4.248  17.956  0.00  0.00    +0.000 C 
ATOM     15  C   UNL     1       3.361   5.920  17.917  0.00  0.00    +0.000 A 
ATOM     16  C   UNL     1       4.668   6.212  17.479  0.00  0.00    +0.000 A 
ENDBRANCH   1  15
BRANCH   5  17
ATOM     17  C   UNL     1       0.815  11.482  20.026  0.00  0.00    +0.000 C 
BRANCH  17  18
ATOM     18  O   UNL     1      -0.230  11.405  19.059  0.00  0.00    +0.000 OA
BRANCH  18  19
ATOM     19  C   UNL     1      -1.492  11.821  19.443  0.00  0.00    +0.000 A 
ATOM     20  C   UNL     1      -1.805  12.383  20.618  0.00  0.00    +0.000 A 
ATOM     21  C   UNL     1      -3.189  12.756  20.983  0.00  0.00    +0.000 A 
ATOM     22  O   UNL     1      -3.371  13.245  22.096  0.00  0.00    +0.000 OA
ATOM     23  N   UNL     1      -4.183  12.515  20.054  0.00  0.00    +0.000 N 
ATOM     24  C   UNL     1      -5.551  12.855  20.412  0.00  0.00    +0.000 C 
ATOM     25  C   UNL     1      -3.896  11.958  18.771  0.00  0.00    +0.000 A 
ATOM     26  C   UNL     1      -4.910  11.756  17.817  0.00  0.00    +0.000 A 
ATOM     27  C   UNL     1      -4.616  11.227  16.559  0.00  0.00    +0.000 A 
ATOM     28  C   UNL     1      -3.307  10.892  16.238  0.00  0.00    +0.000 A 
ATOM     29  C   UNL     1      -2.290  11.080  17.175  0.00  0.00    +0.000 A 
ATOM     30  C   UNL     1      -2.567  11.610  18.448  0.00  0.00    +0.000 A 
ENDBRANCH  18  19
ENDBRANCH  17  18
ENDBRANCH   5  17
TORSDOF 4
ENDMDL
MODEL 4
REMARK VINA RESULT:      -8.1      0.916      1.221
REMARK  Name = 
REMARK  7 active torsions:
REMARK  status: ('A' for Active; 'I' for Inactive)
REMARK    1  A    between atoms: C_1  and  C_2
REMARK    2  A    between atoms: C_5  and  C_6
REMARK    3  A    between atoms: C_7  and  N_8
REMARK    4  A    between atoms: C_12  and  C_14
REMARK    5  A    between atoms: C_14  and  O_15
REMARK    6  A    between atoms: O_15  and  C_16
REMARK    7  A    between atoms: N_20  and  C_21
REMARK                            x       y       z     vdW  Elec       q    Type
REMARK                         _______ _______ _______ _____ _____    ______ ____
ROOT
ATOM      1  N   UNL     1       2.518   6.807  18.638  0.00  0.00    +0.000 N 
ATOM      2  C   UNL     1       2.576   8.206  18.168  0.00  0.00    +0.000 C 
ATOM      3  C   UNL     1       1.350   8.960  18.699  0.00  0.00    +0.000 C 
ATOM      4  N   UNL     1       1.278   8.883  20.165  0.00  0.00    +0.000 N 
ATOM      5  C   UNL     1       1.017   9.952  21.008  0.00  0.00    +0.000 C 
ATOM      6  O   UNL     1       0.918   9.810  22.231  0.00  0.00    +0.000 OA
ATOM      7  C   UNL     1       1.364   7.516  20.709  0.00  0.00    +0.000 C 
ATOM      8  C   UNL     1       2.558   6.728  20.120  0.00  0.00    +0.000 C 
ENDROOT
BRANCH   1  15
ATOM      9  C   UNL     1       6.687   5.697  16.176  0.00  0.00    +0.000 C 
ATOM     10  C   UNL     1       5.348   5.282  16.711  0.00  0.00    +0.000 A 
ATOM     11  C   UNL     1       4.844   4.006  16.476  0.00  0.00    +0.000 A 
ATOM     12  C   UNL     1       3.582   3.657  16.954  0.00  0.00    +0.000 A 
ATOM     13  C   UNL     1       2.795   4.579  17.670  0.00  0.00    +0.000 A 
ATOM     14  C   UNL     1       1.399   4.161  18.057  0.00  0.00    +0.000 C 
ATOM     15  C   UNL     1       3.301   5.867  17.952  0.00  0.00    +0.000 A 
ATOM     16  C   UNL     1       4.579   6.190  17.453  0.00  0.00    +0.000 A 
ENDBRANCH   1  15
BRANCH   5  17
ATOM     17  C   UNL     1       0.835  11.335  20.377  0.00  0.00    +0.000 C 
BRANCH  17  18
ATOM     18  O   UNL     1      -0.164  12.079  21.073  0.00  0.00    +0.000 OA
BRANCH  18  19
ATOM     19  C   UNL     1      -1.441  12.094  20.541  0.00  0.00    +0.000 A 
ATOM     20  C   UNL     1      -1.762  11.803  19.274  0.00  0.00    +0.000 A 
ATOM     21  C   UNL     1      -3.145  11.891  18.758  0.00  0.00    +0.000 A 
ATOM     22  O   UNL     1      -3.328  11.624  17.573  0.00  0.00    +0.000 OA
ATOM     23  N   UNL     1      -4.134  12.281  19.642  0.00  0.00    +0.000 N 
ATOM     24  C   UNL     1      -5.494  12.394  19.140  0.00  0.00    +0.000 C 
ATOM     25  C   UNL     1      -3.851  12.559  21.013  0.00  0.00    +0.000 A 
ATOM     26  C   UNL     1      -4.871  12.915  21.914  0.00  0.00    +0.000 A 
ATOM     27  C   UNL     1      -4.587  13.169  23.257  0.00  0.00    +0.000 A 
ATOM     28  C   UNL     1      -3.280  13.072  23.717  0.00  0.00    +0.000 A 
ATOM     29  C   UNL     1      -2.254  12.727  22.836  0.00  0.00    +0.000 A 
ATOM     30  C   UNL     1      -2.521  12.470  21.480  0.00  0.00    +0.000 A 
ENDBRANCH  18  19
ENDBRANCH  17  18
ENDBRANCH   5  17
TORSDOF 4
ENDMDL
MODEL 5
REMARK VINA RESULT:      -8.1      2.524      9.936
REMARK  Name = 
REMARK  7 active torsions:
REMARK  status: ('A' for Active; 'I' for Inactive)
REMARK    1  A    between atoms: C_1  and  C_2
REMARK    2  A    between atoms: C_5  and  C_6
REMARK    3  A    between atoms: C_7  and  N_8
REMARK    4  A    between atoms: C_12  and  C_14
REMARK    5  A    between atoms: C_14  and  O_15
REMARK    6  A    between atoms: O_15  and  C_16
REMARK    7  A    between atoms: N_20  and  C_21
REMARK                            x       y       z     vdW  Elec       q    Type
REMARK                         _______ _______ _______ _____ _____    ______ ____
ROOT
ATOM      1  N   UNL     1      -1.358  11.906  20.729  0.00  0.00    +0.000 N 
ATOM      2  C   UNL     1      -0.550  10.901  21.447  0.00  0.00    +0.000 C 
ATOM      3  C   UNL     1      -0.348   9.683  20.536  0.00  0.00    +0.000 C 
ATOM      4  N   UNL     1       0.276  10.073  19.264  0.00  0.00    +0.000 N 
ATOM      5  C   UNL     1       1.331   9.409  18.657  0.00  0.00    +0.000 C 
ATOM      6  O   UNL     1       1.777   9.758  17.560  0.00  0.00    +0.000 OA
ATOM      7  C   UNL     1      -0.402  11.179  18.565  0.00  0.00    +0.000 C 
ATOM      8  C   UNL     1      -0.672  12.381  19.500  0.00  0.00    +0.000 C 
ENDROOT
BRANCH   1  15
ATOM      9  C   UNL     1      -1.282  14.970  24.637  0.00  0.00    +0.000 C 
ATOM     10  C   UNL     1      -1.994  14.416  23.439  0.00  0.00    +0.000 A 
ATOM     11  C   UNL     1      -3.291  14.814  23.126  0.00  0.00    +0.000 A 
ATOM     12  C   UNL     1      -3.943  14.257  22.027  0.00  0.00    +0.000 A 
ATOM     13  C   UNL     1      -3.316  13.286  21.223  0.00  0.00    +0.000 A 
ATOM     14  C   UNL     1      -4.127  12.654  20.121  0.00  0.00    +0.000 C 
ATOM     15  C   UNL     1      -1.987  12.894  21.501  0.00  0.00    +0.000 A 
ATOM     16  C   UNL     1      -1.356  13.473  22.620  0.00  0.00    +0.000 A 
ENDBRANCH   1  15
BRANCH   5  17
ATOM     17  C   UNL     1       1.932   8.202  19.382  0.00  0.00    +0.000 C 
BRANCH  17  18
ATOM     18  O   UNL     1       2.947   7.590  18.588  0.00  0.00    +0.000 OA
BRANCH  18  19
ATOM     19  C   UNL     1       2.933   6.211  18.479  0.00  0.00    +0.000 A 
ATOM     20  C   UNL     1       2.152   5.380  19.182  0.00  0.00    +0.000 A 
ATOM     21  C   UNL     1       2.227   3.909  19.051  0.00  0.00    +0.000 A 
ATOM     22  O   UNL     1       1.481   3.236  19.759  0.00  0.00    +0.000 OA
ATOM     23  N   UNL     1       3.143   3.392  18.154  0.00  0.00    +0.000 N 
ATOM     24  C   UNL     1       3.242   1.946  18.036  0.00  0.00    +0.000 C 
ATOM     25  C   UNL     1       3.967   4.236  17.350  0.00  0.00    +0.000 A 
ATOM     26  C   UNL     1       4.865   3.700  16.409  0.00  0.00    +0.000 A 
ATOM     27  C   UNL     1       5.655   4.533  15.615  0.00  0.00    +0.000 A 
ATOM     28  C   UNL     1       5.559   5.913  15.752  0.00  0.00    +0.000 A 
ATOM     29  C   UNL     1       4.678   6.461  16.685  0.00  0.00    +0.000 A 
ATOM     30  C   UNL     1       3.876   5.637  17.494  0.00  0.00    +0.000 A 
ENDBRANCH  18  19
ENDBRANCH  17  18
ENDBRANCH   5  17
TORSDOF 4
ENDMDL
MODEL 6
REMARK VINA RESULT:      -8.0      1.692      3.196
REMARK  Name = 
REMARK  7 active torsions:
REMARK  status: ('A' for Active; 'I' for Inactive)
REMARK    1  A    between atoms: C_1  and  C_2
REMARK    2  A    between atoms: C_5  and  C_6
REMARK    3  A    between atoms: C_7  and  N_8
REMARK    4  A    between atoms: C_12  and  C_14
REMARK    5  A    between atoms: C_14  and  O_15
REMARK    6  A    between atoms: O_15  and  C_16
REMARK    7  A    between atoms: N_20  and  C_21
REMARK                            x       y       z     vdW  Elec       q    Type
REMARK                         _______ _______ _______ _____ _____    ______ ____
ROOT
ATOM      1  N   UNL     1       4.000   6.132  17.750  0.00  0.00    +0.000 N 
ATOM      2  C   UNL     1       3.878   7.596  17.597  0.00  0.00    +0.000 C 
ATOM      3  C   UNL     1       2.447   8.015  17.959  0.00  0.00    +0.000 C 
ATOM      4  N   UNL     1       2.099   7.582  19.320  0.00  0.00    +0.000 N 
ATOM      5  C   UNL     1       1.470   8.370  20.271  0.00  0.00    +0.000 C 
ATOM      6  O   UNL     1       1.158   7.928  21.382  0.00  0.00    +0.000 OA
ATOM      7  C   UNL     1       2.339   6.152  19.585  0.00  0.00    +0.000 C 
ATOM      8  C   UNL     1       3.757   5.710  19.153  0.00  0.00    +0.000 C 
ENDROOT
BRANCH   1  15
ATOM      9  C   UNL     1       5.838   3.920  13.701  0.00  0.00    +0.000 C 
ATOM     10  C   UNL     1       6.016   4.389  15.115  0.00  0.00    +0.000 A 
ATOM     11  C   UNL     1       7.199   4.149  15.809  0.00  0.00    +0.000 A 
ATOM     12  C   UNL     1       7.325   4.565  17.133  0.00  0.00    +0.000 A 
ATOM     13  C   UNL     1       6.269   5.221  17.794  0.00  0.00    +0.000 A 
ATOM     14  C   UNL     1       6.443   5.539  19.257  0.00  0.00    +0.000 C 
ATOM     15  C   UNL     1       5.073   5.507  17.098  0.00  0.00    +0.000 A 
ATOM     16  C   UNL     1       4.975   5.072  15.761  0.00  0.00    +0.000 A 
ENDBRANCH   1  15
BRANCH   5  17
ATOM     17  C   UNL     1       1.153   9.822  19.905  0.00  0.00    +0.000 C 
BRANCH  17  18
ATOM     18  O   UNL     1       0.069   9.882  18.978  0.00  0.00    +0.000 OA
BRANCH  18  19
ATOM     19  C   UNL     1      -0.992  10.714  19.285  0.00  0.00    +0.000 A 
ATOM     20  C   UNL     1      -1.118  11.439  20.404  0.00  0.00    +0.000 A 
ATOM     21  C   UNL     1      -2.308  12.269  20.690  0.00  0.00    +0.000 A 
ATOM     22  O   UNL     1      -2.334  12.878  21.758  0.00  0.00    +0.000 OA
ATOM     23  N   UNL     1      -3.316  12.291  19.744  0.00  0.00    +0.000 N 
ATOM     24  C   UNL     1      -4.502  13.084  20.027  0.00  0.00    +0.000 C 
ATOM     25  C   UNL     1      -3.211  11.570  18.516  0.00  0.00    +0.000 A 
ATOM     26  C   UNL     1      -4.224  11.634  17.542  0.00  0.00    +0.000 A 
ATOM     27  C   UNL     1      -4.104  10.939  16.337  0.00  0.00    +0.000 A 
ATOM     28  C   UNL     1      -2.972  10.173  16.089  0.00  0.00    +0.000 A 
ATOM     29  C   UNL     1      -1.961  10.094  17.048  0.00  0.00    +0.000 A 
ATOM     30  C   UNL     1      -2.065  10.785  18.268  0.00  0.00    +0.000 A 
ENDBRANCH  18  19
ENDBRANCH  17  18
ENDBRANCH   5  17
TORSDOF 4
ENDMDL
MODEL 7
REMARK VINA RESULT:      -7.9      2.958      9.764
REMARK  Name = 
REMARK  7 active torsions:
REMARK  status: ('A' for Active; 'I' for Inactive)
REMARK    1  A    between atoms: C_1  and  C_2
REMARK    2  A    between atoms: C_5  and  C_6
REMARK    3  A    between atoms: C_7  and  N_8
REMARK    4  A    between atoms: C_12  and  C_14
REMARK    5  A    between atoms: C_14  and  O_15
REMARK    6  A    between atoms: O_15  and  C_16
REMARK    7  A    between atoms: N_20  and  C_21
REMARK                            x       y       z     vdW  Elec       q    Type
REMARK                         _______ _______ _______ _____ _____    ______ ____
ROOT
ATOM      1  N   UNL     1      -0.357  12.199  21.213  0.00  0.00    +0.000 N 
ATOM      2  C   UNL     1       0.488  11.109  21.743  0.00  0.00    +0.000 C 
ATOM      3  C   UNL     1       0.331   9.877  20.842  0.00  0.00    +0.000 C 
ATOM      4  N   UNL     1       0.669  10.197  19.448  0.00  0.00    +0.000 N 
ATOM      5  C   UNL     1       1.469   9.421  18.623  0.00  0.00    +0.000 C 
ATOM      6  O   UNL     1       1.672   9.720  17.442  0.00  0.00    +0.000 OA
ATOM      7  C   UNL     1      -0.034  11.372  18.904  0.00  0.00    +0.000 C 
ATOM      8  C   UNL     1       0.061  12.596  19.845  0.00  0.00    +0.000 C 
ENDROOT
BRANCH   1  15
ATOM      9  C   UNL     1       0.725  16.670  23.086  0.00  0.00    +0.000 C 
ATOM     10  C   UNL     1      -0.158  15.459  23.054  0.00  0.00    +0.000 A 
ATOM     11  C   UNL     1      -1.236  15.331  23.925  0.00  0.00    +0.000 A 
ATOM     12  C   UNL     1      -2.020  14.179  23.898  0.00  0.00    +0.000 A 
ATOM     13  C   UNL     1      -1.738  13.127  23.006  0.00  0.00    +0.000 A 
ATOM     14  C   UNL     1      -2.563  11.871  23.115  0.00  0.00    +0.000 C 
ATOM     15  C   UNL     1      -0.670  13.250  22.088  0.00  0.00    +0.000 A 
ATOM     16  C   UNL     1       0.105  14.426  22.141  0.00  0.00    +0.000 A 
ENDBRANCH   1  15
BRANCH   5  17
ATOM     17  C   UNL     1       2.093   8.154  19.214  0.00  0.00    +0.000 C 
BRANCH  17  18
ATOM     18  O   UNL     1       1.875   7.036  18.354  0.00  0.00    +0.000 OA
BRANCH  18  19
ATOM     19  C   UNL     1       2.988   6.385  17.855  0.00  0.00    +0.000 A 
ATOM     20  C   UNL     1       4.104   6.975  17.408  0.00  0.00    +0.000 A 
ATOM     21  C   UNL     1       5.237   6.215  16.838  0.00  0.00    +0.000 A 
ATOM     22  O   UNL     1       6.206   6.856  16.435  0.00  0.00    +0.000 OA
ATOM     23  N   UNL     1       5.122   4.839  16.782  0.00  0.00    +0.000 N 
ATOM     24  C   UNL     1       6.221   4.084  16.200  0.00  0.00    +0.000 C 
ATOM     25  C   UNL     1       3.972   4.159  17.285  0.00  0.00    +0.000 A 
ATOM     26  C   UNL     1       3.884   2.755  17.262  0.00  0.00    +0.000 A 
ATOM     27  C   UNL     1       2.763   2.098  17.772  0.00  0.00    +0.000 A 
ATOM     28  C   UNL     1       1.715   2.835  18.310  0.00  0.00    +0.000 A 
ATOM     29  C   UNL     1       1.783   4.228  18.334  0.00  0.00    +0.000 A 
ATOM     30  C   UNL     1       2.904   4.907  17.824  0.00  0.00    +0.000 A 
ENDBRANCH  18  19
ENDBRANCH  17  18
ENDBRANCH   5  17
TORSDOF 4
ENDMDL
MODEL 8
REMARK VINA RESULT:      -7.8      2.446      9.745
REMARK  Name = 
REMARK  7 active torsions:
REMARK  status: ('A' for Active; 'I' for Inactive)
REMARK    1  A    between atoms: C_1  and  C_2
REMARK    2  A    between atoms: C_5  and  C_6
REMARK    3  A    between atoms: C_7  and  N_8
REMARK    4  A    between atoms: C_12  and  C_14
REMARK    5  A    between atoms: C_14  and  O_15
REMARK    6  A    between atoms: O_15  and  C_16
REMARK    7  A    between atoms: N_20  and  C_21
REMARK                            x       y       z     vdW  Elec       q    Type
REMARK                         _______ _______ _______ _____ _____    ______ ____
ROOT
ATOM      1  N   UNL     1      -1.612  11.765  20.242  0.00  0.00    +0.000 N 
ATOM      2  C   UNL     1      -0.717  10.913  21.051  0.00  0.00    +0.000 C 
ATOM      3  C   UNL     1      -0.346   9.668  20.235  0.00  0.00    +0.000 C 
ATOM      4  N   UNL     1       0.271  10.041  18.955  0.00  0.00    +0.000 N 
ATOM      5  C   UNL     1       1.416   9.465  18.424  0.00  0.00    +0.000 C 
ATOM      6  O   UNL     1       1.855   9.789  17.316  0.00  0.00    +0.000 OA
ATOM      7  C   UNL     1      -0.506  11.009  18.162  0.00  0.00    +0.000 C 
ATOM      8  C   UNL     1      -0.944  12.232  19.001  0.00  0.00    +0.000 C 
ENDROOT
BRANCH   1  15
ATOM      9  C   UNL     1      -2.055  15.006  23.979  0.00  0.00    +0.000 C 
ATOM     10  C   UNL     1      -2.641  14.329  22.776  0.00  0.00    +0.000 A 
ATOM     11  C   UNL     1      -3.949  14.582  22.373  0.00  0.00    +0.000 A 
ATOM     12  C   UNL     1      -4.480  13.912  21.272  0.00  0.00    +0.000 A 
ATOM     13  C   UNL     1      -3.717  12.970  20.557  0.00  0.00    +0.000 A 
ATOM     14  C   UNL     1      -4.398  12.208  19.448  0.00  0.00    +0.000 C 
ATOM     15  C   UNL     1      -2.375  12.723  20.925  0.00  0.00    +0.000 A 
ATOM     16  C   UNL     1      -1.868  13.414  22.044  0.00  0.00    +0.000 A 
ENDBRANCH   1  15
BRANCH   5  17
ATOM     17  C   UNL     1       2.127   8.389  19.249  0.00  0.00    +0.000 C 
BRANCH  17  18
ATOM     18  O   UNL     1       1.859   7.091  18.722  0.00  0.00    +0.000 OA
BRANCH  18  19
ATOM     19  C   UNL     1       2.896   6.427  18.092  0.00  0.00    +0.000 A 
ATOM     20  C   UNL     1       3.989   7.000  17.573  0.00  0.00    +0.000 A 
ATOM     21  C   UNL     1       5.037   6.232  16.866  0.00  0.00    +0.000 A 
ATOM     22  O   UNL     1       5.989   6.859  16.406  0.00  0.00    +0.000 OA
ATOM     23  N   UNL     1       4.864   4.865  16.757  0.00  0.00    +0.000 N 
ATOM     24  C   UNL     1       5.877   4.103  16.043  0.00  0.00    +0.000 C 
ATOM     25  C   UNL     1       3.739   4.200  17.332  0.00  0.00    +0.000 A 
ATOM     26  C   UNL     1       3.596   2.803  17.252  0.00  0.00    +0.000 A 
ATOM     27  C   UNL     1       2.500   2.160  17.831  0.00  0.00    +0.000 A 
ATOM     28  C   UNL     1       1.534   2.904  18.497  0.00  0.00    +0.000 A 
ATOM     29  C   UNL     1       1.658   4.292  18.580  0.00  0.00    +0.000 A 
ATOM     30  C   UNL     1       2.753   4.957  18.000  0.00  0.00    +0.000 A 
ENDBRANCH  18  19
ENDBRANCH  17  18
ENDBRANCH   5  17
TORSDOF 4
ENDMDL
MODEL 9
REMARK VINA RESULT:      -7.8      1.095      1.230
REMARK  Name = 
REMARK  7 active torsions:
REMARK  status: ('A' for Active; 'I' for Inactive)
REMARK    1  A    between atoms: C_1  and  C_2
REMARK    2  A    between atoms: C_5  and  C_6
REMARK    3  A    between atoms: C_7  and  N_8
REMARK    4  A    between atoms: C_12  and  C_14
REMARK    5  A    between atoms: C_14  and  O_15
REMARK    6  A    between atoms: O_15  and  C_16
REMARK    7  A    between atoms: N_20  and  C_21
REMARK                            x       y       z     vdW  Elec       q    Type
REMARK                         _______ _______ _______ _____ _____    ______ ____
ROOT
ATOM      1  N   UNL     1       1.855   7.579  19.231  0.00  0.00    +0.000 N 
ATOM      2  C   UNL     1       1.842   8.875  18.525  0.00  0.00    +0.000 C 
ATOM      3  C   UNL     1       0.602   9.666  18.961  0.00  0.00    +0.000 C 
ATOM      4  N   UNL     1       0.575   9.843  20.420  0.00  0.00    +0.000 N 
ATOM      5  C   UNL     1       0.294  11.033  21.074  0.00  0.00    +0.000 C 
ATOM      6  O   UNL     1       0.236  11.102  22.306  0.00  0.00    +0.000 OA
ATOM      7  C   UNL     1       0.733   8.596  21.189  0.00  0.00    +0.000 C 
ATOM      8  C   UNL     1       1.941   7.761  20.703  0.00  0.00    +0.000 C 
ENDROOT
BRANCH   1  15
ATOM      9  C   UNL     1       5.347   6.149  16.001  0.00  0.00    +0.000 C 
ATOM     10  C   UNL     1       4.374   5.810  17.091  0.00  0.00    +0.000 A 
ATOM     11  C   UNL     1       4.205   4.498  17.522  0.00  0.00    +0.000 A 
ATOM     12  C   UNL     1       3.268   4.205  18.512  0.00  0.00    +0.000 A 
ATOM     13  C   UNL     1       2.477   5.218  19.086  0.00  0.00    +0.000 A 
ATOM     14  C   UNL     1       1.412   4.805  20.070  0.00  0.00    +0.000 C 
ATOM     15  C   UNL     1       2.657   6.562  18.691  0.00  0.00    +0.000 A 
ATOM     16  C   UNL     1       3.609   6.825  17.686  0.00  0.00    +0.000 A 
ENDBRANCH   1  15
BRANCH   5  17
ATOM     17  C   UNL     1       0.037  12.277  20.220  0.00  0.00    +0.000 C 
BRANCH  17  18
ATOM     18  O   UNL     1      -1.220  12.864  20.552  0.00  0.00    +0.000 OA
BRANCH  18  19
ATOM     19  C   UNL     1      -2.330  12.449  19.838  0.00  0.00    +0.000 A 
ATOM     20  C   UNL     1      -2.316  11.935  18.602  0.00  0.00    +0.000 A 
ATOM     21  C   UNL     1      -3.550  11.560  17.877  0.00  0.00    +0.000 A 
ATOM     22  O   UNL     1      -3.428  11.118  16.737  0.00  0.00    +0.000 OA
ATOM     23  N   UNL     1      -4.756  11.747  18.526  0.00  0.00    +0.000 N 
ATOM     24  C   UNL     1      -5.976  11.405  17.813  0.00  0.00    +0.000 C 
ATOM     25  C   UNL     1      -4.822  12.251  19.860  0.00  0.00    +0.000 A 
ATOM     26  C   UNL     1      -6.052  12.398  20.527  0.00  0.00    +0.000 A 
ATOM     27  C   UNL     1      -6.105  12.875  21.838  0.00  0.00    +0.000 A 
ATOM     28  C   UNL     1      -4.931  13.213  22.499  0.00  0.00    +0.000 A 
ATOM     29  C   UNL     1      -3.703  13.080  21.850  0.00  0.00    +0.000 A 
ATOM     30  C   UNL     1      -3.630  12.603  20.530  0.00  0.00    +0.000 A 
ENDBRANCH  18  19
ENDBRANCH  17  18
ENDBRANCH   5  17
TORSDOF 4
ENDMDL
