MODEL 1
REMARK VINA RESULT:      -7.0      0.000      0.000
REMARK  Name = 
REMARK  11 active torsions:
REMARK  status: ('A' for Active; 'I' for Inactive)
REMARK    1  A    between atoms: C_1  and  C_2
REMARK    2  A    between atoms: C_2  and  N_3
REMARK    3  A    between atoms: C_7  and  C_8
REMARK    4  A    between atoms: C_9  and  C_10
REMARK    5  A    between atoms: C_13  and  N_14
REMARK    6  A    between atoms: N_14  and  C_15
REMARK    7  A    between atoms: N_14  and  C_17
REMARK    8  A    between atoms: C_15  and  C_16
REMARK    9  A    between atoms: C_17  and  C_18
REMARK   10  A    between atoms: N_23  and  C_24
REMARK   11  A    between atoms: C_24  and  C_25
REMARK                            x       y       z     vdW  Elec       q    Type
REMARK                         _______ _______ _______ _____ _____    ______ ____
ROOT
ATOM      1  N   UNL     1       4.436   4.874  18.025  0.00  0.00    +0.000 N 
ATOM      2  C   UNL     1       4.017   6.144  17.620  0.00  0.00    +0.000 C 
ATOM      3  O   UNL     1       4.463   6.709  16.619  0.00  0.00    +0.000 OA
ATOM      4  C   UNL     1       2.999   6.809  18.479  0.00  0.00    +0.000 C 
ATOM      5  C   UNL     1       2.640   8.067  18.124  0.00  0.00    +0.000 C 
ATOM      6  C   UNL     1       2.410   6.068  19.615  0.00  0.00    +0.000 C 
ATOM      7  O   UNL     1       1.560   6.566  20.351  0.00  0.00    +0.000 OA
ATOM      8  N   UNL     1       2.860   4.765  19.809  0.00  0.00    +0.000 N 
ATOM      9  C   UNL     1       3.966   4.185  19.163  0.00  0.00    +0.000 C 
ATOM     10  S   UNL     1       4.671   2.738  19.712  0.00  0.00    +0.000 S 
ENDROOT
BRANCH   1  12
ATOM     11  C   UNL     1       6.855   4.628  17.427  0.00  0.00    +0.000 C 
ATOM     12  C   UNL     1       5.415   4.243  17.113  0.00  0.00    +0.000 C 
ENDBRANCH   1  12
BRANCH   5  13
ATOM     13  C   UNL     1       1.686   8.944  18.780  0.00  0.00    +0.000 C 
ATOM     14  C   UNL     1       0.678   9.583  18.163  0.00  0.00    +0.000 C 
BRANCH  14  15
ATOM     15  C   UNL     1      -0.212  10.522  18.873  0.00  0.00    +0.000 A 
ATOM     16  C   UNL     1      -0.054  10.698  20.246  0.00  0.00    +0.000 A 
ATOM     17  C   UNL     1      -0.938  11.512  20.970  0.00  0.00    +0.000 A 
ATOM     18  C   UNL     1      -1.999  12.196  20.359  0.00  0.00    +0.000 A 
ATOM     19  C   UNL     1      -2.094  12.073  18.967  0.00  0.00    +0.000 A 
ATOM     20  C   UNL     1      -1.223  11.249  18.235  0.00  0.00    +0.000 A 
BRANCH  18  21
ATOM     21  N   UNL     1      -2.934  12.919  21.091  0.00  0.00    +0.000 N 
BRANCH  21  22
ATOM     22  C   UNL     1      -2.632  13.357  22.455  0.00  0.00    +0.000 C 
ATOM     23  C   UNL     1      -3.336  12.498  23.496  0.00  0.00    +0.000 C 
ENDBRANCH  21  22
BRANCH  21  24
ATOM     24  C   UNL     1      -4.314  13.064  20.616  0.00  0.00    +0.000 C 
ATOM     25  C   UNL     1      -4.777  14.515  20.707  0.00  0.00    +0.000 C 
ENDBRANCH  21  24
ENDBRANCH  18  21
ENDBRANCH  14  15
ENDBRANCH   5  13
BRANCH   8  26
ATOM     26  C   UNL     1       2.056   4.000  20.787  0.00  0.00    +0.000 C 
ATOM     27  C   UNL     1       0.940   3.173  20.162  0.00  0.00    +0.000 C 
ENDBRANCH   8  26
TORSDOF 7
ENDMDL
MODEL 2
REMARK VINA RESULT:      -7.0      3.405      9.839
REMARK  Name = 
REMARK  11 active torsions:
REMARK  status: ('A' for Active; 'I' for Inactive)
REMARK    1  A    between atoms: C_1  and  C_2
REMARK    2  A    between atoms: C_2  and  N_3
REMARK    3  A    between atoms: C_7  and  C_8
REMARK    4  A    between atoms: C_9  and  C_10
REMARK    5  A    between atoms: C_13  and  N_14
REMARK    6  A    between atoms: N_14  and  C_15
REMARK    7  A    between atoms: N_14  and  C_17
REMARK    8  A    between atoms: C_15  and  C_16
REMARK    9  A    between atoms: C_17  and  C_18
REMARK   10  A    between atoms: N_23  and  C_24
REMARK   11  A    between atoms: C_24  and  C_25
REMARK                            x       y       z     vdW  Elec       q    Type
REMARK                         _______ _______ _______ _____ _____    ______ ____
ROOT
ATOM      1  N   UNL     1      -1.494  12.082  22.142  0.00  0.00    +0.000 N 
ATOM      2  C   UNL     1      -0.633  11.008  22.379  0.00  0.00    +0.000 C 
ATOM      3  O   UNL     1      -0.371  10.596  23.511  0.00  0.00    +0.000 OA
ATOM      4  C   UNL     1      -0.015  10.378  21.179  0.00  0.00    +0.000 C 
ATOM      5  C   UNL     1       0.870   9.379  21.411  0.00  0.00    +0.000 C 
ATOM      6  C   UNL     1      -0.424  10.828  19.831  0.00  0.00    +0.000 C 
ATOM      7  O   UNL     1       0.048  10.337  18.806  0.00  0.00    +0.000 OA
ATOM      8  N   UNL     1      -1.382  11.835  19.774  0.00  0.00    +0.000 N 
ATOM      9  C   UNL     1      -1.822  12.599  20.870  0.00  0.00    +0.000 C 
ATOM     10  S   UNL     1      -2.708  14.036  20.668  0.00  0.00    +0.000 S 
ENDROOT
BRANCH   1  12
ATOM     11  C   UNL     1      -3.530  12.138  23.599  0.00  0.00    +0.000 C 
ATOM     12  C   UNL     1      -2.111  12.641  23.364  0.00  0.00    +0.000 C 
ENDBRANCH   1  12
BRANCH   5  13
ATOM     13  C   UNL     1       1.620   8.604  20.439  0.00  0.00    +0.000 C 
ATOM     14  C   UNL     1       1.892   7.292  20.544  0.00  0.00    +0.000 C 
BRANCH  14  15
ATOM     15  C   UNL     1       2.725   6.577  19.558  0.00  0.00    +0.000 A 
ATOM     16  C   UNL     1       3.257   5.335  19.896  0.00  0.00    +0.000 A 
ATOM     17  C   UNL     1       4.127   4.667  19.021  0.00  0.00    +0.000 A 
ATOM     18  C   UNL     1       4.487   5.195  17.773  0.00  0.00    +0.000 A 
ATOM     19  C   UNL     1       3.879   6.405  17.415  0.00  0.00    +0.000 A 
ATOM     20  C   UNL     1       3.018   7.089  18.289  0.00  0.00    +0.000 A 
BRANCH  18  21
ATOM     21  N   UNL     1       5.427   4.582  16.952  0.00  0.00    +0.000 N 
BRANCH  21  22
ATOM     22  C   UNL     1       6.833   4.512  17.356  0.00  0.00    +0.000 C 
ATOM     23  C   UNL     1       7.375   5.874  17.764  0.00  0.00    +0.000 C 
ENDBRANCH  21  22
BRANCH  21  24
ATOM     24  C   UNL     1       5.091   4.198  15.577  0.00  0.00    +0.000 C 
ATOM     25  C   UNL     1       6.339   4.137  14.702  0.00  0.00    +0.000 C 
ENDBRANCH  21  24
ENDBRANCH  18  21
ENDBRANCH  14  15
ENDBRANCH   5  13
BRANCH   8  26
ATOM     26  C   UNL     1      -1.931  12.055  18.417  0.00  0.00    +0.000 C 
ATOM     27  C   UNL     1      -3.216  11.289  18.136  0.00  0.00    +0.000 C 
ENDBRANCH   8  26
TORSDOF 7
ENDMDL
MODEL 3
REMARK VINA RESULT:      -7.0      0.637      1.208
REMARK  Name = 
REMARK  11 active torsions:
REMARK  status: ('A' for Active; 'I' for Inactive)
REMARK    1  A    between atoms: C_1  and  C_2
REMARK    2  A    between atoms: C_2  and  N_3
REMARK    3  A    between atoms: C_7  and  C_8
REMARK    4  A    between atoms: C_9  and  C_10
REMARK    5  A    between atoms: C_13  and  N_14
REMARK    6  A    between atoms: N_14  and  C_15
REMARK    7  A    between atoms: N_14  and  C_17
REMARK    8  A    between atoms: C_15  and  C_16
REMARK    9  A    between atoms: C_17  and  C_18
REMARK   10  A    between atoms: N_23  and  C_24
REMARK   11  A    between atoms: C_24  and  C_25
REMARK                            x       y       z     vdW  Elec       q    Type
REMARK                         _______ _______ _______ _____ _____    ______ ____
ROOT
ATOM      1  N   UNL     1       4.365   4.978  17.960  0.00  0.00    +0.000 N 
ATOM      2  C   UNL     1       3.973   6.244  17.516  0.00  0.00    +0.000 C 
ATOM      3  O   UNL     1       4.403   6.752  16.478  0.00  0.00    +0.000 OA
ATOM      4  C   UNL     1       3.007   6.978  18.379  0.00  0.00    +0.000 C 
ATOM      5  C   UNL     1       2.676   8.231  17.984  0.00  0.00    +0.000 C 
ATOM      6  C   UNL     1       2.434   6.304  19.564  0.00  0.00    +0.000 C 
ATOM      7  O   UNL     1       1.626   6.859  20.307  0.00  0.00    +0.000 OA
ATOM      8  N   UNL     1       2.848   4.995  19.799  0.00  0.00    +0.000 N 
ATOM      9  C   UNL     1       3.912   4.352  19.142  0.00  0.00    +0.000 C 
ATOM     10  S   UNL     1       4.589   2.906  19.727  0.00  0.00    +0.000 S 
ENDROOT
BRANCH   1  12
ATOM     11  C   UNL     1       6.757   4.557  17.353  0.00  0.00    +0.000 C 
ATOM     12  C   UNL     1       5.292   4.278  17.044  0.00  0.00    +0.000 C 
ENDBRANCH   1  12
BRANCH   5  13
ATOM     13  C   UNL     1       1.774   9.165  18.633  0.00  0.00    +0.000 C 
ATOM     14  C   UNL     1       0.641   9.642  18.092  0.00  0.00    +0.000 C 
BRANCH  14  15
ATOM     15  C   UNL     1      -0.195  10.650  18.773  0.00  0.00    +0.000 A 
ATOM     16  C   UNL     1       0.321  11.321  19.880  0.00  0.00    +0.000 A 
ATOM     17  C   UNL     1      -0.475  12.219  20.608  0.00  0.00    +0.000 A 
ATOM     18  C   UNL     1      -1.803  12.499  20.256  0.00  0.00    +0.000 A 
ATOM     19  C   UNL     1      -2.279  11.879  19.094  0.00  0.00    +0.000 A 
ATOM     20  C   UNL     1      -1.495  10.967  18.366  0.00  0.00    +0.000 A 
BRANCH  18  21
ATOM     21  N   UNL     1      -2.621  13.309  21.036  0.00  0.00    +0.000 N 
BRANCH  21  22
ATOM     22  C   UNL     1      -2.353  14.744  21.153  0.00  0.00    +0.000 C 
ATOM     23  C   UNL     1      -3.608  15.576  20.932  0.00  0.00    +0.000 C 
ENDBRANCH  21  22
BRANCH  21  24
ATOM     24  C   UNL     1      -3.623  12.726  21.935  0.00  0.00    +0.000 C 
ATOM     25  C   UNL     1      -3.014  12.389  23.292  0.00  0.00    +0.000 C 
ENDBRANCH  21  24
ENDBRANCH  18  21
ENDBRANCH  14  15
ENDBRANCH   5  13
BRANCH   8  26
ATOM     26  C   UNL     1       2.053   4.298  20.834  0.00  0.00    +0.000 C 
ATOM     27  C   UNL     1       0.930   3.435  20.276  0.00  0.00    +0.000 C 
ENDBRANCH   8  26
TORSDOF 7
ENDMDL
MODEL 4
REMARK VINA RESULT:      -6.9      7.666     11.453
REMARK  Name = 
REMARK  11 active torsions:
REMARK  status: ('A' for Active; 'I' for Inactive)
REMARK    1  A    between atoms: C_1  and  C_2
REMARK    2  A    between atoms: C_2  and  N_3
REMARK    3  A    between atoms: C_7  and  C_8
REMARK    4  A    between atoms: C_9  and  C_10
REMARK    5  A    between atoms: C_13  and  N_14
REMARK    6  A    between atoms: N_14  and  C_15
REMARK    7  A    between atoms: N_14  and  C_17
REMARK    8  A    between atoms: C_15  and  C_16
REMARK    9  A    between atoms: C_17  and  C_18
REMARK   10  A    between atoms: N_23  and  C_24
REMARK   11  A    between atoms: C_24  and  C_25
REMARK                            x       y       z     vdW  Elec       q    Type
REMARK                         _______ _______ _______ _____ _____    ______ ____
ROOT
ATOM      1  N   UNL     1      10.708  14.924  18.918  0.00  0.00    +0.000 N 
ATOM      2  C   UNL     1      10.941  13.557  19.095  0.00  0.00    +0.000 C 
ATOM      3  O   UNL     1      11.943  13.116  19.662  0.00  0.00    +0.000 OA
ATOM      4  C   UNL     1       9.914  12.634  18.539  0.00  0.00    +0.000 C 
ATOM      5  C   UNL     1      10.170  11.308  18.653  0.00  0.00    +0.000 C 
ATOM      6  C   UNL     1       8.676  13.192  17.954  0.00  0.00    +0.000 C 
ATOM      7  O   UNL     1       7.791  12.476  17.489  0.00  0.00    +0.000 OA
ATOM      8  N   UNL     1       8.553  14.579  17.960  0.00  0.00    +0.000 N 
ATOM      9  C   UNL     1       9.585  15.482  18.271  0.00  0.00    +0.000 C 
ATOM     10  S   UNL     1       9.470  17.139  17.906  0.00  0.00    +0.000 S 
ENDROOT
BRANCH   1  12
ATOM     11  C   UNL     1      11.407  16.201  20.955  0.00  0.00    +0.000 C 
ATOM     12  C   UNL     1      11.738  15.794  19.525  0.00  0.00    +0.000 C 
ENDBRANCH   1  12
BRANCH   5  13
ATOM     13  C   UNL     1       9.355  10.197  18.197  0.00  0.00    +0.000 C 
ATOM     14  C   UNL     1       8.931   9.184  18.972  0.00  0.00    +0.000 C 
BRANCH  14  15
ATOM     15  C   UNL     1       8.168   8.043  18.431  0.00  0.00    +0.000 A 
ATOM     16  C   UNL     1       7.261   8.265  17.397  0.00  0.00    +0.000 A 
ATOM     17  C   UNL     1       6.452   7.222  16.919  0.00  0.00    +0.000 A 
ATOM     18  C   UNL     1       6.524   5.920  17.434  0.00  0.00    +0.000 A 
ATOM     19  C   UNL     1       7.498   5.696  18.415  0.00  0.00    +0.000 A 
ATOM     20  C   UNL     1       8.303   6.736  18.911  0.00  0.00    +0.000 A 
BRANCH  18  21
ATOM     21  N   UNL     1       5.653   4.914  17.031  0.00  0.00    +0.000 N 
BRANCH  21  22
ATOM     22  C   UNL     1       5.237   4.807  15.631  0.00  0.00    +0.000 C 
ATOM     23  C   UNL     1       6.201   3.955  14.817  0.00  0.00    +0.000 C 
ENDBRANCH  21  22
BRANCH  21  24
ATOM     24  C   UNL     1       4.952   4.085  18.018  0.00  0.00    +0.000 C 
ATOM     25  C   UNL     1       3.440   4.252  17.902  0.00  0.00    +0.000 C 
ENDBRANCH  21  24
ENDBRANCH  18  21
ENDBRANCH  14  15
ENDBRANCH   5  13
BRANCH   8  26
ATOM     26  C   UNL     1       7.199  15.056  17.603  0.00  0.00    +0.000 C 
ATOM     27  C   UNL     1       6.284  15.279  18.799  0.00  0.00    +0.000 C 
ENDBRANCH   8  26
TORSDOF 7
ENDMDL
MODEL 5
REMARK VINA RESULT:      -6.9      0.738      1.384
REMARK  Name = 
REMARK  11 active torsions:
REMARK  status: ('A' for Active; 'I' for Inactive)
REMARK    1  A    between atoms: C_1  and  C_2
REMARK    2  A    between atoms: C_2  and  N_3
REMARK    3  A    between atoms: C_7  and  C_8
REMARK    4  A    between atoms: C_9  and  C_10
REMARK    5  A    between atoms: C_13  and  N_14
REMARK    6  A    between atoms: N_14  and  C_15
REMARK    7  A    between atoms: N_14  and  C_17
REMARK    8  A    between atoms: C_15  and  C_16
REMARK    9  A    between atoms: C_17  and  C_18
REMARK   10  A    between atoms: N_23  and  C_24
REMARK   11  A    between atoms: C_24  and  C_25
REMARK                            x       y       z     vdW  Elec       q    Type
REMARK                         _______ _______ _______ _____ _____    ______ ____
ROOT
ATOM      1  N   UNL     1       4.428   4.947  18.038  0.00  0.00    +0.000 N 
ATOM      2  C   UNL     1       4.003   6.210  17.616  0.00  0.00    +0.000 C 
ATOM      3  O   UNL     1       4.447   6.764  16.608  0.00  0.00    +0.000 OA
ATOM      4  C   UNL     1       2.983   6.882  18.466  0.00  0.00    +0.000 C 
ATOM      5  C   UNL     1       2.618   8.133  18.095  0.00  0.00    +0.000 C 
ATOM      6  C   UNL     1       2.397   6.153  19.612  0.00  0.00    +0.000 C 
ATOM      7  O   UNL     1       1.544   6.656  20.342  0.00  0.00    +0.000 OA
ATOM      8  N   UNL     1       2.852   4.854  19.823  0.00  0.00    +0.000 N 
ATOM      9  C   UNL     1       3.961   4.271  19.185  0.00  0.00    +0.000 C 
ATOM     10  S   UNL     1       4.672   2.834  19.752  0.00  0.00    +0.000 S 
ENDROOT
BRANCH   1  12
ATOM     11  C   UNL     1       6.849   4.692  17.454  0.00  0.00    +0.000 C 
ATOM     12  C   UNL     1       5.410   4.309  17.134  0.00  0.00    +0.000 C 
ENDBRANCH   1  12
BRANCH   5  13
ATOM     13  C   UNL     1       1.660   9.014  18.739  0.00  0.00    +0.000 C 
ATOM     14  C   UNL     1       0.612   9.590  18.128  0.00  0.00    +0.000 C 
BRANCH  14  15
ATOM     15  C   UNL     1      -0.282  10.538  18.820  0.00  0.00    +0.000 A 
ATOM     16  C   UNL     1      -1.487  10.894  18.218  0.00  0.00    +0.000 A 
ATOM     17  C   UNL     1      -2.321  11.861  18.802  0.00  0.00    +0.000 A 
ATOM     18  C   UNL     1      -2.001  12.495  20.010  0.00  0.00    +0.000 A 
ATOM     19  C   UNL     1      -0.827  12.067  20.643  0.00  0.00    +0.000 A 
ATOM     20  C   UNL     1       0.022  11.110  20.060  0.00  0.00    +0.000 A 
BRANCH  18  21
ATOM     21  N   UNL     1      -2.776  13.525  20.534  0.00  0.00    +0.000 N 
BRANCH  21  22
ATOM     22  C   UNL     1      -2.150  14.628  21.266  0.00  0.00    +0.000 C 
ATOM     23  C   UNL     1      -2.478  15.979  20.646  0.00  0.00    +0.000 C 
ENDBRANCH  21  22
BRANCH  21  24
ATOM     24  C   UNL     1      -4.239  13.423  20.571  0.00  0.00    +0.000 C 
ATOM     25  C   UNL     1      -4.720  12.908  21.923  0.00  0.00    +0.000 C 
ENDBRANCH  21  24
ENDBRANCH  18  21
ENDBRANCH  14  15
ENDBRANCH   5  13
BRANCH   8  26
ATOM     26  C   UNL     1       2.051   4.098  20.811  0.00  0.00    +0.000 C 
ATOM     27  C   UNL     1       0.950   3.246  20.195  0.00  0.00    +0.000 C 
ENDBRANCH   8  26
TORSDOF 7
ENDMDL
MODEL 6
REMARK VINA RESULT:      -6.8      0.733      1.374
REMARK  Name = 
REMARK  11 active torsions:
REMARK  status: ('A' for Active; 'I' for Inactive)
REMARK    1  A    between atoms: C_1  and  C_2
REMARK    2  A    between atoms: C_2  and  N_3
REMARK    3  A    between atoms: C_7  and  C_8
REMARK    4  A    between atoms: C_9  and  C_10
REMARK    5  A    between atoms: C_13  and  N_14
REMARK    6  A    between atoms: N_14  and  C_15
REMARK    7  A    between atoms: N_14  and  C_17
REMARK    8  A    between atoms: C_15  and  C_16
REMARK    9  A    between atoms: C_17  and  C_18
REMARK   10  A    between atoms: N_23  and  C_24
REMARK   11  A    between atoms: C_24  and  C_25
REMARK                            x       y       z     vdW  Elec       q    Type
REMARK                         _______ _______ _______ _____ _____    ______ ____
ROOT
ATOM      1  N   UNL     1       4.415   4.898  17.974  0.00  0.00    +0.000 N 
ATOM      2  C   UNL     1       3.999   6.170  17.573  0.00  0.00    +0.000 C 
ATOM      3  O   UNL     1       4.431   6.729  16.562  0.00  0.00    +0.000 OA
ATOM      4  C   UNL     1       3.004   6.847  18.449  0.00  0.00    +0.000 C 
ATOM      5  C   UNL     1       2.648   8.106  18.097  0.00  0.00    +0.000 C 
ATOM      6  C   UNL     1       2.430   6.114  19.599  0.00  0.00    +0.000 C 
ATOM      7  O   UNL     1       1.599   6.620  20.350  0.00  0.00    +0.000 OA
ATOM      8  N   UNL     1       2.873   4.807  19.789  0.00  0.00    +0.000 N 
ATOM      9  C   UNL     1       3.962   4.216  19.123  0.00  0.00    +0.000 C 
ATOM     10  S   UNL     1       4.665   2.765  19.663  0.00  0.00    +0.000 S 
ENDROOT
BRANCH   1  12
ATOM     11  C   UNL     1       6.824   4.579  17.370  0.00  0.00    +0.000 C 
ATOM     12  C   UNL     1       5.372   4.256  17.045  0.00  0.00    +0.000 C 
ENDBRANCH   1  12
BRANCH   5  13
ATOM     13  C   UNL     1       1.714   8.992  18.768  0.00  0.00    +0.000 C 
ATOM     14  C   UNL     1       0.600   9.498  18.215  0.00  0.00    +0.000 C 
BRANCH  14  15
ATOM     15  C   UNL     1      -0.269  10.457  18.925  0.00  0.00    +0.000 A 
ATOM     16  C   UNL     1      -1.265  11.122  18.213  0.00  0.00    +0.000 A 
ATOM     17  C   UNL     1      -2.051  12.106  18.833  0.00  0.00    +0.000 A 
ATOM     18  C   UNL     1      -1.892  12.454  20.182  0.00  0.00    +0.000 A 
ATOM     19  C   UNL     1      -0.943  11.718  20.902  0.00  0.00    +0.000 A 
ATOM     20  C   UNL     1      -0.141  10.741  20.289  0.00  0.00    +0.000 A 
BRANCH  18  21
ATOM     21  N   UNL     1      -2.600  13.499  20.766  0.00  0.00    +0.000 N 
BRANCH  21  22
ATOM     22  C   UNL     1      -3.950  13.281  21.289  0.00  0.00    +0.000 C 
ATOM     23  C   UNL     1      -3.929  12.811  22.737  0.00  0.00    +0.000 C 
ENDBRANCH  21  22
BRANCH  21  24
ATOM     24  C   UNL     1      -2.117  14.881  20.672  0.00  0.00    +0.000 C 
ATOM     25  C   UNL     1      -1.079  15.176  21.749  0.00  0.00    +0.000 C 
ENDBRANCH  21  24
ENDBRANCH  18  21
ENDBRANCH  14  15
ENDBRANCH   5  13
BRANCH   8  26
ATOM     26  C   UNL     1       2.081   4.052  20.784  0.00  0.00    +0.000 C 
ATOM     27  C   UNL     1       0.922   3.266  20.187  0.00  0.00    +0.000 C 
ENDBRANCH   8  26
TORSDOF 7
ENDMDL
MODEL 7
REMARK VINA RESULT:      -6.8      7.734     11.511
REMARK  Name = 
REMARK  11 active torsions:
REMARK  status: ('A' for Active; 'I' for Inactive)
REMARK    1  A    between atoms: C_1  and  C_2
REMARK    2  A    between atoms: C_2  and  N_3
REMARK    3  A    between atoms: C_7  and  C_8
REMARK    4  A    between atoms: C_9  and  C_10
REMARK    5  A    between atoms: C_13  and  N_14
REMARK    6  A    between atoms: N_14  and  C_15
REMARK    7  A    between atoms: N_14  and  C_17
REMARK    8  A    between atoms: C_15  and  C_16
REMARK    9  A    between atoms: C_17  and  C_18
REMARK   10  A    between atoms: N_23  and  C_24
REMARK   11  A    between atoms: C_24  and  C_25
REMARK                            x       y       z     vdW  Elec       q    Type
REMARK                         _______ _______ _______ _____ _____    ______ ____
ROOT
ATOM      1  N   UNL     1      10.801  14.994  18.677  0.00  0.00    +0.000 N 
ATOM      2  C   UNL     1      11.069  13.629  18.806  0.00  0.00    +0.000 C 
ATOM      3  O   UNL     1      12.129  13.193  19.261  0.00  0.00    +0.000 OA
ATOM      4  C   UNL     1      10.002  12.699  18.343  0.00  0.00    +0.000 C 
ATOM      5  C   UNL     1      10.285  11.376  18.408  0.00  0.00    +0.000 C 
ATOM      6  C   UNL     1       8.703  13.248  17.896  0.00  0.00    +0.000 C 
ATOM      7  O   UNL     1       7.785  12.527  17.512  0.00  0.00    +0.000 OA
ATOM      8  N   UNL     1       8.564  14.633  17.938  0.00  0.00    +0.000 N 
ATOM      9  C   UNL     1       9.611  15.546  18.157  0.00  0.00    +0.000 C 
ATOM     10  S   UNL     1       9.438  17.207  17.834  0.00  0.00    +0.000 S 
ENDROOT
BRANCH   1  12
ATOM     11  C   UNL     1      11.678  16.265  20.648  0.00  0.00    +0.000 C 
ATOM     12  C   UNL     1      11.877  15.870  19.190  0.00  0.00    +0.000 C 
ENDBRANCH   1  12
BRANCH   5  13
ATOM     13  C   UNL     1       9.441  10.260  18.019  0.00  0.00    +0.000 C 
ATOM     14  C   UNL     1       8.935   9.347  18.864  0.00  0.00    +0.000 C 
BRANCH  14  15
ATOM     15  C   UNL     1       8.146   8.191  18.396  0.00  0.00    +0.000 A 
ATOM     16  C   UNL     1       8.336   6.952  19.004  0.00  0.00    +0.000 A 
ATOM     17  C   UNL     1       7.672   5.811  18.527  0.00  0.00    +0.000 A 
ATOM     18  C   UNL     1       6.782   5.859  17.445  0.00  0.00    +0.000 A 
ATOM     19  C   UNL     1       6.540   7.125  16.899  0.00  0.00    +0.000 A 
ATOM     20  C   UNL     1       7.211   8.272  17.359  0.00  0.00    +0.000 A 
BRANCH  18  21
ATOM     21  N   UNL     1       6.204   4.713  16.910  0.00  0.00    +0.000 N 
BRANCH  21  22
ATOM     22  C   UNL     1       6.596   4.233  15.583  0.00  0.00    +0.000 C 
ATOM     23  C   UNL     1       5.477   4.403  14.565  0.00  0.00    +0.000 C 
ENDBRANCH  21  22
BRANCH  21  24
ATOM     24  C   UNL     1       5.039   4.089  17.545  0.00  0.00    +0.000 C 
ATOM     25  C   UNL     1       3.966   5.126  17.865  0.00  0.00    +0.000 C 
ENDBRANCH  21  24
ENDBRANCH  18  21
ENDBRANCH  14  15
ENDBRANCH   5  13
BRANCH   8  26
ATOM     26  C   UNL     1       7.175  15.096  17.729  0.00  0.00    +0.000 C 
ATOM     27  C   UNL     1       6.382  15.281  19.015  0.00  0.00    +0.000 C 
ENDBRANCH   8  26
TORSDOF 7
ENDMDL
MODEL 8
REMARK VINA RESULT:      -6.7      0.945      1.176
REMARK  Name = 
REMARK  11 active torsions:
REMARK  status: ('A' for Active; 'I' for Inactive)
REMARK    1  A    between atoms: C_1  and  C_2
REMARK    2  A    between atoms: C_2  and  N_3
REMARK    3  A    between atoms: C_7  and  C_8
REMARK    4  A    between atoms: C_9  and  C_10
REMARK    5  A    between atoms: C_13  and  N_14
REMARK    6  A    between atoms: N_14  and  C_15
REMARK    7  A    between atoms: N_14  and  C_17
REMARK    8  A    between atoms: C_15  and  C_16
REMARK    9  A    between atoms: C_17  and  C_18
REMARK   10  A    between atoms: N_23  and  C_24
REMARK   11  A    between atoms: C_24  and  C_25
REMARK                            x       y       z     vdW  Elec       q    Type
REMARK                         _______ _______ _______ _____ _____    ______ ____
ROOT
ATOM      1  N   UNL     1       4.477   4.882  18.023  0.00  0.00    +0.000 N 
ATOM      2  C   UNL     1       4.067   6.134  17.555  0.00  0.00    +0.000 C 
ATOM      3  O   UNL     1       4.530   6.653  16.537  0.00  0.00    +0.000 OA
ATOM      4  C   UNL     1       3.039   6.838  18.369  0.00  0.00    +0.000 C 
ATOM      5  C   UNL     1       2.687   8.079  17.953  0.00  0.00    +0.000 C 
ATOM      6  C   UNL     1       2.431   6.149  19.528  0.00  0.00    +0.000 C 
ATOM      7  O   UNL     1       1.571   6.680  20.228  0.00  0.00    +0.000 OA
ATOM      8  N   UNL     1       2.875   4.855  19.786  0.00  0.00    +0.000 N 
ATOM      9  C   UNL     1       3.989   4.245  19.183  0.00  0.00    +0.000 C 
ATOM     10  S   UNL     1       4.682   2.822  19.806  0.00  0.00    +0.000 S 
ENDROOT
BRANCH   1  12
ATOM     11  C   UNL     1       6.905   4.601  17.477  0.00  0.00    +0.000 C 
ATOM     12  C   UNL     1       5.469   4.210  17.154  0.00  0.00    +0.000 C 
ENDBRANCH   1  12
BRANCH   5  13
ATOM     13  C   UNL     1       1.726   8.986  18.555  0.00  0.00    +0.000 C 
ATOM     14  C   UNL     1       1.595  10.286  18.243  0.00  0.00    +0.000 C 
BRANCH  14  15
ATOM     15  C   UNL     1       0.649  11.175  18.946  0.00  0.00    +0.000 A 
ATOM     16  C   UNL     1       1.111  11.950  20.007  0.00  0.00    +0.000 A 
ATOM     17  C   UNL     1       0.224  12.737  20.757  0.00  0.00    +0.000 A 
ATOM     18  C   UNL     1      -1.147  12.800  20.473  0.00  0.00    +0.000 A 
ATOM     19  C   UNL     1      -1.581  12.079  19.353  0.00  0.00    +0.000 A 
ATOM     20  C   UNL     1      -0.703  11.276  18.604  0.00  0.00    +0.000 A 
BRANCH  18  21
ATOM     21  N   UNL     1      -2.040  13.499  21.278  0.00  0.00    +0.000 N 
BRANCH  21  22
ATOM     22  C   UNL     1      -3.078  12.789  22.028  0.00  0.00    +0.000 C 
ATOM     23  C   UNL     1      -2.499  12.012  23.202  0.00  0.00    +0.000 C 
ENDBRANCH  21  22
BRANCH  21  24
ATOM     24  C   UNL     1      -2.117  14.963  21.224  0.00  0.00    +0.000 C 
ATOM     25  C   UNL     1      -1.488  15.593  22.462  0.00  0.00    +0.000 C 
ENDBRANCH  21  24
ENDBRANCH  18  21
ENDBRANCH  14  15
ENDBRANCH   5  13
BRANCH   8  26
ATOM     26  C   UNL     1       2.054   4.136  20.785  0.00  0.00    +0.000 C 
ATOM     27  C   UNL     1       0.920   3.317  20.182  0.00  0.00    +0.000 C 
ENDBRANCH   8  26
TORSDOF 7
ENDMDL
MODEL 9
REMARK VINA RESULT:      -6.7      1.316      1.896
REMARK  Name = 
REMARK  11 active torsions:
REMARK  status: ('A' for Active; 'I' for Inactive)
REMARK    1  A    between atoms: C_1  and  C_2
REMARK    2  A    between atoms: C_2  and  N_3
REMARK    3  A    between atoms: C_7  and  C_8
REMARK    4  A    between atoms: C_9  and  C_10
REMARK    5  A    between atoms: C_13  and  N_14
REMARK    6  A    between atoms: N_14  and  C_15
REMARK    7  A    between atoms: N_14  and  C_17
REMARK    8  A    between atoms: C_15  and  C_16
REMARK    9  A    between atoms: C_17  and  C_18
REMARK   10  A    between atoms: N_23  and  C_24
REMARK   11  A    between atoms: C_24  and  C_25
REMARK                            x       y       z     vdW  Elec       q    Type
REMARK                         _______ _______ _______ _____ _____    ______ ____
ROOT
ATOM      1  N   UNL     1       3.876   4.614  17.849  0.00  0.00    +0.000 N 
ATOM      2  C   UNL     1       3.573   5.978  17.840  0.00  0.00    +0.000 C 
ATOM      3  O   UNL     1       4.074   6.771  17.038  0.00  0.00    +0.000 OA
ATOM      4  C   UNL     1       2.613   6.449  18.876  0.00  0.00    +0.000 C 
ATOM      5  C   UNL     1       2.369   7.782  18.910  0.00  0.00    +0.000 C 
ATOM      6  C   UNL     1       1.954   5.462  19.758  0.00  0.00    +0.000 C 
ATOM      7  O   UNL     1       1.147   5.795  20.625  0.00  0.00    +0.000 OA
ATOM      8  N   UNL     1       2.286   4.125  19.556  0.00  0.00    +0.000 N 
ATOM      9  C   UNL     1       3.340   3.666  18.746  0.00  0.00    +0.000 C 
ATOM     10  S   UNL     1       3.911   2.066  18.835  0.00  0.00    +0.000 S 
ENDROOT
BRANCH   1  12
ATOM     11  C   UNL     1       6.267   4.389  17.140  0.00  0.00    +0.000 C 
ATOM     12  C   UNL     1       4.801   4.195  16.773  0.00  0.00    +0.000 C 
ENDBRANCH   1  12
BRANCH   5  13
ATOM     13  C   UNL     1       1.492   8.508  19.811  0.00  0.00    +0.000 C 
ATOM     14  C   UNL     1       0.771   9.591  19.478  0.00  0.00    +0.000 C 
BRANCH  14  15
ATOM     15  C   UNL     1      -0.042  10.331  20.462  0.00  0.00    +0.000 A 
ATOM     16  C   UNL     1      -0.904  11.329  20.013  0.00  0.00    +0.000 A 
ATOM     17  C   UNL     1      -1.625  12.115  20.925  0.00  0.00    +0.000 A 
ATOM     18  C   UNL     1      -1.535  11.929  22.311  0.00  0.00    +0.000 A 
ATOM     19  C   UNL     1      -0.728  10.869  22.742  0.00  0.00    +0.000 A 
ATOM     20  C   UNL     1       0.010  10.085  21.838  0.00  0.00    +0.000 A 
BRANCH  18  21
ATOM     21  N   UNL     1      -2.169  12.774  23.215  0.00  0.00    +0.000 N 
BRANCH  21  22
ATOM     22  C   UNL     1      -1.497  13.978  23.707  0.00  0.00    +0.000 C 
ATOM     23  C   UNL     1      -1.662  15.151  22.752  0.00  0.00    +0.000 C 
ENDBRANCH  21  22
BRANCH  21  24
ATOM     24  C   UNL     1      -3.419  12.373  23.871  0.00  0.00    +0.000 C 
ATOM     25  C   UNL     1      -4.619  13.071  23.241  0.00  0.00    +0.000 C 
ENDBRANCH  21  24
ENDBRANCH  18  21
ENDBRANCH  14  15
ENDBRANCH   5  13
BRANCH   8  26
ATOM     26  C   UNL     1       1.411   3.181  20.284  0.00  0.00    +0.000 C 
ATOM     27  C   UNL     1       1.916   2.811  21.672  0.00  0.00    +0.000 C 
ENDBRANCH   8  26
TORSDOF 7
ENDMDL
