MODEL 1
REMARK VINA RESULT:      -7.1      0.000      0.000
REMARK  Name = 
REMARK  5 active torsions:
REMARK  status: ('A' for Active; 'I' for Inactive)
REMARK    1  A    between atoms: C_5  and  S_6
REMARK    2  A    between atoms: S_6  and  C_7
REMARK    3  A    between atoms: C_7  and  C_8
REMARK    4  A    between atoms: N_10  and  N_11
REMARK    5  A    between atoms: C_12  and  C_14
REMARK                            x       y       z     vdW  Elec       q    Type
REMARK                         _______ _______ _______ _____ _____    ______ ____
ROOT
ATOM      1  C   UNL     1       2.090   4.681  20.082  0.00  0.00    +0.000 C 
ATOM      2  O   UNL     1       0.945   4.422  20.456  0.00  0.00    +0.000 OA
ATOM      3  N   UNL     1       2.679   5.905  20.332  0.00  0.00    +0.000 N 
ATOM      4  H   UNL     1       3.539   6.226  19.884  0.00  0.00    +0.000 HD
ENDROOT
BRANCH   3   5
ATOM      5  N   UNL     1       1.907   6.883  20.963  0.00  0.00    +0.000 N 
ATOM      6  C   UNL     1       1.600   8.036  20.271  0.00  0.00    +0.000 C 
ATOM      7  O   UNL     1       1.977   8.247  19.121  0.00  0.00    +0.000 OA
ATOM      8  H   UNL     1       1.468   6.610  21.842  0.00  0.00    +0.000 HD
BRANCH   6   9
ATOM      9  C   UNL     1       0.756   9.028  20.992  0.00  0.00    +0.000 A 
ATOM     10  C   UNL     1       0.536   8.947  22.374  0.00  0.00    +0.000 A 
ATOM     11  C   UNL     1      -0.244   9.913  23.018  0.00  0.00    +0.000 A 
ATOM     12  C   UNL     1      -0.801  10.960  22.283  0.00  0.00    +0.000 A 
ATOM     13 CL   UNL     1      -1.756  12.147  23.080  0.00  0.00    +0.000 Cl
ATOM     14  C   UNL     1      -0.580  11.053  20.909  0.00  0.00    +0.000 A 
ATOM     15  C   UNL     1       0.203  10.091  20.265  0.00  0.00    +0.000 A 
ENDBRANCH   6   9
ENDBRANCH   3   5
BRANCH   1  16
ATOM     16  C   UNL     1       2.982   3.688  19.362  0.00  0.00    +0.000 C 
BRANCH  16  17
ATOM     17  S   UNL     1       2.806   3.825  17.563  0.00  0.00    +0.000 S 
BRANCH  17  22
ATOM     18  N   UNL     1       7.447   5.940  15.789  0.00  0.00    +0.000 N 
ATOM     19  C   UNL     1       6.264   5.682  16.376  0.00  0.00    +0.000 A 
ATOM     20  N   UNL     1       5.608   6.517  17.151  0.00  0.00    +0.000 NA
ATOM     21  N   UNL     1       4.410   5.990  17.606  0.00  0.00    +0.000 NA
ATOM     22  C   UNL     1       4.218   4.771  17.158  0.00  0.00    +0.000 A 
ATOM     23  S   UNL     1       5.477   4.169  16.167  0.00  0.00    +0.000 S 
ATOM     24  H   UNL     1       7.980   6.724  16.148  0.00  0.00    +0.000 HD
ATOM     25  H   UNL     1       8.005   5.166  15.447  0.00  0.00    +0.000 HD
ENDBRANCH  17  22
ENDBRANCH  16  17
ENDBRANCH   1  16
TORSDOF 5
ENDMDL
MODEL 2
REMARK VINA RESULT:      -7.1      1.227      1.657
REMARK  Name = 
REMARK  5 active torsions:
REMARK  status: ('A' for Active; 'I' for Inactive)
REMARK    1  A    between atoms: C_5  and  S_6
REMARK    2  A    between atoms: S_6  and  C_7
REMARK    3  A    between atoms: C_7  and  C_8
REMARK    4  A    between atoms: N_10  and  N_11
REMARK    5  A    between atoms: C_12  and  C_14
REMARK                            x       y       z     vdW  Elec       q    Type
REMARK                         _______ _______ _______ _____ _____    ______ ____
ROOT
ATOM      1  C   UNL     1       2.265   4.897  19.435  0.00  0.00    +0.000 C 
ATOM      2  O   UNL     1       1.149   4.573  19.844  0.00  0.00    +0.000 OA
ATOM      3  N   UNL     1       2.830   6.118  19.746  0.00  0.00    +0.000 N 
ATOM      4  H   UNL     1       3.656   6.499  19.282  0.00  0.00    +0.000 HD
ENDROOT
BRANCH   3   5
ATOM      5  N   UNL     1       2.062   7.020  20.486  0.00  0.00    +0.000 N 
ATOM      6  C   UNL     1       1.698   8.216  19.903  0.00  0.00    +0.000 C 
ATOM      7  O   UNL     1       2.021   8.529  18.760  0.00  0.00    +0.000 OA
ATOM      8  H   UNL     1       1.667   6.666  21.357  0.00  0.00    +0.000 HD
BRANCH   6   9
ATOM      9  C   UNL     1       0.862   9.124  20.736  0.00  0.00    +0.000 A 
ATOM     10  C   UNL     1       0.142  10.189  20.176  0.00  0.00    +0.000 A 
ATOM     11  C   UNL     1      -0.650  11.004  20.991  0.00  0.00    +0.000 A 
ATOM     12  C   UNL     1      -0.726  10.755  22.361  0.00  0.00    +0.000 A 
ATOM     13 CL   UNL     1      -1.706  11.758  23.357  0.00  0.00    +0.000 Cl
ATOM     14  C   UNL     1      -0.021   9.692  22.925  0.00  0.00    +0.000 A 
ATOM     15  C   UNL     1       0.768   8.873  22.112  0.00  0.00    +0.000 A 
ENDBRANCH   6   9
ENDBRANCH   3   5
BRANCH   1  16
ATOM     16  C   UNL     1       3.147   3.989  18.600  0.00  0.00    +0.000 C 
BRANCH  16  17
ATOM     17  S   UNL     1       4.758   3.726  19.387  0.00  0.00    +0.000 S 
BRANCH  17  22
ATOM     18  N   UNL     1       7.307   5.177  14.853  0.00  0.00    +0.000 N 
ATOM     19  C   UNL     1       6.948   4.857  16.109  0.00  0.00    +0.000 A 
ATOM     20  N   UNL     1       7.752   4.869  17.150  0.00  0.00    +0.000 NA
ATOM     21  N   UNL     1       7.107   4.507  18.322  0.00  0.00    +0.000 NA
ATOM     22  C   UNL     1       5.842   4.229  18.112  0.00  0.00    +0.000 A 
ATOM     23  S   UNL     1       5.342   4.372  16.481  0.00  0.00    +0.000 S 
ATOM     24  H   UNL     1       8.300   5.199  14.646  0.00  0.00    +0.000 HD
ATOM     25  H   UNL     1       6.719   4.880  14.083  0.00  0.00    +0.000 HD
ENDBRANCH  17  22
ENDBRANCH  16  17
ENDBRANCH   1  16
TORSDOF 5
ENDMDL
MODEL 3
REMARK VINA RESULT:      -7.0      1.114      1.552
REMARK  Name = 
REMARK  5 active torsions:
REMARK  status: ('A' for Active; 'I' for Inactive)
REMARK    1  A    between atoms: C_5  and  S_6
REMARK    2  A    between atoms: S_6  and  C_7
REMARK    3  A    between atoms: C_7  and  C_8
REMARK    4  A    between atoms: N_10  and  N_11
REMARK    5  A    between atoms: C_12  and  C_14
REMARK                            x       y       z     vdW  Elec       q    Type
REMARK                         _______ _______ _______ _____ _____    ______ ____
ROOT
ATOM      1  C   UNL     1       2.202   4.009  20.231  0.00  0.00    +0.000 C 
ATOM      2  O   UNL     1       1.000   3.914  20.480  0.00  0.00    +0.000 OA
ATOM      3  N   UNL     1       2.900   5.183  20.439  0.00  0.00    +0.000 N 
ATOM      4  H   UNL     1       3.838   5.361  20.076  0.00  0.00    +0.000 HD
ENDROOT
BRANCH   3   5
ATOM      5  N   UNL     1       2.181   6.298  20.876  0.00  0.00    +0.000 N 
ATOM      6  C   UNL     1       2.059   7.381  20.030  0.00  0.00    +0.000 C 
ATOM      7  O   UNL     1       2.556   7.413  18.907  0.00  0.00    +0.000 OA
ATOM      8  H   UNL     1       1.640   6.178  21.731  0.00  0.00    +0.000 HD
BRANCH   6   9
ATOM      9  C   UNL     1       1.263   8.528  20.546  0.00  0.00    +0.000 A 
ATOM     10  C   UNL     1       0.747   9.515  19.693  0.00  0.00    +0.000 A 
ATOM     11  C   UNL     1      -0.016  10.564  20.216  0.00  0.00    +0.000 A 
ATOM     12  C   UNL     1      -0.266  10.627  21.586  0.00  0.00    +0.000 A 
ATOM     13 CL   UNL     1      -1.209  11.917  22.222  0.00  0.00    +0.000 Cl
ATOM     14  C   UNL     1       0.235   9.646  22.441  0.00  0.00    +0.000 A 
ATOM     15  C   UNL     1       0.994   8.594  21.920  0.00  0.00    +0.000 A 
ENDBRANCH   6   9
ENDBRANCH   3   5
BRANCH   1  16
ATOM     16  C   UNL     1       3.047   2.856  19.724  0.00  0.00    +0.000 C 
BRANCH  16  17
ATOM     17  S   UNL     1       3.255   2.930  17.925  0.00  0.00    +0.000 S 
BRANCH  17  22
ATOM     18  N   UNL     1       7.441   6.070  16.590  0.00  0.00    +0.000 N 
ATOM     19  C   UNL     1       6.550   5.258  17.188  0.00  0.00    +0.000 A 
ATOM     20  N   UNL     1       6.660   4.785  18.410  0.00  0.00    +0.000 NA
ATOM     21  N   UNL     1       5.587   3.985  18.768  0.00  0.00    +0.000 NA
ATOM     22  C   UNL     1       4.714   3.882  17.793  0.00  0.00    +0.000 A 
ATOM     23  S   UNL     1       5.133   4.733  16.369  0.00  0.00    +0.000 S 
ATOM     24  H   UNL     1       8.362   6.133  17.009  0.00  0.00    +0.000 HD
ATOM     25  H   UNL     1       7.425   6.159  15.581  0.00  0.00    +0.000 HD
ENDBRANCH  17  22
ENDBRANCH  16  17
ENDBRANCH   1  16
TORSDOF 5
ENDMDL
MODEL 4
REMARK VINA RESULT:      -7.0      1.174      1.583
REMARK  Name = 
REMARK  5 active torsions:
REMARK  status: ('A' for Active; 'I' for Inactive)
REMARK    1  A    between atoms: C_5  and  S_6
REMARK    2  A    between atoms: S_6  and  C_7
REMARK    3  A    between atoms: C_7  and  C_8
REMARK    4  A    between atoms: N_10  and  N_11
REMARK    5  A    between atoms: C_12  and  C_14
REMARK                            x       y       z     vdW  Elec       q    Type
REMARK                         _______ _______ _______ _____ _____    ______ ____
ROOT
ATOM      1  C   UNL     1       2.254   4.629  19.696  0.00  0.00    +0.000 C 
ATOM      2  O   UNL     1       1.090   4.378  20.011  0.00  0.00    +0.000 OA
ATOM      3  N   UNL     1       2.861   5.822  20.037  0.00  0.00    +0.000 N 
ATOM      4  H   UNL     1       3.745   6.146  19.642  0.00  0.00    +0.000 HD
ENDROOT
BRANCH   3   5
ATOM      5  N   UNL     1       2.087   6.781  20.694  0.00  0.00    +0.000 N 
ATOM      6  C   UNL     1       1.790   7.957  20.036  0.00  0.00    +0.000 C 
ATOM      7  O   UNL     1       2.178   8.204  18.897  0.00  0.00    +0.000 OA
ATOM      8  H   UNL     1       1.639   6.482  21.559  0.00  0.00    +0.000 HD
BRANCH   6   9
ATOM      9  C   UNL     1       0.943   8.929  20.782  0.00  0.00    +0.000 A 
ATOM     10  C   UNL     1       0.196   9.917  20.125  0.00  0.00    +0.000 A 
ATOM     11  C   UNL     1      -0.605  10.795  20.861  0.00  0.00    +0.000 A 
ATOM     12  C   UNL     1      -0.663  10.685  22.250  0.00  0.00    +0.000 A 
ATOM     13 CL   UNL     1      -1.654  11.766  23.150  0.00  0.00    +0.000 Cl
ATOM     14  C   UNL     1       0.068   9.700  22.912  0.00  0.00    +0.000 A 
ATOM     15  C   UNL     1       0.867   8.818  22.178  0.00  0.00    +0.000 A 
ENDBRANCH   6   9
ENDBRANCH   3   5
BRANCH   1  16
ATOM     16  C   UNL     1       3.151   3.656  18.955  0.00  0.00    +0.000 C 
BRANCH  16  17
ATOM     17  S   UNL     1       4.903   4.015  19.249  0.00  0.00    +0.000 S 
BRANCH  17  22
ATOM     18  N   UNL     1       7.486   5.246  14.669  0.00  0.00    +0.000 N 
ATOM     19  C   UNL     1       6.604   4.895  15.622  0.00  0.00    +0.000 A 
ATOM     20  N   UNL     1       5.351   4.559  15.405  0.00  0.00    +0.000 NA
ATOM     21  N   UNL     1       4.679   4.232  16.572  0.00  0.00    +0.000 NA
ATOM     22  C   UNL     1       5.456   4.343  17.624  0.00  0.00    +0.000 A 
ATOM     23  S   UNL     1       7.050   4.865  17.282  0.00  0.00    +0.000 S 
ATOM     24  H   UNL     1       7.110   5.498  13.761  0.00  0.00    +0.000 HD
ATOM     25  H   UNL     1       8.325   5.747  14.937  0.00  0.00    +0.000 HD
ENDBRANCH  17  22
ENDBRANCH  16  17
ENDBRANCH   1  16
TORSDOF 5
ENDMDL
MODEL 5
REMARK VINA RESULT:      -7.0      1.712      1.999
REMARK  Name = 
REMARK  5 active torsions:
REMARK  status: ('A' for Active; 'I' for Inactive)
REMARK    1  A    between atoms: C_5  and  S_6
REMARK    2  A    between atoms: S_6  and  C_7
REMARK    3  A    between atoms: C_7  and  C_8
REMARK    4  A    between atoms: N_10  and  N_11
REMARK    5  A    between atoms: C_12  and  C_14
REMARK                            x       y       z     vdW  Elec       q    Type
REMARK                         _______ _______ _______ _____ _____    ______ ____
ROOT
ATOM      1  C   UNL     1       1.879   3.966  20.524  0.00  0.00    +0.000 C 
ATOM      2  O   UNL     1       0.675   4.064  20.284  0.00  0.00    +0.000 OA
ATOM      3  N   UNL     1       2.650   5.065  20.849  0.00  0.00    +0.000 N 
ATOM      4  H   UNL     1       3.670   5.060  20.870  0.00  0.00    +0.000 HD
ENDROOT
BRANCH   3   5
ATOM      5  N   UNL     1       2.036   6.320  20.825  0.00  0.00    +0.000 N 
ATOM      6  C   UNL     1       2.254   7.144  19.741  0.00  0.00    +0.000 C 
ATOM      7  O   UNL     1       2.967   6.828  18.792  0.00  0.00    +0.000 OA
ATOM      8  H   UNL     1       1.321   6.484  21.533  0.00  0.00    +0.000 HD
BRANCH   6   9
ATOM      9  C   UNL     1       1.554   8.458  19.766  0.00  0.00    +0.000 A 
ATOM     10  C   UNL     1       0.975   8.966  20.937  0.00  0.00    +0.000 A 
ATOM     11  C   UNL     1       0.347  10.216  20.924  0.00  0.00    +0.000 A 
ATOM     12  C   UNL     1       0.302  10.959  19.745  0.00  0.00    +0.000 A 
ATOM     13 CL   UNL     1      -0.468  12.497  19.735  0.00  0.00    +0.000 Cl
ATOM     14  C   UNL     1       0.884  10.467  18.577  0.00  0.00    +0.000 A 
ATOM     15  C   UNL     1       1.515   9.219  18.589  0.00  0.00    +0.000 A 
ENDBRANCH   6   9
ENDBRANCH   3   5
BRANCH   1  16
ATOM     16  C   UNL     1       2.627   2.647  20.538  0.00  0.00    +0.000 C 
BRANCH  16  17
ATOM     17  S   UNL     1       3.097   2.135  18.864  0.00  0.00    +0.000 S 
BRANCH  17  22
ATOM     18  N   UNL     1       6.672   5.646  16.852  0.00  0.00    +0.000 N 
ATOM     19  C   UNL     1       5.945   4.806  17.610  0.00  0.00    +0.000 A 
ATOM     20  N   UNL     1       6.173   4.544  18.879  0.00  0.00    +0.000 NA
ATOM     21  N   UNL     1       5.257   3.651  19.410  0.00  0.00    +0.000 NA
ATOM     22  C   UNL     1       4.378   3.270  18.513  0.00  0.00    +0.000 A 
ATOM     23  S   UNL     1       4.603   3.952  16.959  0.00  0.00    +0.000 S 
ATOM     24  H   UNL     1       7.586   5.913  17.202  0.00  0.00    +0.000 HD
ATOM     25  H   UNL     1       6.606   5.580  15.843  0.00  0.00    +0.000 HD
ENDBRANCH  17  22
ENDBRANCH  16  17
ENDBRANCH   1  16
TORSDOF 5
ENDMDL
MODEL 6
REMARK VINA RESULT:      -6.9      1.198      1.198
REMARK  Name = 
REMARK  5 active torsions:
REMARK  status: ('A' for Active; 'I' for Inactive)
REMARK    1  A    between atoms: C_5  and  S_6
REMARK    2  A    between atoms: S_6  and  C_7
REMARK    3  A    between atoms: C_7  and  C_8
REMARK    4  A    between atoms: N_10  and  N_11
REMARK    5  A    between atoms: C_12  and  C_14
REMARK                            x       y       z     vdW  Elec       q    Type
REMARK                         _______ _______ _______ _____ _____    ______ ____
ROOT
ATOM      1  C   UNL     1       2.612   5.050  20.031  0.00  0.00    +0.000 C 
ATOM      2  O   UNL     1       1.822   4.584  20.854  0.00  0.00    +0.000 OA
ATOM      3  N   UNL     1       2.780   6.412  19.871  0.00  0.00    +0.000 N 
ATOM      4  H   UNL     1       3.274   6.837  19.085  0.00  0.00    +0.000 HD
ENDROOT
BRANCH   3   5
ATOM      5  N   UNL     1       1.967   7.261  20.626  0.00  0.00    +0.000 N 
ATOM      6  C   UNL     1       1.510   8.427  20.048  0.00  0.00    +0.000 C 
ATOM      7  O   UNL     1       1.787   8.759  18.899  0.00  0.00    +0.000 OA
ATOM      8  H   UNL     1       1.615   6.882  21.504  0.00  0.00    +0.000 HD
BRANCH   6   9
ATOM      9  C   UNL     1       0.631   9.277  20.897  0.00  0.00    +0.000 A 
ATOM     10  C   UNL     1       0.518   9.077  22.280  0.00  0.00    +0.000 A 
ATOM     11  C   UNL     1      -0.302   9.913  23.045  0.00  0.00    +0.000 A 
ATOM     12  C   UNL     1      -1.004  10.950  22.431  0.00  0.00    +0.000 A 
ATOM     13 CL   UNL     1      -2.007  11.977  23.379  0.00  0.00    +0.000 Cl
ATOM     14  C   UNL     1      -0.891  11.163  21.058  0.00  0.00    +0.000 A 
ATOM     15  C   UNL     1      -0.070  10.331  20.292  0.00  0.00    +0.000 A 
ENDBRANCH   6   9
ENDBRANCH   3   5
BRANCH   1  16
ATOM     16  C   UNL     1       3.506   4.198  19.152  0.00  0.00    +0.000 C 
BRANCH  16  17
ATOM     17  S   UNL     1       5.244   4.689  19.302  0.00  0.00    +0.000 S 
BRANCH  17  22
ATOM     18  N   UNL     1       7.521   5.159  14.428  0.00  0.00    +0.000 N 
ATOM     19  C   UNL     1       6.697   5.114  15.490  0.00  0.00    +0.000 A 
ATOM     20  N   UNL     1       5.400   5.328  15.450  0.00  0.00    +0.000 NA
ATOM     21  N   UNL     1       4.802   5.201  16.693  0.00  0.00    +0.000 NA
ATOM     22  C   UNL     1       5.679   4.903  17.623  0.00  0.00    +0.000 A 
ATOM     23  S   UNL     1       7.291   4.767  17.065  0.00  0.00    +0.000 S 
ATOM     24  H   UNL     1       7.173   5.616  13.592  0.00  0.00    +0.000 HD
ATOM     25  H   UNL     1       8.517   5.258  14.583  0.00  0.00    +0.000 HD
ENDBRANCH  17  22
ENDBRANCH  16  17
ENDBRANCH   1  16
TORSDOF 5
ENDMDL
MODEL 7
REMARK VINA RESULT:      -6.8      6.484      8.369
REMARK  Name = 
REMARK  5 active torsions:
REMARK  status: ('A' for Active; 'I' for Inactive)
REMARK    1  A    between atoms: C_5  and  S_6
REMARK    2  A    between atoms: S_6  and  C_7
REMARK    3  A    between atoms: C_7  and  C_8
REMARK    4  A    between atoms: N_10  and  N_11
REMARK    5  A    between atoms: C_12  and  C_14
REMARK                            x       y       z     vdW  Elec       q    Type
REMARK                         _______ _______ _______ _____ _____    ______ ____
ROOT
ATOM      1  C   UNL     1       7.907   7.412  18.095  0.00  0.00    +0.000 C 
ATOM      2  O   UNL     1       7.529   7.726  16.965  0.00  0.00    +0.000 OA
ATOM      3  N   UNL     1       8.620   8.284  18.894  0.00  0.00    +0.000 N 
ATOM      4  H   UNL     1       9.108   8.007  19.747  0.00  0.00    +0.000 HD
ENDROOT
BRANCH   3   5
ATOM      5  N   UNL     1       8.971   9.523  18.353  0.00  0.00    +0.000 N 
ATOM      6  C   UNL     1       9.346  10.538  19.208  0.00  0.00    +0.000 C 
ATOM      7  O   UNL     1       9.384  10.406  20.429  0.00  0.00    +0.000 OA
ATOM      8  H   UNL     1       9.097   9.552  17.342  0.00  0.00    +0.000 HD
BRANCH   6   9
ATOM      9  C   UNL     1       9.729  11.826  18.568  0.00  0.00    +0.000 A 
ATOM     10  C   UNL     1       9.016  13.011  18.802  0.00  0.00    +0.000 A 
ATOM     11  C   UNL     1       9.423  14.205  18.198  0.00  0.00    +0.000 A 
ATOM     12  C   UNL     1      10.542  14.218  17.367  0.00  0.00    +0.000 A 
ATOM     13 CL   UNL     1      11.041  15.691  16.631  0.00  0.00    +0.000 Cl
ATOM     14  C   UNL     1      11.263  13.047  17.136  0.00  0.00    +0.000 A 
ATOM     15  C   UNL     1      10.861  11.853  17.740  0.00  0.00    +0.000 A 
ENDBRANCH   6   9
ENDBRANCH   3   5
BRANCH   1  16
ATOM     16  C   UNL     1       7.596   6.076  18.742  0.00  0.00    +0.000 C 
BRANCH  16  17
ATOM     17  S   UNL     1       7.347   4.781  17.499  0.00  0.00    +0.000 S 
BRANCH  17  22
ATOM     18  N   UNL     1       2.098   4.498  18.734  0.00  0.00    +0.000 N 
ATOM     19  C   UNL     1       3.320   4.404  18.181  0.00  0.00    +0.000 A 
ATOM     20  N   UNL     1       3.592   3.798  17.047  0.00  0.00    +0.000 NA
ATOM     21  N   UNL     1       4.935   3.871  16.714  0.00  0.00    +0.000 NA
ATOM     22  C   UNL     1       5.622   4.527  17.619  0.00  0.00    +0.000 A 
ATOM     23  S   UNL     1       4.699   5.089  18.946  0.00  0.00    +0.000 S 
ATOM     24  H   UNL     1       1.384   3.866  18.387  0.00  0.00    +0.000 HD
ATOM     25  H   UNL     1       2.019   4.729  19.718  0.00  0.00    +0.000 HD
ENDBRANCH  17  22
ENDBRANCH  16  17
ENDBRANCH   1  16
TORSDOF 5
ENDMDL
MODEL 8
REMARK VINA RESULT:      -6.8      6.574      8.427
REMARK  Name = 
REMARK  5 active torsions:
REMARK  status: ('A' for Active; 'I' for Inactive)
REMARK    1  A    between atoms: C_5  and  S_6
REMARK    2  A    between atoms: S_6  and  C_7
REMARK    3  A    between atoms: C_7  and  C_8
REMARK    4  A    between atoms: N_10  and  N_11
REMARK    5  A    between atoms: C_12  and  C_14
REMARK                            x       y       z     vdW  Elec       q    Type
REMARK                         _______ _______ _______ _____ _____    ______ ____
ROOT
ATOM      1  C   UNL     1       7.808   7.573  17.949  0.00  0.00    +0.000 C 
ATOM      2  O   UNL     1       7.403   7.937  16.845  0.00  0.00    +0.000 OA
ATOM      3  N   UNL     1       8.559   8.401  18.761  0.00  0.00    +0.000 N 
ATOM      4  H   UNL     1       9.068   8.082  19.587  0.00  0.00    +0.000 HD
ENDROOT
BRANCH   3   5
ATOM      5  N   UNL     1       8.915   9.655  18.260  0.00  0.00    +0.000 N 
ATOM      6  C   UNL     1       9.353  10.622  19.140  0.00  0.00    +0.000 C 
ATOM      7  O   UNL     1       9.444  10.433  20.351  0.00  0.00    +0.000 OA
ATOM      8  H   UNL     1       8.994   9.728  17.246  0.00  0.00    +0.000 HD
BRANCH   6   9
ATOM      9  C   UNL     1       9.736  11.929  18.541  0.00  0.00    +0.000 A 
ATOM     10  C   UNL     1       9.086  13.122  18.887  0.00  0.00    +0.000 A 
ATOM     11  C   UNL     1       9.493  14.333  18.318  0.00  0.00    +0.000 A 
ATOM     12  C   UNL     1      10.549  14.354  17.407  0.00  0.00    +0.000 A 
ATOM     13 CL   UNL     1      11.047  15.847  16.714  0.00  0.00    +0.000 Cl
ATOM     14  C   UNL     1      11.207  13.174  17.063  0.00  0.00    +0.000 A 
ATOM     15  C   UNL     1      10.806  11.963  17.634  0.00  0.00    +0.000 A 
ENDBRANCH   6   9
ENDBRANCH   3   5
BRANCH   1  16
ATOM     16  C   UNL     1       7.495   6.216  18.552  0.00  0.00    +0.000 C 
BRANCH  16  17
ATOM     17  S   UNL     1       7.092   5.000  17.270  0.00  0.00    +0.000 S 
BRANCH  17  22
ATOM     18  N   UNL     1       2.560   2.411  18.654  0.00  0.00    +0.000 N 
ATOM     19  C   UNL     1       3.754   3.028  18.608  0.00  0.00    +0.000 A 
ATOM     20  N   UNL     1       4.555   3.203  19.637  0.00  0.00    +0.000 NA
ATOM     21  N   UNL     1       5.726   3.858  19.293  0.00  0.00    +0.000 NA
ATOM     22  C   UNL     1       5.755   4.157  18.015  0.00  0.00    +0.000 A 
ATOM     23  S   UNL     1       4.363   3.681  17.140  0.00  0.00    +0.000 S 
ATOM     24  H   UNL     1       2.140   2.283  19.569  0.00  0.00    +0.000 HD
ATOM     25  H   UNL     1       1.899   2.562  17.901  0.00  0.00    +0.000 HD
ENDBRANCH  17  22
ENDBRANCH  16  17
ENDBRANCH   1  16
TORSDOF 5
ENDMDL
MODEL 9
REMARK VINA RESULT:      -6.8      0.948      1.009
REMARK  Name = 
REMARK  5 active torsions:
REMARK  status: ('A' for Active; 'I' for Inactive)
REMARK    1  A    between atoms: C_5  and  S_6
REMARK    2  A    between atoms: S_6  and  C_7
REMARK    3  A    between atoms: C_7  and  C_8
REMARK    4  A    between atoms: N_10  and  N_11
REMARK    5  A    between atoms: C_12  and  C_14
REMARK                            x       y       z     vdW  Elec       q    Type
REMARK                         _______ _______ _______ _____ _____    ______ ____
ROOT
ATOM      1  C   UNL     1       2.370   4.577  20.174  0.00  0.00    +0.000 C 
ATOM      2  O   UNL     1       1.458   4.199  20.911  0.00  0.00    +0.000 OA
ATOM      3  N   UNL     1       2.711   5.911  20.061  0.00  0.00    +0.000 N 
ATOM      4  H   UNL     1       3.323   6.283  19.333  0.00  0.00    +0.000 HD
ENDROOT
BRANCH   3   5
ATOM      5  N   UNL     1       1.936   6.842  20.756  0.00  0.00    +0.000 N 
ATOM      6  C   UNL     1       1.654   8.051  20.154  0.00  0.00    +0.000 C 
ATOM      7  O   UNL     1       2.056   8.351  19.033  0.00  0.00    +0.000 OA
ATOM      8  H   UNL     1       1.477   6.503  21.601  0.00  0.00    +0.000 HD
BRANCH   6   9
ATOM      9  C   UNL     1       0.806   8.990  20.938  0.00  0.00    +0.000 A 
ATOM     10  C   UNL     1       0.685   8.892  22.332  0.00  0.00    +0.000 A 
ATOM     11  C   UNL     1      -0.104   9.809  23.034  0.00  0.00    +0.000 A 
ATOM     12  C   UNL     1      -0.767  10.825  22.346  0.00  0.00    +0.000 A 
ATOM     13 CL   UNL     1      -1.732  11.953  23.215  0.00  0.00    +0.000 Cl
ATOM     14  C   UNL     1      -0.645  10.937  20.962  0.00  0.00    +0.000 A 
ATOM     15  C   UNL     1       0.146  10.024  20.258  0.00  0.00    +0.000 A 
ENDBRANCH   6   9
ENDBRANCH   3   5
BRANCH   1  16
ATOM     16  C   UNL     1       3.236   3.634  19.362  0.00  0.00    +0.000 C 
BRANCH  16  17
ATOM     17  S   UNL     1       2.949   3.838  17.584  0.00  0.00    +0.000 S 
BRANCH  17  22
ATOM     18  N   UNL     1       7.490   6.475  16.326  0.00  0.00    +0.000 N 
ATOM     19  C   UNL     1       6.499   5.582  16.500  0.00  0.00    +0.000 A 
ATOM     20  N   UNL     1       6.533   4.328  16.107  0.00  0.00    +0.000 NA
ATOM     21  N   UNL     1       5.377   3.637  16.433  0.00  0.00    +0.000 NA
ATOM     22  C   UNL     1       4.513   4.406  17.053  0.00  0.00    +0.000 A 
ATOM     23  S   UNL     1       5.030   6.023  17.276  0.00  0.00    +0.000 S 
ATOM     24  H   UNL     1       8.207   6.242  15.647  0.00  0.00    +0.000 HD
ATOM     25  H   UNL     1       7.281   7.463  16.403  0.00  0.00    +0.000 HD
ENDBRANCH  17  22
ENDBRANCH  16  17
ENDBRANCH   1  16
TORSDOF 5
ENDMDL
