MODEL 1
REMARK VINA RESULT:      -8.7      0.000      0.000
REMARK  Name = 
REMARK  7 active torsions:
REMARK  status: ('A' for Active; 'I' for Inactive)
REMARK    1  A    between atoms: C_6  and  N_7
REMARK    2  A    between atoms: N_7  and  C_8
REMARK    3  A    between atoms: C_15  and  N_16
REMARK    4  A    between atoms: N_16  and  C_17
REMARK    5  A    between atoms: C_17  and  C_18
REMARK    6  A    between atoms: C_18  and  C_19
REMARK    7  A    between atoms: C_19  and  N_20
REMARK                            x       y       z     vdW  Elec       q    Type
REMARK                         _______ _______ _______ _____ _____    ______ ____
ROOT
ATOM      1  C   UNL     1       2.926   5.304  18.908  0.00  0.00    +0.000 A 
ATOM      2  N   UNL     1       1.781   4.611  18.745  0.00  0.00    +0.000 NA
ATOM      3  C   UNL     1       1.779   3.666  17.805  0.00  0.00    +0.000 A 
ATOM      4  N   UNL     1       2.800   3.350  17.003  0.00  0.00    +0.000 NA
ATOM      5  C   UNL     1       3.926   4.047  17.167  0.00  0.00    +0.000 A 
ATOM      6  C   UNL     1       4.985   3.799  16.308  0.00  0.00    +0.000 A 
ATOM      7  C   UNL     1       6.179   4.524  16.374  0.00  0.00    +0.000 A 
ATOM      8  C   UNL     1       6.339   5.530  17.324  0.00  0.00    +0.000 A 
ATOM      9  C   UNL     1       5.306   5.736  18.244  0.00  0.00    +0.000 A 
ATOM     10  C   UNL     1       4.077   5.036  18.145  0.00  0.00    +0.000 A 
ENDROOT
BRANCH   1  11
ATOM     11  N   UNL     1       2.935   6.354  19.859  0.00  0.00    +0.000 N 
ATOM     12  H   UNL     1       2.985   5.973  20.796  0.00  0.00    +0.000 HD
BRANCH  11  18
ATOM     13 BR   UNL     1      -0.217   9.891  22.237  0.00  0.00    +0.000 Br
ATOM     14  C   UNL     1       0.720   9.223  20.735  0.00  0.00    +0.000 A 
ATOM     15  C   UNL     1       0.614   9.874  19.508  0.00  0.00    +0.000 A 
ATOM     16  C   UNL     1       1.288   9.360  18.402  0.00  0.00    +0.000 A 
ATOM     17  C   UNL     1       2.064   8.202  18.525  0.00  0.00    +0.000 A 
ATOM     18  C   UNL     1       2.203   7.558  19.761  0.00  0.00    +0.000 A 
ATOM     19  C   UNL     1       1.497   8.074  20.860  0.00  0.00    +0.000 A 
ENDBRANCH  11  18
ENDBRANCH   1  11
BRANCH   8  20
ATOM     20  N   UNL     1       7.488   6.311  17.451  0.00  0.00    +0.000 N 
ATOM     21  H   UNL     1       8.223   5.996  16.822  0.00  0.00    +0.000 HD
BRANCH  20  22
ATOM     22  C   UNL     1       7.327   7.768  17.447  0.00  0.00    +0.000 C 
BRANCH  22  23
ATOM     23  C   UNL     1       8.457   8.367  18.283  0.00  0.00    +0.000 C 
BRANCH  23  24
ATOM     24  C   UNL     1       8.478   9.900  18.261  0.00  0.00    +0.000 C 
BRANCH  24  25
ATOM     25  N   UNL     1       9.684  10.508  18.852  0.00  0.00    +0.000 NA
ATOM     26  C   UNL     1      10.369  11.406  17.904  0.00  0.00    +0.000 C 
ATOM     27  C   UNL     1      11.635  12.008  18.514  0.00  0.00    +0.000 C 
ATOM     28  C   UNL     1      11.325  12.746  19.809  0.00  0.00    +0.000 C 
ATOM     29  C   UNL     1      10.568  11.831  20.763  0.00  0.00    +0.000 C 
ATOM     30  C   UNL     1       9.335  11.225  20.091  0.00  0.00    +0.000 C 
ENDBRANCH  24  25
ENDBRANCH  23  24
ENDBRANCH  22  23
ENDBRANCH  20  22
ENDBRANCH   8  20
TORSDOF 7
ENDMDL
MODEL 2
REMARK VINA RESULT:      -8.1      1.239      1.613
REMARK  Name = 
REMARK  7 active torsions:
REMARK  status: ('A' for Active; 'I' for Inactive)
REMARK    1  A    between atoms: C_6  and  N_7
REMARK    2  A    between atoms: N_7  and  C_8
REMARK    3  A    between atoms: C_15  and  N_16
REMARK    4  A    between atoms: N_16  and  C_17
REMARK    5  A    between atoms: C_17  and  C_18
REMARK    6  A    between atoms: C_18  and  C_19
REMARK    7  A    between atoms: C_19  and  N_20
REMARK                            x       y       z     vdW  Elec       q    Type
REMARK                         _______ _______ _______ _____ _____    ______ ____
ROOT
ATOM      1  C   UNL     1       2.936   6.470  18.026  0.00  0.00    +0.000 A 
ATOM      2  N   UNL     1       1.840   5.684  18.055  0.00  0.00    +0.000 NA
ATOM      3  C   UNL     1       1.999   4.417  17.673  0.00  0.00    +0.000 A 
ATOM      4  N   UNL     1       3.137   3.857  17.254  0.00  0.00    +0.000 NA
ATOM      5  C   UNL     1       4.213   4.645  17.221  0.00  0.00    +0.000 A 
ATOM      6  C   UNL     1       5.398   4.122  16.725  0.00  0.00    +0.000 A 
ATOM      7  C   UNL     1       6.556   4.896  16.602  0.00  0.00    +0.000 A 
ATOM      8  C   UNL     1       6.551   6.235  16.985  0.00  0.00    +0.000 A 
ATOM      9  C   UNL     1       5.384   6.750  17.557  0.00  0.00    +0.000 A 
ATOM     10  C   UNL     1       4.196   5.981  17.635  0.00  0.00    +0.000 A 
ENDROOT
BRANCH   1  11
ATOM     11  N   UNL     1       2.781   7.835  18.370  0.00  0.00    +0.000 N 
ATOM     12  H   UNL     1       3.688   8.265  18.503  0.00  0.00    +0.000 HD
BRANCH  11  18
ATOM     13 BR   UNL     1      -1.140  11.356  18.947  0.00  0.00    +0.000 Br
ATOM     14  C   UNL     1      -0.029   9.965  19.586  0.00  0.00    +0.000 A 
ATOM     15  C   UNL     1      -0.159   9.524  20.901  0.00  0.00    +0.000 A 
ATOM     16  C   UNL     1       0.681   8.516  21.370  0.00  0.00    +0.000 A 
ATOM     17  C   UNL     1       1.645   7.952  20.526  0.00  0.00    +0.000 A 
ATOM     18  C   UNL     1       1.762   8.365  19.193  0.00  0.00    +0.000 A 
ATOM     19  C   UNL     1       0.926   9.400  18.744  0.00  0.00    +0.000 A 
ENDBRANCH  11  18
ENDBRANCH   1  11
BRANCH   8  20
ATOM     20  N   UNL     1       7.654   7.082  16.883  0.00  0.00    +0.000 N 
ATOM     21  H   UNL     1       7.532   7.765  16.138  0.00  0.00    +0.000 HD
BRANCH  20  22
ATOM     22  C   UNL     1       8.174   7.679  18.116  0.00  0.00    +0.000 C 
BRANCH  22  23
ATOM     23  C   UNL     1       8.243   9.192  17.912  0.00  0.00    +0.000 C 
BRANCH  23  24
ATOM     24  C   UNL     1       8.981   9.921  19.042  0.00  0.00    +0.000 C 
BRANCH  24  25
ATOM     25  N   UNL     1       9.959  10.928  18.590  0.00  0.00    +0.000 NA
ATOM     26  C   UNL     1       9.312  12.045  17.879  0.00  0.00    +0.000 C 
ATOM     27  C   UNL     1      10.336  13.067  17.388  0.00  0.00    +0.000 C 
ATOM     28  C   UNL     1      11.183  13.594  18.538  0.00  0.00    +0.000 C 
ATOM     29  C   UNL     1      11.805  12.434  19.304  0.00  0.00    +0.000 C 
ATOM     30  C   UNL     1      10.743  11.421  19.736  0.00  0.00    +0.000 C 
ENDBRANCH  24  25
ENDBRANCH  23  24
ENDBRANCH  22  23
ENDBRANCH  20  22
ENDBRANCH   8  20
TORSDOF 7
ENDMDL
MODEL 3
REMARK VINA RESULT:      -8.0      0.719      1.174
REMARK  Name = 
REMARK  7 active torsions:
REMARK  status: ('A' for Active; 'I' for Inactive)
REMARK    1  A    between atoms: C_6  and  N_7
REMARK    2  A    between atoms: N_7  and  C_8
REMARK    3  A    between atoms: C_15  and  N_16
REMARK    4  A    between atoms: N_16  and  C_17
REMARK    5  A    between atoms: C_17  and  C_18
REMARK    6  A    between atoms: C_18  and  C_19
REMARK    7  A    between atoms: C_19  and  N_20
REMARK                            x       y       z     vdW  Elec       q    Type
REMARK                         _______ _______ _______ _____ _____    ______ ____
ROOT
ATOM      1  C   UNL     1       2.962   5.298  18.915  0.00  0.00    +0.000 A 
ATOM      2  N   UNL     1       1.942   4.418  18.959  0.00  0.00    +0.000 NA
ATOM      3  C   UNL     1       1.966   3.424  18.070  0.00  0.00    +0.000 A 
ATOM      4  N   UNL     1       2.901   3.226  17.136  0.00  0.00    +0.000 NA
ATOM      5  C   UNL     1       3.902   4.107  17.096  0.00  0.00    +0.000 A 
ATOM      6  C   UNL     1       4.854   3.978  16.096  0.00  0.00    +0.000 A 
ATOM      7  C   UNL     1       5.902   4.892  15.949  0.00  0.00    +0.000 A 
ATOM      8  C   UNL     1       6.022   5.972  16.821  0.00  0.00    +0.000 A 
ATOM      9  C   UNL     1       5.112   6.067  17.878  0.00  0.00    +0.000 A 
ATOM     10  C   UNL     1       4.020   5.171  17.998  0.00  0.00    +0.000 A 
ENDROOT
BRANCH   1  11
ATOM     11  N   UNL     1       2.928   6.396  19.810  0.00  0.00    +0.000 N 
ATOM     12  H   UNL     1       2.901   6.064  20.766  0.00  0.00    +0.000 HD
BRANCH  11  18
ATOM     13 BR   UNL     1      -0.267  10.141  21.777  0.00  0.00    +0.000 Br
ATOM     14  C   UNL     1       0.740   9.362  20.377  0.00  0.00    +0.000 A 
ATOM     15  C   UNL     1       0.724   9.940  19.110  0.00  0.00    +0.000 A 
ATOM     16  C   UNL     1       1.449   9.344  18.079  0.00  0.00    +0.000 A 
ATOM     17  C   UNL     1       2.186   8.178  18.318  0.00  0.00    +0.000 A 
ATOM     18  C   UNL     1       2.235   7.608  19.596  0.00  0.00    +0.000 A 
ATOM     19  C   UNL     1       1.478   8.205  20.617  0.00  0.00    +0.000 A 
ENDBRANCH  11  18
ENDBRANCH   1  11
BRANCH   8  20
ATOM     20  N   UNL     1       7.026   6.937  16.737  0.00  0.00    +0.000 N 
ATOM     21  H   UNL     1       7.081   7.337  15.803  0.00  0.00    +0.000 HD
BRANCH  20  22
ATOM     22  C   UNL     1       7.086   7.953  17.791  0.00  0.00    +0.000 C 
BRANCH  22  23
ATOM     23  C   UNL     1       8.359   8.772  17.581  0.00  0.00    +0.000 C 
BRANCH  23  24
ATOM     24  C   UNL     1       8.963   9.297  18.890  0.00  0.00    +0.000 C 
BRANCH  24  25
ATOM     25  N   UNL     1       8.953  10.765  19.028  0.00  0.00    +0.000 NA
ATOM     26  C   UNL     1       9.384  11.195  20.370  0.00  0.00    +0.000 C 
ATOM     27  C   UNL     1       9.342  12.716  20.514  0.00  0.00    +0.000 C 
ATOM     28  C   UNL     1      10.188  13.394  19.446  0.00  0.00    +0.000 C 
ATOM     29  C   UNL     1       9.777  12.904  18.063  0.00  0.00    +0.000 C 
ATOM     30  C   UNL     1       9.798  11.376  17.987  0.00  0.00    +0.000 C 
ENDBRANCH  24  25
ENDBRANCH  23  24
ENDBRANCH  22  23
ENDBRANCH  20  22
ENDBRANCH   8  20
TORSDOF 7
ENDMDL
MODEL 4
REMARK VINA RESULT:      -8.0      3.906      5.308
REMARK  Name = 
REMARK  7 active torsions:
REMARK  status: ('A' for Active; 'I' for Inactive)
REMARK    1  A    between atoms: C_6  and  N_7
REMARK    2  A    between atoms: N_7  and  C_8
REMARK    3  A    between atoms: C_15  and  N_16
REMARK    4  A    between atoms: N_16  and  C_17
REMARK    5  A    between atoms: C_17  and  C_18
REMARK    6  A    between atoms: C_18  and  C_19
REMARK    7  A    between atoms: C_19  and  N_20
REMARK                            x       y       z     vdW  Elec       q    Type
REMARK                         _______ _______ _______ _____ _____    ______ ____
ROOT
ATOM      1  C   UNL     1       2.012   4.895  20.265  0.00  0.00    +0.000 A 
ATOM      2  N   UNL     1       0.749   4.463  20.450  0.00  0.00    +0.000 NA
ATOM      3  C   UNL     1       0.456   3.246  19.990  0.00  0.00    +0.000 A 
ATOM      4  N   UNL     1       1.294   2.422  19.355  0.00  0.00    +0.000 NA
ATOM      5  C   UNL     1       2.540   2.862  19.171  0.00  0.00    +0.000 A 
ATOM      6  C   UNL     1       3.420   2.066  18.454  0.00  0.00    +0.000 A 
ATOM      7  C   UNL     1       4.725   2.478  18.166  0.00  0.00    +0.000 A 
ATOM      8  C   UNL     1       5.184   3.718  18.603  0.00  0.00    +0.000 A 
ATOM      9  C   UNL     1       4.329   4.494  19.391  0.00  0.00    +0.000 A 
ATOM     10  C   UNL     1       2.991   4.101  19.640  0.00  0.00    +0.000 A 
ENDROOT
BRANCH   1  11
ATOM     11  N   UNL     1       2.333   6.208  20.691  0.00  0.00    +0.000 N 
ATOM     12  H   UNL     1       2.218   6.285  21.694  0.00  0.00    +0.000 HD
BRANCH  11  18
ATOM     13 BR   UNL     1      -0.114  10.910  20.621  0.00  0.00    +0.000 Br
ATOM     14  C   UNL     1       0.931   9.552  19.820  0.00  0.00    +0.000 A 
ATOM     15  C   UNL     1       1.343   9.687  18.495  0.00  0.00    +0.000 A 
ATOM     16  C   UNL     1       2.092   8.670  17.907  0.00  0.00    +0.000 A 
ATOM     17  C   UNL     1       2.427   7.526  18.640  0.00  0.00    +0.000 A 
ATOM     18  C   UNL     1       2.045   7.395  19.981  0.00  0.00    +0.000 A 
ATOM     19  C   UNL     1       1.269   8.417  20.552  0.00  0.00    +0.000 A 
ENDBRANCH  11  18
ENDBRANCH   1  11
BRANCH   8  20
ATOM     20  N   UNL     1       6.463   4.214  18.348  0.00  0.00    +0.000 N 
ATOM     21  H   UNL     1       6.962   3.630  17.679  0.00  0.00    +0.000 HD
BRANCH  20  22
ATOM     22  C   UNL     1       6.597   5.644  18.060  0.00  0.00    +0.000 C 
BRANCH  22  23
ATOM     23  C   UNL     1       6.085   5.887  16.642  0.00  0.00    +0.000 C 
BRANCH  23  24
ATOM     24  C   UNL     1       7.178   5.754  15.573  0.00  0.00    +0.000 C 
BRANCH  24  25
ATOM     25  N   UNL     1       6.700   5.297  14.256  0.00  0.00    +0.000 NA
ATOM     26  C   UNL     1       7.812   5.047  13.322  0.00  0.00    +0.000 C 
ATOM     27  C   UNL     1       7.305   4.603  11.950  0.00  0.00    +0.000 C 
ATOM     28  C   UNL     1       6.424   3.367  12.062  0.00  0.00    +0.000 C 
ATOM     29  C   UNL     1       5.309   3.610  13.070  0.00  0.00    +0.000 C 
ATOM     30  C   UNL     1       5.867   4.091  14.411  0.00  0.00    +0.000 C 
ENDBRANCH  24  25
ENDBRANCH  23  24
ENDBRANCH  22  23
ENDBRANCH  20  22
ENDBRANCH   8  20
TORSDOF 7
ENDMDL
MODEL 5
REMARK VINA RESULT:      -8.0      4.973      7.744
REMARK  Name = 
REMARK  7 active torsions:
REMARK  status: ('A' for Active; 'I' for Inactive)
REMARK    1  A    between atoms: C_6  and  N_7
REMARK    2  A    between atoms: N_7  and  C_8
REMARK    3  A    between atoms: C_15  and  N_16
REMARK    4  A    between atoms: N_16  and  C_17
REMARK    5  A    between atoms: C_17  and  C_18
REMARK    6  A    between atoms: C_18  and  C_19
REMARK    7  A    between atoms: C_19  and  N_20
REMARK                            x       y       z     vdW  Elec       q    Type
REMARK                         _______ _______ _______ _____ _____    ______ ____
ROOT
ATOM      1  C   UNL     1       2.988   3.390  17.577  0.00  0.00    +0.000 A 
ATOM      2  N   UNL     1       2.906   2.077  17.870  0.00  0.00    +0.000 NA
ATOM      3  C   UNL     1       2.398   1.757  19.060  0.00  0.00    +0.000 A 
ATOM      4  N   UNL     1       1.972   2.615  19.991  0.00  0.00    +0.000 NA
ATOM      5  C   UNL     1       2.065   3.913  19.694  0.00  0.00    +0.000 A 
ATOM      6  C   UNL     1       1.701   4.838  20.661  0.00  0.00    +0.000 A 
ATOM      7  C   UNL     1       1.822   6.215  20.452  0.00  0.00    +0.000 A 
ATOM      8  C   UNL     1       2.316   6.703  19.244  0.00  0.00    +0.000 A 
ATOM      9  C   UNL     1       2.613   5.781  18.236  0.00  0.00    +0.000 A 
ATOM     10  C   UNL     1       2.539   4.384  18.465  0.00  0.00    +0.000 A 
ENDROOT
BRANCH   1  11
ATOM     11  N   UNL     1       3.579   3.757  16.343  0.00  0.00    +0.000 N 
ATOM     12  H   UNL     1       3.227   3.168  15.599  0.00  0.00    +0.000 HD
BRANCH  11  18
ATOM     13 BR   UNL     1       7.504   4.923  12.976  0.00  0.00    +0.000 Br
ATOM     14  C   UNL     1       6.802   4.695  14.717  0.00  0.00    +0.000 A 
ATOM     15  C   UNL     1       7.633   4.856  15.824  0.00  0.00    +0.000 A 
ATOM     16  C   UNL     1       7.112   4.661  17.102  0.00  0.00    +0.000 A 
ATOM     17  C   UNL     1       5.768   4.309  17.270  0.00  0.00    +0.000 A 
ATOM     18  C   UNL     1       4.917   4.177  16.166  0.00  0.00    +0.000 A 
ATOM     19  C   UNL     1       5.463   4.351  14.883  0.00  0.00    +0.000 A 
ENDBRANCH  11  18
ENDBRANCH   1  11
BRANCH   8  20
ATOM     20  N   UNL     1       2.483   8.057  18.957  0.00  0.00    +0.000 N 
ATOM     21  H   UNL     1       3.468   8.305  18.893  0.00  0.00    +0.000 HD
BRANCH  20  22
ATOM     22  C   UNL     1       1.684   8.630  17.870  0.00  0.00    +0.000 C 
BRANCH  22  23
ATOM     23  C   UNL     1       1.292  10.050  18.274  0.00  0.00    +0.000 C 
BRANCH  23  24
ATOM     24  C   UNL     1      -0.065  10.123  18.986  0.00  0.00    +0.000 C 
BRANCH  24  25
ATOM     25  N   UNL     1       0.012  10.419  20.428  0.00  0.00    +0.000 NA
ATOM     26  C   UNL     1      -0.904  11.506  20.817  0.00  0.00    +0.000 C 
ATOM     27  C   UNL     1      -0.796  11.827  22.308  0.00  0.00    +0.000 C 
ATOM     28  C   UNL     1      -1.055  10.591  23.157  0.00  0.00    +0.000 C 
ATOM     29  C   UNL     1      -0.146   9.452  22.714  0.00  0.00    +0.000 C 
ATOM     30  C   UNL     1      -0.263   9.200  21.210  0.00  0.00    +0.000 C 
ENDBRANCH  24  25
ENDBRANCH  23  24
ENDBRANCH  22  23
ENDBRANCH  20  22
ENDBRANCH   8  20
TORSDOF 7
ENDMDL
MODEL 6
REMARK VINA RESULT:      -7.8      3.633      7.705
REMARK  Name = 
REMARK  7 active torsions:
REMARK  status: ('A' for Active; 'I' for Inactive)
REMARK    1  A    between atoms: C_6  and  N_7
REMARK    2  A    between atoms: N_7  and  C_8
REMARK    3  A    between atoms: C_15  and  N_16
REMARK    4  A    between atoms: N_16  and  C_17
REMARK    5  A    between atoms: C_17  and  C_18
REMARK    6  A    between atoms: C_18  and  C_19
REMARK    7  A    between atoms: C_19  and  N_20
REMARK                            x       y       z     vdW  Elec       q    Type
REMARK                         _______ _______ _______ _____ _____    ______ ____
ROOT
ATOM      1  C   UNL     1       3.610   4.336  17.504  0.00  0.00    +0.000 A 
ATOM      2  N   UNL     1       3.565   3.056  17.085  0.00  0.00    +0.000 NA
ATOM      3  C   UNL     1       2.684   2.256  17.687  0.00  0.00    +0.000 A 
ATOM      4  N   UNL     1       1.851   2.603  18.672  0.00  0.00    +0.000 NA
ATOM      5  C   UNL     1       1.909   3.870  19.086  0.00  0.00    +0.000 A 
ATOM      6  C   UNL     1       1.112   4.252  20.154  0.00  0.00    +0.000 A 
ATOM      7  C   UNL     1       1.155   5.544  20.686  0.00  0.00    +0.000 A 
ATOM      8  C   UNL     1       2.011   6.501  20.144  0.00  0.00    +0.000 A 
ATOM      9  C   UNL     1       2.762   6.147  19.019  0.00  0.00    +0.000 A 
ATOM     10  C   UNL     1       2.757   4.824  18.511  0.00  0.00    +0.000 A 
ENDROOT
BRANCH   1  11
ATOM     11  N   UNL     1       4.579   5.191  16.922  0.00  0.00    +0.000 N 
ATOM     12  H   UNL     1       4.706   4.956  15.945  0.00  0.00    +0.000 HD
BRANCH  11  18
ATOM     13 BR   UNL     1       8.013   9.171  17.599  0.00  0.00    +0.000 Br
ATOM     14  C   UNL     1       7.407   7.408  17.918  0.00  0.00    +0.000 A 
ATOM     15  C   UNL     1       8.162   6.550  18.715  0.00  0.00    +0.000 A 
ATOM     16  C   UNL     1       7.719   5.245  18.924  0.00  0.00    +0.000 A 
ATOM     17  C   UNL     1       6.527   4.803  18.338  0.00  0.00    +0.000 A 
ATOM     18  C   UNL     1       5.745   5.667  17.561  0.00  0.00    +0.000 A 
ATOM     19  C   UNL     1       6.218   6.970  17.339  0.00  0.00    +0.000 A 
ENDBRANCH  11  18
ENDBRANCH   1  11
BRANCH   8  20
ATOM     20  N   UNL     1       2.128   7.806  20.621  0.00  0.00    +0.000 N 
ATOM     21  H   UNL     1       2.247   8.471  19.860  0.00  0.00    +0.000 HD
BRANCH  20  22
ATOM     22  C   UNL     1       1.157   8.258  21.620  0.00  0.00    +0.000 C 
BRANCH  22  23
ATOM     23  C   UNL     1       0.085   9.073  20.898  0.00  0.00    +0.000 C 
BRANCH  23  24
ATOM     24  C   UNL     1       0.658  10.008  19.825  0.00  0.00    +0.000 C 
BRANCH  24  25
ATOM     25  N   UNL     1      -0.336  10.878  19.170  0.00  0.00    +0.000 NA
ATOM     26  C   UNL     1      -1.085  10.166  18.120  0.00  0.00    +0.000 C 
ATOM     27  C   UNL     1      -2.091  11.084  17.426  0.00  0.00    +0.000 C 
ATOM     28  C   UNL     1      -3.053  11.705  18.430  0.00  0.00    +0.000 C 
ATOM     29  C   UNL     1      -2.274  12.391  19.544  0.00  0.00    +0.000 C 
ATOM     30  C   UNL     1      -1.254  11.442  20.175  0.00  0.00    +0.000 C 
ENDBRANCH  24  25
ENDBRANCH  23  24
ENDBRANCH  22  23
ENDBRANCH  20  22
ENDBRANCH   8  20
TORSDOF 7
ENDMDL
MODEL 7
REMARK VINA RESULT:      -7.8      4.161      7.831
REMARK  Name = 
REMARK  7 active torsions:
REMARK  status: ('A' for Active; 'I' for Inactive)
REMARK    1  A    between atoms: C_6  and  N_7
REMARK    2  A    between atoms: N_7  and  C_8
REMARK    3  A    between atoms: C_15  and  N_16
REMARK    4  A    between atoms: N_16  and  C_17
REMARK    5  A    between atoms: C_17  and  C_18
REMARK    6  A    between atoms: C_18  and  C_19
REMARK    7  A    between atoms: C_19  and  N_20
REMARK                            x       y       z     vdW  Elec       q    Type
REMARK                         _______ _______ _______ _____ _____    ______ ____
ROOT
ATOM      1  C   UNL     1       4.342   3.148  19.230  0.00  0.00    +0.000 A 
ATOM      2  N   UNL     1       4.316   1.857  18.844  0.00  0.00    +0.000 NA
ATOM      3  C   UNL     1       3.123   1.264  18.808  0.00  0.00    +0.000 A 
ATOM      4  N   UNL     1       1.954   1.826  19.127  0.00  0.00    +0.000 NA
ATOM      5  C   UNL     1       1.991   3.102  19.515  0.00  0.00    +0.000 A 
ATOM      6  C   UNL     1       0.809   3.702  19.924  0.00  0.00    +0.000 A 
ATOM      7  C   UNL     1       0.771   5.016  20.400  0.00  0.00    +0.000 A 
ATOM      8  C   UNL     1       1.939   5.772  20.473  0.00  0.00    +0.000 A 
ATOM      9  C   UNL     1       3.121   5.203  19.992  0.00  0.00    +0.000 A 
ATOM     10  C   UNL     1       3.170   3.854  19.558  0.00  0.00    +0.000 A 
ENDROOT
BRANCH   1  11
ATOM     11  N   UNL     1       5.604   3.783  19.335  0.00  0.00    +0.000 N 
ATOM     12  H   UNL     1       5.789   4.032  20.299  0.00  0.00    +0.000 HD
BRANCH  11  18
ATOM     13 BR   UNL     1       6.770   4.781  14.261  0.00  0.00    +0.000 Br
ATOM     14  C   UNL     1       6.776   5.223  16.101  0.00  0.00    +0.000 A 
ATOM     15  C   UNL     1       7.405   6.389  16.530  0.00  0.00    +0.000 A 
ATOM     16  C   UNL     1       7.426   6.693  17.890  0.00  0.00    +0.000 A 
ATOM     17  C   UNL     1       6.819   5.834  18.813  0.00  0.00    +0.000 A 
ATOM     18  C   UNL     1       6.156   4.675  18.389  0.00  0.00    +0.000 A 
ATOM     19  C   UNL     1       6.167   4.370  17.018  0.00  0.00    +0.000 A 
ENDBRANCH  11  18
ENDBRANCH   1  11
BRANCH   8  20
ATOM     20  N   UNL     1       1.994   7.083  20.948  0.00  0.00    +0.000 N 
ATOM     21  H   UNL     1       2.855   7.257  21.462  0.00  0.00    +0.000 HD
BRANCH  20  22
ATOM     22  C   UNL     1       1.666   8.163  20.013  0.00  0.00    +0.000 C 
BRANCH  22  23
ATOM     23  C   UNL     1       0.590   9.033  20.660  0.00  0.00    +0.000 C 
BRANCH  23  24
ATOM     24  C   UNL     1       0.823  10.535  20.455  0.00  0.00    +0.000 C 
BRANCH  24  25
ATOM     25  N   UNL     1      -0.214  11.217  19.659  0.00  0.00    +0.000 NA
ATOM     26  C   UNL     1      -0.770  10.341  18.613  0.00  0.00    +0.000 C 
ATOM     27  C   UNL     1      -1.823  11.066  17.774  0.00  0.00    +0.000 C 
ATOM     28  C   UNL     1      -2.940  11.617  18.648  0.00  0.00    +0.000 C 
ATOM     29  C   UNL     1      -2.356  12.476  19.763  0.00  0.00    +0.000 C 
ATOM     30  C   UNL     1      -1.281  11.718  20.543  0.00  0.00    +0.000 C 
ENDBRANCH  24  25
ENDBRANCH  23  24
ENDBRANCH  22  23
ENDBRANCH  20  22
ENDBRANCH   8  20
TORSDOF 7
ENDMDL
MODEL 8
REMARK VINA RESULT:      -7.7      4.499      7.733
REMARK  Name = 
REMARK  7 active torsions:
REMARK  status: ('A' for Active; 'I' for Inactive)
REMARK    1  A    between atoms: C_6  and  N_7
REMARK    2  A    between atoms: N_7  and  C_8
REMARK    3  A    between atoms: C_15  and  N_16
REMARK    4  A    between atoms: N_16  and  C_17
REMARK    5  A    between atoms: C_17  and  C_18
REMARK    6  A    between atoms: C_18  and  C_19
REMARK    7  A    between atoms: C_19  and  N_20
REMARK                            x       y       z     vdW  Elec       q    Type
REMARK                         _______ _______ _______ _____ _____    ______ ____
ROOT
ATOM      1  C   UNL     1       0.448  10.575  19.670  0.00  0.00    +0.000 A 
ATOM      2  N   UNL     1      -0.354  10.942  20.690  0.00  0.00    +0.000 NA
ATOM      3  C   UNL     1      -0.472  10.081  21.702  0.00  0.00    +0.000 A 
ATOM      4  N   UNL     1       0.120   8.887  21.793  0.00  0.00    +0.000 NA
ATOM      5  C   UNL     1       0.905   8.530  20.775  0.00  0.00    +0.000 A 
ATOM      6  C   UNL     1       1.482   7.269  20.798  0.00  0.00    +0.000 A 
ATOM      7  C   UNL     1       2.270   6.795  19.745  0.00  0.00    +0.000 A 
ATOM      8  C   UNL     1       2.504   7.593  18.627  0.00  0.00    +0.000 A 
ATOM      9  C   UNL     1       1.991   8.893  18.629  0.00  0.00    +0.000 A 
ATOM     10  C   UNL     1       1.150   9.356  19.672  0.00  0.00    +0.000 A 
ENDROOT
BRANCH   1  11
ATOM     11  N   UNL     1       0.543  11.445  18.556  0.00  0.00    +0.000 N 
ATOM     12  H   UNL     1       0.766  10.917  17.721  0.00  0.00    +0.000 HD
BRANCH  11  18
ATOM     13 BR   UNL     1      -0.361  16.659  18.868  0.00  0.00    +0.000 Br
ATOM     14  C   UNL     1       0.782  15.165  18.670  0.00  0.00    +0.000 A 
ATOM     15  C   UNL     1       2.145  15.360  18.455  0.00  0.00    +0.000 A 
ATOM     16  C   UNL     1       2.974  14.253  18.286  0.00  0.00    +0.000 A 
ATOM     17  C   UNL     1       2.442  12.959  18.331  0.00  0.00    +0.000 A 
ATOM     18  C   UNL     1       1.080  12.751  18.578  0.00  0.00    +0.000 A 
ATOM     19  C   UNL     1       0.253  13.877  18.721  0.00  0.00    +0.000 A 
ENDBRANCH  11  18
ENDBRANCH   1  11
BRANCH   8  20
ATOM     20  N   UNL     1       3.264   7.195  17.527  0.00  0.00    +0.000 N 
ATOM     21  H   UNL     1       3.504   7.986  16.934  0.00  0.00    +0.000 HD
BRANCH  20  22
ATOM     22  C   UNL     1       4.403   6.304  17.769  0.00  0.00    +0.000 C 
BRANCH  22  23
ATOM     23  C   UNL     1       4.120   4.979  17.064  0.00  0.00    +0.000 C 
BRANCH  23  24
ATOM     24  C   UNL     1       4.513   3.754  17.900  0.00  0.00    +0.000 C 
BRANCH  24  25
ATOM     25  N   UNL     1       3.401   3.130  18.639  0.00  0.00    +0.000 NA
ATOM     26  C   UNL     1       3.405   3.507  20.063  0.00  0.00    +0.000 C 
ATOM     27  C   UNL     1       2.268   2.831  20.828  0.00  0.00    +0.000 C 
ATOM     28  C   UNL     1       0.917   3.151  20.203  0.00  0.00    +0.000 C 
ATOM     29  C   UNL     1       0.936   2.812  18.718  0.00  0.00    +0.000 C 
ATOM     30  C   UNL     1       2.115   3.480  18.010  0.00  0.00    +0.000 C 
ENDBRANCH  24  25
ENDBRANCH  23  24
ENDBRANCH  22  23
ENDBRANCH  20  22
ENDBRANCH   8  20
TORSDOF 7
ENDMDL
MODEL 9
REMARK VINA RESULT:      -7.7      3.589      7.653
REMARK  Name = 
REMARK  7 active torsions:
REMARK  status: ('A' for Active; 'I' for Inactive)
REMARK    1  A    between atoms: C_6  and  N_7
REMARK    2  A    between atoms: N_7  and  C_8
REMARK    3  A    between atoms: C_15  and  N_16
REMARK    4  A    between atoms: N_16  and  C_17
REMARK    5  A    between atoms: C_17  and  C_18
REMARK    6  A    between atoms: C_18  and  C_19
REMARK    7  A    between atoms: C_19  and  N_20
REMARK                            x       y       z     vdW  Elec       q    Type
REMARK                         _______ _______ _______ _____ _____    ______ ____
ROOT
ATOM      1  C   UNL     1       3.625   4.553  17.451  0.00  0.00    +0.000 A 
ATOM      2  N   UNL     1       3.652   3.321  16.907  0.00  0.00    +0.000 NA
ATOM      3  C   UNL     1       2.826   2.414  17.430  0.00  0.00    +0.000 A 
ATOM      4  N   UNL     1       1.983   2.611  18.447  0.00  0.00    +0.000 NA
ATOM      5  C   UNL     1       1.969   3.833  18.983  0.00  0.00    +0.000 A 
ATOM      6  C   UNL     1       1.160   4.059  20.086  0.00  0.00    +0.000 A 
ATOM      7  C   UNL     1       1.131   5.293  20.744  0.00  0.00    +0.000 A 
ATOM      8  C   UNL     1       1.924   6.347  20.297  0.00  0.00    +0.000 A 
ATOM      9  C   UNL     1       2.685   6.152  19.140  0.00  0.00    +0.000 A 
ATOM     10  C   UNL     1       2.754   4.887  18.504  0.00  0.00    +0.000 A 
ENDROOT
BRANCH   1  11
ATOM     11  N   UNL     1       4.537   5.518  16.954  0.00  0.00    +0.000 N 
ATOM     12  H   UNL     1       4.606   5.442  15.947  0.00  0.00    +0.000 HD
BRANCH  11  18
ATOM     13 BR   UNL     1       8.179   9.304  17.655  0.00  0.00    +0.000 Br
ATOM     14  C   UNL     1       7.485   7.571  17.955  0.00  0.00    +0.000 A 
ATOM     15  C   UNL     1       8.201   6.664  18.733  0.00  0.00    +0.000 A 
ATOM     16  C   UNL     1       7.693   5.381  18.927  0.00  0.00    +0.000 A 
ATOM     17  C   UNL     1       6.475   5.009  18.346  0.00  0.00    +0.000 A 
ATOM     18  C   UNL     1       5.731   5.923  17.589  0.00  0.00    +0.000 A 
ATOM     19  C   UNL     1       6.270   7.204  17.381  0.00  0.00    +0.000 A 
ENDBRANCH  11  18
ENDBRANCH   1  11
BRANCH   8  20
ATOM     20  N   UNL     1       1.968   7.604  20.900  0.00  0.00    +0.000 N 
ATOM     21  H   UNL     1       2.799   8.121  20.623  0.00  0.00    +0.000 HD
BRANCH  20  22
ATOM     22  C   UNL     1       0.754   8.423  20.861  0.00  0.00    +0.000 C 
BRANCH  22  23
ATOM     23  C   UNL     1       1.087   9.785  21.468  0.00  0.00    +0.000 C 
BRANCH  23  24
ATOM     24  C   UNL     1       0.723  10.961  20.553  0.00  0.00    +0.000 C 
BRANCH  24  25
ATOM     25  N   UNL     1      -0.533  10.789  19.799  0.00  0.00    +0.000 NA
ATOM     26  C   UNL     1      -1.322  12.032  19.753  0.00  0.00    +0.000 C 
ATOM     27  C   UNL     1      -2.636  11.837  18.997  0.00  0.00    +0.000 C 
ATOM     28  C   UNL     1      -2.388  11.318  17.587  0.00  0.00    +0.000 C 
ATOM     29  C   UNL     1      -1.523  10.065  17.636  0.00  0.00    +0.000 C 
ATOM     30  C   UNL     1      -0.243  10.304  18.438  0.00  0.00    +0.000 C 
ENDBRANCH  24  25
ENDBRANCH  23  24
ENDBRANCH  22  23
ENDBRANCH  20  22
ENDBRANCH   8  20
TORSDOF 7
ENDMDL
