MODEL 1
REMARK VINA RESULT:      -7.9      0.000      0.000
REMARK  Name = 
REMARK  6 active torsions:
REMARK  status: ('A' for Active; 'I' for Inactive)
REMARK    1  A    between atoms: C_1  and  O_2
REMARK    2  A    between atoms: O_2  and  C_3
REMARK    3  A    between atoms: C_6  and  C_7
REMARK    4  A    between atoms: C_11  and  C_12
REMARK    5  A    between atoms: C_16  and  N_17
REMARK    6  A    between atoms: N_20  and  C_21
REMARK                            x       y       z     vdW  Elec       q    Type
REMARK                         _______ _______ _______ _____ _____    ______ ____
ROOT
ATOM      1  C   UNL     1      -2.662  12.752  21.909  0.00  0.00    +0.000 A 
ATOM      2  N   UNL     1      -1.986  12.285  20.872  0.00  0.00    +0.000 NA
ATOM      3  C   UNL     1      -1.187  11.284  21.347  0.00  0.00    +0.000 A 
ATOM      4  C   UNL     1      -0.338  10.419  20.630  0.00  0.00    +0.000 A 
ATOM      5  C   UNL     1       0.328   9.388  21.313  0.00  0.00    +0.000 A 
ATOM      6  C   UNL     1       0.168   9.301  22.711  0.00  0.00    +0.000 A 
ATOM      7  C   UNL     1      -0.634  10.190  23.453  0.00  0.00    +0.000 A 
ATOM      8  C   UNL     1      -1.321  11.161  22.721  0.00  0.00    +0.000 A 
ATOM      9  N   UNL     1      -2.216  12.148  23.066  0.00  0.00    +0.000 N 
ATOM     10  H   UNL     1      -2.516  12.384  23.999  0.00  0.00    +0.000 HD
ENDROOT
BRANCH   5  11
ATOM     11  C   UNL     1       1.163   8.380  20.632  0.00  0.00    +0.000 A 
ATOM     12  N   UNL     1       1.691   8.536  19.432  0.00  0.00    +0.000 NA
ATOM     13  C   UNL     1       2.377   7.381  19.142  0.00  0.00    +0.000 A 
ATOM     14  C   UNL     1       3.110   7.046  17.997  0.00  0.00    +0.000 A 
ATOM     15  C   UNL     1       3.725   5.787  17.895  0.00  0.00    +0.000 A 
ATOM     16  C   UNL     1       3.550   4.885  18.963  0.00  0.00    +0.000 A 
ATOM     17  C   UNL     1       2.829   5.202  20.132  0.00  0.00    +0.000 A 
ATOM     18  C   UNL     1       2.266   6.472  20.189  0.00  0.00    +0.000 A 
ATOM     19  N   UNL     1       1.533   7.147  21.140  0.00  0.00    +0.000 N 
ATOM     20  H   UNL     1       1.308   6.799  22.059  0.00  0.00    +0.000 HD
BRANCH  15  21
ATOM     21  N   UNL     1       4.466   5.376  16.778  0.00  0.00    +0.000 N 
ATOM     22  C   UNL     1       5.218   6.394  16.013  0.00  0.00    +0.000 C 
ATOM     23  C   UNL     1       5.658   5.793  14.654  0.00  0.00    +0.000 C 
ATOM     24  N   UNL     1       6.483   4.570  14.807  0.00  0.00    +0.000 NA
ATOM     25  C   UNL     1       6.800   4.000  13.499  0.00  0.00    +0.000 C 
ATOM     26  C   UNL     1       5.750   3.587  15.642  0.00  0.00    +0.000 C 
ATOM     27  C   UNL     1       5.292   4.166  17.005  0.00  0.00    +0.000 C 
ENDBRANCH  15  21
ENDBRANCH   5  11
BRANCH   1  31
ATOM     28  C   UNL     1      -5.545  15.915  21.695  0.00  0.00    +0.000 A 
ATOM     29  C   UNL     1      -5.558  14.913  20.721  0.00  0.00    +0.000 A 
ATOM     30  C   UNL     1      -4.653  13.839  20.779  0.00  0.00    +0.000 A 
ATOM     31  C   UNL     1      -3.703  13.779  21.803  0.00  0.00    +0.000 A 
ATOM     32  C   UNL     1      -3.679  14.817  22.747  0.00  0.00    +0.000 A 
ATOM     33  C   UNL     1      -4.586  15.874  22.697  0.00  0.00    +0.000 A 
BRANCH  28  35
ATOM     34  C   UNL     1      -7.509  16.633  20.615  0.00  0.00    +0.000 C 
ATOM     35  O   UNL     1      -6.478  16.904  21.564  0.00  0.00    +0.000 OA
ENDBRANCH  28  35
ENDBRANCH   1  31
TORSDOF 4
ENDMDL
MODEL 2
REMARK VINA RESULT:      -7.9      3.923     12.578
REMARK  Name = 
REMARK  6 active torsions:
REMARK  status: ('A' for Active; 'I' for Inactive)
REMARK    1  A    between atoms: C_1  and  O_2
REMARK    2  A    between atoms: O_2  and  C_3
REMARK    3  A    between atoms: C_6  and  C_7
REMARK    4  A    between atoms: C_11  and  C_12
REMARK    5  A    between atoms: C_16  and  N_17
REMARK    6  A    between atoms: N_20  and  C_21
REMARK                            x       y       z     vdW  Elec       q    Type
REMARK                         _______ _______ _______ _____ _____    ______ ____
ROOT
ATOM      1  C   UNL     1       2.774   7.112  18.578  0.00  0.00    +0.000 A 
ATOM      2  N   UNL     1       2.154   8.181  18.104  0.00  0.00    +0.000 NA
ATOM      3  C   UNL     1       1.516   8.762  19.163  0.00  0.00    +0.000 A 
ATOM      4  C   UNL     1       0.789   9.968  19.200  0.00  0.00    +0.000 A 
ATOM      5  C   UNL     1       0.290  10.432  20.428  0.00  0.00    +0.000 A 
ATOM      6  C   UNL     1       0.485   9.633  21.572  0.00  0.00    +0.000 A 
ATOM      7  C   UNL     1       1.163   8.399  21.546  0.00  0.00    +0.000 A 
ATOM      8  C   UNL     1       1.691   8.009  20.314  0.00  0.00    +0.000 A 
ATOM      9  N   UNL     1       2.440   6.929  19.903  0.00  0.00    +0.000 N 
ATOM     10  H   UNL     1       2.718   6.145  20.472  0.00  0.00    +0.000 HD
ENDROOT
BRANCH   5  11
ATOM     11  C   UNL     1      -0.402  11.726  20.577  0.00  0.00    +0.000 A 
ATOM     12  N   UNL     1      -1.524  11.899  21.253  0.00  0.00    +0.000 NA
ATOM     13  C   UNL     1      -1.858  13.228  21.144  0.00  0.00    +0.000 A 
ATOM     14  C   UNL     1      -2.952  13.916  21.680  0.00  0.00    +0.000 A 
ATOM     15  C   UNL     1      -3.117  15.288  21.426  0.00  0.00    +0.000 A 
ATOM     16  C   UNL     1      -2.167  15.920  20.600  0.00  0.00    +0.000 A 
ATOM     17  C   UNL     1      -1.048  15.253  20.060  0.00  0.00    +0.000 A 
ATOM     18  C   UNL     1      -0.922  13.903  20.368  0.00  0.00    +0.000 A 
ATOM     19  N   UNL     1       0.015  12.940  20.061  0.00  0.00    +0.000 N 
ATOM     20  H   UNL     1       0.868  13.099  19.549  0.00  0.00    +0.000 HD
BRANCH  15  21
ATOM     21  N   UNL     1      -4.192  16.043  21.919  0.00  0.00    +0.000 N 
ATOM     22  C   UNL     1      -5.204  16.542  20.963  0.00  0.00    +0.000 C 
ATOM     23  C   UNL     1      -6.076  17.619  21.658  0.00  0.00    +0.000 C 
ATOM     24  N   UNL     1      -6.747  17.114  22.880  0.00  0.00    +0.000 NA
ATOM     25  C   UNL     1      -7.488  18.188  23.538  0.00  0.00    +0.000 C 
ATOM     26  C   UNL     1      -5.729  16.544  23.796  0.00  0.00    +0.000 C 
ATOM     27  C   UNL     1      -4.838  15.469  23.123  0.00  0.00    +0.000 C 
ENDBRANCH  15  21
ENDBRANCH   5  11
BRANCH   1  31
ATOM     28  C   UNL     1       5.157   4.469  16.192  0.00  0.00    +0.000 A 
ATOM     29  C   UNL     1       5.398   5.843  16.135  0.00  0.00    +0.000 A 
ATOM     30  C   UNL     1       4.663   6.739  16.931  0.00  0.00    +0.000 A 
ATOM     31  C   UNL     1       3.654   6.260  17.772  0.00  0.00    +0.000 A 
ATOM     32  C   UNL     1       3.399   4.881  17.783  0.00  0.00    +0.000 A 
ATOM     33  C   UNL     1       4.138   3.992  17.006  0.00  0.00    +0.000 A 
BRANCH  28  35
ATOM     34  C   UNL     1       6.333   4.275  14.163  0.00  0.00    +0.000 C 
ATOM     35  O   UNL     1       5.938   3.679  15.398  0.00  0.00    +0.000 OA
ENDBRANCH  28  35
ENDBRANCH   1  31
TORSDOF 4
ENDMDL
MODEL 3
REMARK VINA RESULT:      -7.7      4.013     12.628
REMARK  Name = 
REMARK  6 active torsions:
REMARK  status: ('A' for Active; 'I' for Inactive)
REMARK    1  A    between atoms: C_1  and  O_2
REMARK    2  A    between atoms: O_2  and  C_3
REMARK    3  A    between atoms: C_6  and  C_7
REMARK    4  A    between atoms: C_11  and  C_12
REMARK    5  A    between atoms: C_16  and  N_17
REMARK    6  A    between atoms: N_20  and  C_21
REMARK                            x       y       z     vdW  Elec       q    Type
REMARK                         _______ _______ _______ _____ _____    ______ ____
ROOT
ATOM      1  C   UNL     1       2.882   7.004  18.556  0.00  0.00    +0.000 A 
ATOM      2  N   UNL     1       2.359   8.165  18.194  0.00  0.00    +0.000 NA
ATOM      3  C   UNL     1       1.698   8.651  19.286  0.00  0.00    +0.000 A 
ATOM      4  C   UNL     1       1.047   9.890  19.441  0.00  0.00    +0.000 A 
ATOM      5  C   UNL     1       0.507  10.230  20.692  0.00  0.00    +0.000 A 
ATOM      6  C   UNL     1       0.585   9.283  21.733  0.00  0.00    +0.000 A 
ATOM      7  C   UNL     1       1.184   8.017  21.581  0.00  0.00    +0.000 A 
ATOM      8  C   UNL     1       1.758   7.749  20.337  0.00  0.00    +0.000 A 
ATOM      9  N   UNL     1       2.460   6.680  19.828  0.00  0.00    +0.000 N 
ATOM     10  H   UNL     1       2.655   5.813  20.304  0.00  0.00    +0.000 HD
ENDROOT
BRANCH   5  11
ATOM     11  C   UNL     1      -0.110  11.541  20.973  0.00  0.00    +0.000 A 
ATOM     12  N   UNL     1      -0.731  11.848  22.098  0.00  0.00    +0.000 NA
ATOM     13  C   UNL     1      -1.179  13.141  21.969  0.00  0.00    +0.000 A 
ATOM     14  C   UNL     1      -1.891  13.930  22.879  0.00  0.00    +0.000 A 
ATOM     15  C   UNL     1      -2.274  15.237  22.534  0.00  0.00    +0.000 A 
ATOM     16  C   UNL     1      -1.941  15.698  21.245  0.00  0.00    +0.000 A 
ATOM     17  C   UNL     1      -1.213  14.928  20.314  0.00  0.00    +0.000 A 
ATOM     18  C   UNL     1      -0.837  13.653  20.721  0.00  0.00    +0.000 A 
ATOM     19  N   UNL     1      -0.119  12.637  20.128  0.00  0.00    +0.000 N 
ATOM     20  H   UNL     1       0.331  12.689  19.228  0.00  0.00    +0.000 HD
BRANCH  15  21
ATOM     21  N   UNL     1      -2.996  16.083  23.388  0.00  0.00    +0.000 N 
ATOM     22  C   UNL     1      -2.423  17.404  23.727  0.00  0.00    +0.000 C 
ATOM     23  C   UNL     1      -3.194  18.003  24.930  0.00  0.00    +0.000 C 
ATOM     24  N   UNL     1      -4.648  18.138  24.671  0.00  0.00    +0.000 NA
ATOM     25  C   UNL     1      -5.337  18.629  25.863  0.00  0.00    +0.000 C 
ATOM     26  C   UNL     1      -5.195  16.823  24.257  0.00  0.00    +0.000 C 
ATOM     27  C   UNL     1      -4.436  16.198  23.058  0.00  0.00    +0.000 C 
ENDBRANCH  15  21
ENDBRANCH   5  11
BRANCH   1  31
ATOM     28  C   UNL     1       5.616   4.789  16.111  0.00  0.00    +0.000 A 
ATOM     29  C   UNL     1       4.494   4.144  16.636  0.00  0.00    +0.000 A 
ATOM     30  C   UNL     1       3.554   4.846  17.410  0.00  0.00    +0.000 A 
ATOM     31  C   UNL     1       3.752   6.201  17.692  0.00  0.00    +0.000 A 
ATOM     32  C   UNL     1       4.908   6.820  17.191  0.00  0.00    +0.000 A 
ATOM     33  C   UNL     1       5.831   6.127  16.410  0.00  0.00    +0.000 A 
BRANCH  28  35
ATOM     34  C   UNL     1       6.097   3.923  13.976  0.00  0.00    +0.000 C 
ATOM     35  O   UNL     1       6.459   4.027  15.352  0.00  0.00    +0.000 OA
ENDBRANCH  28  35
ENDBRANCH   1  31
TORSDOF 4
ENDMDL
MODEL 4
REMARK VINA RESULT:      -7.6      3.973     12.467
REMARK  Name = 
REMARK  6 active torsions:
REMARK  status: ('A' for Active; 'I' for Inactive)
REMARK    1  A    between atoms: C_1  and  O_2
REMARK    2  A    between atoms: O_2  and  C_3
REMARK    3  A    between atoms: C_6  and  C_7
REMARK    4  A    between atoms: C_11  and  C_12
REMARK    5  A    between atoms: C_16  and  N_17
REMARK    6  A    between atoms: N_20  and  C_21
REMARK                            x       y       z     vdW  Elec       q    Type
REMARK                         _______ _______ _______ _____ _____    ______ ____
ROOT
ATOM      1  C   UNL     1       3.384   6.593  17.900  0.00  0.00    +0.000 A 
ATOM      2  N   UNL     1       2.900   7.806  17.685  0.00  0.00    +0.000 NA
ATOM      3  C   UNL     1       2.190   8.145  18.802  0.00  0.00    +0.000 A 
ATOM      4  C   UNL     1       1.552   9.363  19.104  0.00  0.00    +0.000 A 
ATOM      5  C   UNL     1       0.953   9.532  20.363  0.00  0.00    +0.000 A 
ATOM      6  C   UNL     1       0.962   8.442  21.257  0.00  0.00    +0.000 A 
ATOM      7  C   UNL     1       1.548   7.198  20.953  0.00  0.00    +0.000 A 
ATOM      8  C   UNL     1       2.181   7.099  19.713  0.00  0.00    +0.000 A 
ATOM      9  N   UNL     1       2.892   6.099  19.090  0.00  0.00    +0.000 N 
ATOM     10  H   UNL     1       3.048   5.168  19.443  0.00  0.00    +0.000 HD
ENDROOT
BRANCH   5  11
ATOM     11  C   UNL     1       0.343  10.802  20.800  0.00  0.00    +0.000 A 
ATOM     12  N   UNL     1      -0.946  10.969  21.033  0.00  0.00    +0.000 NA
ATOM     13  C   UNL     1      -1.121  12.283  21.399  0.00  0.00    +0.000 A 
ATOM     14  C   UNL     1      -2.295  12.960  21.748  0.00  0.00    +0.000 A 
ATOM     15  C   UNL     1      -2.253  14.326  22.075  0.00  0.00    +0.000 A 
ATOM     16  C   UNL     1      -1.006  14.977  22.007  0.00  0.00    +0.000 A 
ATOM     17  C   UNL     1       0.193  14.315  21.671  0.00  0.00    +0.000 A 
ATOM     18  C   UNL     1       0.095  12.958  21.385  0.00  0.00    +0.000 A 
ATOM     19  N   UNL     1       1.013  11.987  21.050  0.00  0.00    +0.000 N 
ATOM     20  H   UNL     1       2.011  12.119  21.001  0.00  0.00    +0.000 HD
BRANCH  15  21
ATOM     21  N   UNL     1      -3.387  15.073  22.425  0.00  0.00    +0.000 N 
ATOM     22  C   UNL     1      -3.284  16.547  22.449  0.00  0.00    +0.000 C 
ATOM     23  C   UNL     1      -4.514  17.135  23.187  0.00  0.00    +0.000 C 
ATOM     24  N   UNL     1      -5.800  16.732  22.569  0.00  0.00    +0.000 NA
ATOM     25  C   UNL     1      -6.925  17.244  23.350  0.00  0.00    +0.000 C 
ATOM     26  C   UNL     1      -5.858  15.253  22.479  0.00  0.00    +0.000 C 
ATOM     27  C   UNL     1      -4.634  14.639  21.751  0.00  0.00    +0.000 C 
ENDBRANCH  15  21
ENDBRANCH   5  11
BRANCH   1  31
ATOM     28  C   UNL     1       5.863   4.386  15.190  0.00  0.00    +0.000 A 
ATOM     29  C   UNL     1       5.807   5.778  15.084  0.00  0.00    +0.000 A 
ATOM     30  C   UNL     1       5.036   6.539  15.979  0.00  0.00    +0.000 A 
ATOM     31  C   UNL     1       4.285   5.903  16.972  0.00  0.00    +0.000 A 
ATOM     32  C   UNL     1       4.322   4.502  17.035  0.00  0.00    +0.000 A 
ATOM     33  C   UNL     1       5.100   3.749  16.157  0.00  0.00    +0.000 A 
BRANCH  28  35
ATOM     34  C   UNL     1       6.114   3.636  12.973  0.00  0.00    +0.000 C 
ATOM     35  O   UNL     1       6.658   3.738  14.288  0.00  0.00    +0.000 OA
ENDBRANCH  28  35
ENDBRANCH   1  31
TORSDOF 4
ENDMDL
MODEL 5
REMARK VINA RESULT:      -7.6      4.011     12.607
REMARK  Name = 
REMARK  6 active torsions:
REMARK  status: ('A' for Active; 'I' for Inactive)
REMARK    1  A    between atoms: C_1  and  O_2
REMARK    2  A    between atoms: O_2  and  C_3
REMARK    3  A    between atoms: C_6  and  C_7
REMARK    4  A    between atoms: C_11  and  C_12
REMARK    5  A    between atoms: C_16  and  N_17
REMARK    6  A    between atoms: N_20  and  C_21
REMARK                            x       y       z     vdW  Elec       q    Type
REMARK                         _______ _______ _______ _____ _____    ______ ____
ROOT
ATOM      1  C   UNL     1       2.876   6.965  18.266  0.00  0.00    +0.000 A 
ATOM      2  N   UNL     1       2.302   8.067  17.810  0.00  0.00    +0.000 NA
ATOM      3  C   UNL     1       1.651   8.633  18.868  0.00  0.00    +0.000 A 
ATOM      4  C   UNL     1       0.958   9.858  18.923  0.00  0.00    +0.000 A 
ATOM      5  C   UNL     1       0.437  10.299  20.151  0.00  0.00    +0.000 A 
ATOM      6  C   UNL     1       0.575   9.459  21.274  0.00  0.00    +0.000 A 
ATOM      7  C   UNL     1       1.217   8.206  21.227  0.00  0.00    +0.000 A 
ATOM      8  C   UNL     1       1.769   7.839  19.998  0.00  0.00    +0.000 A 
ATOM      9  N   UNL     1       2.498   6.751  19.575  0.00  0.00    +0.000 N 
ATOM     10  H   UNL     1       2.736   5.941  20.125  0.00  0.00    +0.000 HD
ENDROOT
BRANCH   5  11
ATOM     11  C   UNL     1      -0.221  11.608  20.322  0.00  0.00    +0.000 A 
ATOM     12  N   UNL     1      -1.365  11.791  20.956  0.00  0.00    +0.000 NA
ATOM     13  C   UNL     1      -1.653  13.133  20.885  0.00  0.00    +0.000 A 
ATOM     14  C   UNL     1      -2.748  13.836  21.400  0.00  0.00    +0.000 A 
ATOM     15  C   UNL     1      -2.859  15.221  21.195  0.00  0.00    +0.000 A 
ATOM     16  C   UNL     1      -1.854  15.853  20.438  0.00  0.00    +0.000 A 
ATOM     17  C   UNL     1      -0.734  15.172  19.920  0.00  0.00    +0.000 A 
ATOM     18  C   UNL     1      -0.663  13.807  20.178  0.00  0.00    +0.000 A 
ATOM     19  N   UNL     1       0.257  12.827  19.874  0.00  0.00    +0.000 N 
ATOM     20  H   UNL     1       1.136  12.978  19.405  0.00  0.00    +0.000 HD
BRANCH  15  21
ATOM     21  N   UNL     1      -3.931  15.991  21.671  0.00  0.00    +0.000 N 
ATOM     22  C   UNL     1      -3.874  16.503  23.057  0.00  0.00    +0.000 C 
ATOM     23  C   UNL     1      -5.279  17.007  23.475  0.00  0.00    +0.000 C 
ATOM     24  N   UNL     1      -5.804  18.059  22.572  0.00  0.00    +0.000 NA
ATOM     25  C   UNL     1      -7.161  18.438  22.963  0.00  0.00    +0.000 C 
ATOM     26  C   UNL     1      -5.783  17.560  21.175  0.00  0.00    +0.000 C 
ATOM     27  C   UNL     1      -4.390  17.044  20.734  0.00  0.00    +0.000 C 
ENDBRANCH  15  21
ENDBRANCH   5  11
BRANCH   1  31
ATOM     28  C   UNL     1       5.619   4.641  15.935  0.00  0.00    +0.000 A 
ATOM     29  C   UNL     1       4.659   3.987  16.711  0.00  0.00    +0.000 A 
ATOM     30  C   UNL     1       3.718   4.715  17.459  0.00  0.00    +0.000 A 
ATOM     31  C   UNL     1       3.754   6.113  17.458  0.00  0.00    +0.000 A 
ATOM     32  C   UNL     1       4.752   6.750  16.706  0.00  0.00    +0.000 A 
ATOM     33  C   UNL     1       5.675   6.028  15.953  0.00  0.00    +0.000 A 
BRANCH  28  35
ATOM     34  C   UNL     1       6.314   3.907  13.810  0.00  0.00    +0.000 C 
ATOM     35  O   UNL     1       6.475   3.847  15.226  0.00  0.00    +0.000 OA
ENDBRANCH  28  35
ENDBRANCH   1  31
TORSDOF 4
ENDMDL
MODEL 6
REMARK VINA RESULT:      -7.5      3.936     12.460
REMARK  Name = 
REMARK  6 active torsions:
REMARK  status: ('A' for Active; 'I' for Inactive)
REMARK    1  A    between atoms: C_1  and  O_2
REMARK    2  A    between atoms: O_2  and  C_3
REMARK    3  A    between atoms: C_6  and  C_7
REMARK    4  A    between atoms: C_11  and  C_12
REMARK    5  A    between atoms: C_16  and  N_17
REMARK    6  A    between atoms: N_20  and  C_21
REMARK                            x       y       z     vdW  Elec       q    Type
REMARK                         _______ _______ _______ _____ _____    ______ ____
ROOT
ATOM      1  C   UNL     1       3.078   6.584  18.123  0.00  0.00    +0.000 A 
ATOM      2  N   UNL     1       2.612   7.792  17.848  0.00  0.00    +0.000 NA
ATOM      3  C   UNL     1       1.923   8.204  18.953  0.00  0.00    +0.000 A 
ATOM      4  C   UNL     1       1.311   9.449  19.195  0.00  0.00    +0.000 A 
ATOM      5  C   UNL     1       0.731   9.696  20.451  0.00  0.00    +0.000 A 
ATOM      6  C   UNL     1       0.731   8.657  21.402  0.00  0.00    +0.000 A 
ATOM      7  C   UNL     1       1.291   7.387  21.159  0.00  0.00    +0.000 A 
ATOM      8  C   UNL     1       1.907   7.210  19.919  0.00  0.00    +0.000 A 
ATOM      9  N   UNL     1       2.591   6.164  19.343  0.00  0.00    +0.000 N 
ATOM     10  H   UNL     1       2.735   5.251  19.745  0.00  0.00    +0.000 HD
ENDROOT
BRANCH   5  11
ATOM     11  C   UNL     1       0.149  10.999  20.825  0.00  0.00    +0.000 A 
ATOM     12  N   UNL     1      -1.131  11.199  21.082  0.00  0.00    +0.000 NA
ATOM     13  C   UNL     1      -1.279  12.534  21.372  0.00  0.00    +0.000 A 
ATOM     14  C   UNL     1      -2.434  13.248  21.710  0.00  0.00    +0.000 A 
ATOM     15  C   UNL     1      -2.366  14.631  21.951  0.00  0.00    +0.000 A 
ATOM     16  C   UNL     1      -1.113  15.259  21.809  0.00  0.00    +0.000 A 
ATOM     17  C   UNL     1       0.068  14.561  21.483  0.00  0.00    +0.000 A 
ATOM     18  C   UNL     1      -0.055  13.190  21.283  0.00  0.00    +0.000 A 
ATOM     19  N   UNL     1       0.841  12.188  20.983  0.00  0.00    +0.000 N 
ATOM     20  H   UNL     1       1.838  12.303  20.899  0.00  0.00    +0.000 HD
BRANCH  15  21
ATOM     21  N   UNL     1      -3.481  15.414  22.285  0.00  0.00    +0.000 N 
ATOM     22  C   UNL     1      -4.312  15.964  21.193  0.00  0.00    +0.000 C 
ATOM     23  C   UNL     1      -5.249  17.059  21.765  0.00  0.00    +0.000 C 
ATOM     24  N   UNL     1      -6.120  16.557  22.855  0.00  0.00    +0.000 NA
ATOM     25  C   UNL     1      -6.921  17.646  23.411  0.00  0.00    +0.000 C 
ATOM     26  C   UNL     1      -5.279  15.937  23.908  0.00  0.00    +0.000 C 
ATOM     27  C   UNL     1      -4.326  14.843  23.360  0.00  0.00    +0.000 C 
ENDBRANCH  15  21
ENDBRANCH   5  11
BRANCH   1  31
ATOM     28  C   UNL     1       5.794   4.568  15.493  0.00  0.00    +0.000 A 
ATOM     29  C   UNL     1       5.061   3.822  16.419  0.00  0.00    +0.000 A 
ATOM     30  C   UNL     1       4.133   4.442  17.272  0.00  0.00    +0.000 A 
ATOM     31  C   UNL     1       3.955   5.828  17.223  0.00  0.00    +0.000 A 
ATOM     32  C   UNL     1       4.731   6.565  16.316  0.00  0.00    +0.000 A 
ATOM     33  C   UNL     1       5.641   5.947  15.459  0.00  0.00    +0.000 A 
BRANCH  28  35
ATOM     34  C   UNL     1       6.353   3.925  13.299  0.00  0.00    +0.000 C 
ATOM     35  O   UNL     1       6.655   3.871  14.693  0.00  0.00    +0.000 OA
ENDBRANCH  28  35
ENDBRANCH   1  31
TORSDOF 4
ENDMDL
MODEL 7
REMARK VINA RESULT:      -7.5      3.950     12.585
REMARK  Name = 
REMARK  6 active torsions:
REMARK  status: ('A' for Active; 'I' for Inactive)
REMARK    1  A    between atoms: C_1  and  O_2
REMARK    2  A    between atoms: O_2  and  C_3
REMARK    3  A    between atoms: C_6  and  C_7
REMARK    4  A    between atoms: C_11  and  C_12
REMARK    5  A    between atoms: C_16  and  N_17
REMARK    6  A    between atoms: N_20  and  C_21
REMARK                            x       y       z     vdW  Elec       q    Type
REMARK                         _______ _______ _______ _____ _____    ______ ____
ROOT
ATOM      1  C   UNL     1       3.002   6.880  18.397  0.00  0.00    +0.000 A 
ATOM      2  N   UNL     1       2.348   7.953  17.979  0.00  0.00    +0.000 NA
ATOM      3  C   UNL     1       1.707   8.467  19.070  0.00  0.00    +0.000 A 
ATOM      4  C   UNL     1       0.948   9.649  19.169  0.00  0.00    +0.000 A 
ATOM      5  C   UNL     1       0.450  10.043  20.423  0.00  0.00    +0.000 A 
ATOM      6  C   UNL     1       0.680   9.199  21.527  0.00  0.00    +0.000 A 
ATOM      7  C   UNL     1       1.390   7.986  21.437  0.00  0.00    +0.000 A 
ATOM      8  C   UNL     1       1.915   7.667  20.183  0.00  0.00    +0.000 A 
ATOM      9  N   UNL     1       2.687   6.628  19.716  0.00  0.00    +0.000 N 
ATOM     10  H   UNL     1       2.993   5.826  20.245  0.00  0.00    +0.000 HD
ENDROOT
BRANCH   5  11
ATOM     11  C   UNL     1      -0.275  11.310  20.639  0.00  0.00    +0.000 A 
ATOM     12  N   UNL     1      -0.603  11.789  21.825  0.00  0.00    +0.000 NA
ATOM     13  C   UNL     1      -1.278  12.967  21.609  0.00  0.00    +0.000 A 
ATOM     14  C   UNL     1      -1.832  13.856  22.537  0.00  0.00    +0.000 A 
ATOM     15  C   UNL     1      -2.507  15.007  22.096  0.00  0.00    +0.000 A 
ATOM     16  C   UNL     1      -2.624  15.206  20.707  0.00  0.00    +0.000 A 
ATOM     17  C   UNL     1      -2.063  14.333  19.752  0.00  0.00    +0.000 A 
ATOM     18  C   UNL     1      -1.383  13.225  20.246  0.00  0.00    +0.000 A 
ATOM     19  N   UNL     1      -0.698  12.187  19.655  0.00  0.00    +0.000 N 
ATOM     20  H   UNL     1      -0.529  12.087  18.667  0.00  0.00    +0.000 HD
BRANCH  15  21
ATOM     21  N   UNL     1      -3.096  15.939  22.964  0.00  0.00    +0.000 N 
ATOM     22  C   UNL     1      -4.347  16.606  22.544  0.00  0.00    +0.000 C 
ATOM     23  C   UNL     1      -4.616  17.819  23.470  0.00  0.00    +0.000 C 
ATOM     24  N   UNL     1      -4.706  17.441  24.900  0.00  0.00    +0.000 NA
ATOM     25  C   UNL     1      -4.878  18.630  25.734  0.00  0.00    +0.000 C 
ATOM     26  C   UNL     1      -3.478  16.704  25.290  0.00  0.00    +0.000 C 
ATOM     27  C   UNL     1      -3.182  15.489  24.374  0.00  0.00    +0.000 C 
ENDBRANCH  15  21
ENDBRANCH   5  11
BRANCH   1  31
ATOM     28  C   UNL     1       5.432   4.407  15.881  0.00  0.00    +0.000 A 
ATOM     29  C   UNL     1       5.584   5.795  15.825  0.00  0.00    +0.000 A 
ATOM     30  C   UNL     1       4.832   6.637  16.662  0.00  0.00    +0.000 A 
ATOM     31  C   UNL     1       3.895   6.091  17.544  0.00  0.00    +0.000 A 
ATOM     32  C   UNL     1       3.728   4.698  17.555  0.00  0.00    +0.000 A 
ATOM     33  C   UNL     1       4.485   3.863  16.736  0.00  0.00    +0.000 A 
BRANCH  28  35
ATOM     34  C   UNL     1       6.491   4.284  13.782  0.00  0.00    +0.000 C 
ATOM     35  O   UNL     1       6.224   3.673  15.044  0.00  0.00    +0.000 OA
ENDBRANCH  28  35
ENDBRANCH   1  31
TORSDOF 4
ENDMDL
MODEL 8
REMARK VINA RESULT:      -7.5      3.893     12.333
REMARK  Name = 
REMARK  6 active torsions:
REMARK  status: ('A' for Active; 'I' for Inactive)
REMARK    1  A    between atoms: C_1  and  O_2
REMARK    2  A    between atoms: O_2  and  C_3
REMARK    3  A    between atoms: C_6  and  C_7
REMARK    4  A    between atoms: C_11  and  C_12
REMARK    5  A    between atoms: C_16  and  N_17
REMARK    6  A    between atoms: N_20  and  C_21
REMARK                            x       y       z     vdW  Elec       q    Type
REMARK                         _______ _______ _______ _____ _____    ______ ____
ROOT
ATOM      1  C   UNL     1       3.175   6.965  18.438  0.00  0.00    +0.000 A 
ATOM      2  N   UNL     1       2.560   8.079  18.071  0.00  0.00    +0.000 NA
ATOM      3  C   UNL     1       1.816   8.483  19.143  0.00  0.00    +0.000 A 
ATOM      4  C   UNL     1       1.047   9.654  19.290  0.00  0.00    +0.000 A 
ATOM      5  C   UNL     1       0.432   9.920  20.524  0.00  0.00    +0.000 A 
ATOM      6  C   UNL     1       0.559   8.967  21.554  0.00  0.00    +0.000 A 
ATOM      7  C   UNL     1       1.279   7.765  21.408  0.00  0.00    +0.000 A 
ATOM      8  C   UNL     1       1.921   7.573  20.183  0.00  0.00    +0.000 A 
ATOM      9  N   UNL     1       2.739   6.582  19.688  0.00  0.00    +0.000 N 
ATOM     10  H   UNL     1       2.996   5.729  20.159  0.00  0.00    +0.000 HD
ENDROOT
BRANCH   5  11
ATOM     11  C   UNL     1      -0.315  11.163  20.799  0.00  0.00    +0.000 A 
ATOM     12  N   UNL     1      -1.504  11.445  20.297  0.00  0.00    +0.000 NA
ATOM     13  C   UNL     1      -1.854  12.688  20.768  0.00  0.00    +0.000 A 
ATOM     14  C   UNL     1      -3.014  13.434  20.531  0.00  0.00    +0.000 A 
ATOM     15  C   UNL     1      -3.163  14.710  21.102  0.00  0.00    +0.000 A 
ATOM     16  C   UNL     1      -2.101  15.205  21.883  0.00  0.00    +0.000 A 
ATOM     17  C   UNL     1      -0.928  14.469  22.148  0.00  0.00    +0.000 A 
ATOM     18  C   UNL     1      -0.848  13.202  21.580  0.00  0.00    +0.000 A 
ATOM     19  N   UNL     1       0.094  12.197  21.622  0.00  0.00    +0.000 N 
ATOM     20  H   UNL     1       0.940  12.213  22.170  0.00  0.00    +0.000 HD
BRANCH  15  21
ATOM     21  N   UNL     1      -4.291  15.519  20.903  0.00  0.00    +0.000 N 
ATOM     22  C   UNL     1      -4.105  16.855  20.298  0.00  0.00    +0.000 C 
ATOM     23  C   UNL     1      -5.395  17.691  20.496  0.00  0.00    +0.000 C 
ATOM     24  N   UNL     1      -6.595  17.041  19.918  0.00  0.00    +0.000 NA
ATOM     25  C   UNL     1      -7.793  17.830  20.205  0.00  0.00    +0.000 C 
ATOM     26  C   UNL     1      -6.727  15.672  20.475  0.00  0.00    +0.000 C 
ATOM     27  C   UNL     1      -5.446  14.817  20.296  0.00  0.00    +0.000 C 
ENDBRANCH  15  21
ENDBRANCH   5  11
BRANCH   1  31
ATOM     28  C   UNL     1       5.833   4.780  15.885  0.00  0.00    +0.000 A 
ATOM     29  C   UNL     1       6.127   6.109  16.197  0.00  0.00    +0.000 A 
ATOM     30  C   UNL     1       5.300   6.847  17.061  0.00  0.00    +0.000 A 
ATOM     31  C   UNL     1       4.148   6.262  17.597  0.00  0.00    +0.000 A 
ATOM     32  C   UNL     1       3.849   4.939  17.237  0.00  0.00    +0.000 A 
ATOM     33  C   UNL     1       4.677   4.203  16.393  0.00  0.00    +0.000 A 
BRANCH  28  35
ATOM     34  C   UNL     1       6.201   3.854  13.752  0.00  0.00    +0.000 C 
ATOM     35  O   UNL     1       6.709   4.140  15.055  0.00  0.00    +0.000 OA
ENDBRANCH  28  35
ENDBRANCH   1  31
TORSDOF 4
ENDMDL
MODEL 9
REMARK VINA RESULT:      -7.4      4.105     12.491
REMARK  Name = 
REMARK  6 active torsions:
REMARK  status: ('A' for Active; 'I' for Inactive)
REMARK    1  A    between atoms: C_1  and  O_2
REMARK    2  A    between atoms: O_2  and  C_3
REMARK    3  A    between atoms: C_6  and  C_7
REMARK    4  A    between atoms: C_11  and  C_12
REMARK    5  A    between atoms: C_16  and  N_17
REMARK    6  A    between atoms: N_20  and  C_21
REMARK                            x       y       z     vdW  Elec       q    Type
REMARK                         _______ _______ _______ _____ _____    ______ ____
ROOT
ATOM      1  C   UNL     1       3.641   6.663  18.123  0.00  0.00    +0.000 A 
ATOM      2  N   UNL     1       3.044   7.811  17.845  0.00  0.00    +0.000 NA
ATOM      3  C   UNL     1       2.209   8.079  18.892  0.00  0.00    +0.000 A 
ATOM      4  C   UNL     1       1.415   9.221  19.115  0.00  0.00    +0.000 A 
ATOM      5  C   UNL     1       0.697   9.334  20.317  0.00  0.00    +0.000 A 
ATOM      6  C   UNL     1       0.751   8.262  21.230  0.00  0.00    +0.000 A 
ATOM      7  C   UNL     1       1.496   7.089  21.000  0.00  0.00    +0.000 A 
ATOM      8  C   UNL     1       2.239   7.049  19.819  0.00  0.00    +0.000 A 
ATOM      9  N   UNL     1       3.107   6.129  19.277  0.00  0.00    +0.000 N 
ATOM     10  H   UNL     1       3.336   5.225  19.661  0.00  0.00    +0.000 HD
ENDROOT
BRANCH   5  11
ATOM     11  C   UNL     1      -0.086  10.532  20.677  0.00  0.00    +0.000 A 
ATOM     12  N   UNL     1       0.130  11.269  21.752  0.00  0.00    +0.000 NA
ATOM     13  C   UNL     1      -0.808  12.273  21.744  0.00  0.00    +0.000 A 
ATOM     14  C   UNL     1      -1.005  13.314  22.660  0.00  0.00    +0.000 A 
ATOM     15  C   UNL     1      -2.050  14.234  22.472  0.00  0.00    +0.000 A 
ATOM     16  C   UNL     1      -2.892  14.048  21.358  0.00  0.00    +0.000 A 
ATOM     17  C   UNL     1      -2.708  13.017  20.414  0.00  0.00    +0.000 A 
ATOM     18  C   UNL     1      -1.641  12.154  20.636  0.00  0.00    +0.000 A 
ATOM     19  N   UNL     1      -1.133  11.072  19.951  0.00  0.00    +0.000 N 
ATOM     20  H   UNL     1      -1.467  10.735  19.063  0.00  0.00    +0.000 HD
BRANCH  15  21
ATOM     21  N   UNL     1      -2.315  15.294  23.350  0.00  0.00    +0.000 N 
ATOM     22  C   UNL     1      -1.423  15.490  24.513  0.00  0.00    +0.000 C 
ATOM     23  C   UNL     1      -2.092  16.467  25.513  0.00  0.00    +0.000 C 
ATOM     24  N   UNL     1      -2.416  17.779  24.903  0.00  0.00    +0.000 NA
ATOM     25  C   UNL     1      -3.117  18.630  25.863  0.00  0.00    +0.000 C 
ATOM     26  C   UNL     1      -3.246  17.565  23.693  0.00  0.00    +0.000 C 
ATOM     27  C   UNL     1      -2.602  16.584  22.679  0.00  0.00    +0.000 C 
ENDBRANCH  15  21
ENDBRANCH   5  11
BRANCH   1  31
ATOM     28  C   UNL     1       6.699   5.132  15.542  0.00  0.00    +0.000 A 
ATOM     29  C   UNL     1       6.713   4.786  16.895  0.00  0.00    +0.000 A 
ATOM     30  C   UNL     1       5.705   5.238  17.766  0.00  0.00    +0.000 A 
ATOM     31  C   UNL     1       4.688   6.069  17.287  0.00  0.00    +0.000 A 
ATOM     32  C   UNL     1       4.716   6.439  15.934  0.00  0.00    +0.000 A 
ATOM     33  C   UNL     1       5.706   5.978  15.068  0.00  0.00    +0.000 A 
BRANCH  28  35
ATOM     34  C   UNL     1       7.710   5.073  13.418  0.00  0.00    +0.000 C 
ATOM     35  O   UNL     1       7.708   4.626  14.773  0.00  0.00    +0.000 OA
ENDBRANCH  28  35
ENDBRANCH   1  31
TORSDOF 4
ENDMDL
