MODEL 1
REMARK VINA RESULT:      -8.8      0.000      0.000
REMARK  Name = 
REMARK  7 active torsions:
REMARK  status: ('A' for Active; 'I' for Inactive)
REMARK    1  A    between atoms: C_2  and  C_5
REMARK    2  A    between atoms: N_3  and  O_4
REMARK    3  A    between atoms: C_5  and  N_6
REMARK    4  A    between atoms: N_6  and  S_7
REMARK    5  A    between atoms: S_7  and  C_10
REMARK    6  A    between atoms: C_13  and  O_14
REMARK    7  A    between atoms: O_14  and  C_15
REMARK                            x       y       z     vdW  Elec       q    Type
REMARK                         _______ _______ _______ _____ _____    ______ ____
ROOT
ATOM      1  S   UNL     1       2.691   5.598  19.487  0.00  0.00    +0.000 S 
ATOM      2  O   UNL     1       2.103   4.865  18.399  0.00  0.00    +0.000 OA
ATOM      3  O   UNL     1       2.465   5.225  20.865  0.00  0.00    +0.000 OA
ENDROOT
BRANCH   1   4
ATOM      4  C   UNL     1       2.120   7.281  19.335  0.00  0.00    +0.000 A 
ATOM      5  C   UNL     1       1.515   7.894  20.440  0.00  0.00    +0.000 A 
ATOM      6  C   UNL     1       0.999   9.178  20.320  0.00  0.00    +0.000 A 
ATOM      7  C   UNL     1       1.110   9.866  19.114  0.00  0.00    +0.000 A 
ATOM      8  C   UNL     1       1.731   9.251  18.014  0.00  0.00    +0.000 A 
ATOM      9  C   UNL     1       2.267   7.969  18.129  0.00  0.00    +0.000 A 
BRANCH   7  10
ATOM     10  O   UNL     1       0.517  11.107  19.093  0.00  0.00    +0.000 OA
BRANCH  10  11
ATOM     11  C   UNL     1      -0.832  11.228  18.873  0.00  0.00    +0.000 A 
ATOM     12  C   UNL     1      -1.495  12.165  19.669  0.00  0.00    +0.000 A 
ATOM     13  C   UNL     1      -2.870  12.350  19.525  0.00  0.00    +0.000 A 
ATOM     14  C   UNL     1      -3.565  11.599  18.583  0.00  0.00    +0.000 A 
ATOM     15  F   UNL     1      -4.890  11.764  18.457  0.00  0.00    +0.000 F 
ATOM     16  C   UNL     1      -2.913  10.690  17.765  0.00  0.00    +0.000 A 
ATOM     17  C   UNL     1      -1.538  10.523  17.888  0.00  0.00    +0.000 A 
ENDBRANCH  10  11
ENDBRANCH   7  10
ENDBRANCH   1   4
BRANCH   1  18
ATOM     18  N   UNL     1       4.383   5.707  19.298  0.00  0.00    +0.000 NA
ATOM     19  H   UNL     1       4.698   6.677  19.355  0.00  0.00    +0.000 HD
BRANCH  18  20
ATOM     20  C   UNL     1       5.109   4.929  18.213  0.00  0.00    +0.000 C 
ATOM     21  C   UNL     1       6.634   5.126  18.328  0.00  0.00    +0.000 C 
ATOM     22  C   UNL     1       7.415   4.587  17.132  0.00  0.00    +0.000 C 
ATOM     23  C   UNL     1       6.852   5.117  15.818  0.00  0.00    +0.000 C 
ATOM     24  C   UNL     1       5.376   4.769  15.669  0.00  0.00    +0.000 C 
ATOM     25  C   UNL     1       4.566   5.337  16.827  0.00  0.00    +0.000 C 
BRANCH  20  27
ATOM     26  O   UNL     1       4.106   2.728  17.663  0.00  0.00    +0.000 OA
ATOM     27  C   UNL     1       4.761   3.415  18.450  0.00  0.00    +0.000 C 
ATOM     28  N   UNL     1       5.229   2.863  19.620  0.00  0.00    +0.000 N 
ATOM     29  H   UNL     1       5.978   3.264  20.177  0.00  0.00    +0.000 HD
BRANCH  28  30
ATOM     30  O   UNL     1       4.924   1.498  19.847  0.00  0.00    +0.000 OA
ATOM     31  H   UNL     1       4.561   1.505  20.760  0.00  0.00    +0.000 HD
ENDBRANCH  28  30
ENDBRANCH  20  27
ENDBRANCH  18  20
ENDBRANCH   1  18
TORSDOF 7
ENDMDL
MODEL 2
REMARK VINA RESULT:      -8.5      1.785      2.387
REMARK  Name = 
REMARK  7 active torsions:
REMARK  status: ('A' for Active; 'I' for Inactive)
REMARK    1  A    between atoms: C_2  and  C_5
REMARK    2  A    between atoms: N_3  and  O_4
REMARK    3  A    between atoms: C_5  and  N_6
REMARK    4  A    between atoms: N_6  and  S_7
REMARK    5  A    between atoms: S_7  and  C_10
REMARK    6  A    between atoms: C_13  and  O_14
REMARK    7  A    between atoms: O_14  and  C_15
REMARK                            x       y       z     vdW  Elec       q    Type
REMARK                         _______ _______ _______ _____ _____    ______ ____
ROOT
ATOM      1  S   UNL     1       3.243   5.361  18.835  0.00  0.00    +0.000 S 
ATOM      2  O   UNL     1       2.211   4.362  18.874  0.00  0.00    +0.000 OA
ATOM      3  O   UNL     1       4.301   5.400  19.820  0.00  0.00    +0.000 OA
ENDROOT
BRANCH   1   4
ATOM      4  C   UNL     1       2.425   6.943  18.934  0.00  0.00    +0.000 A 
ATOM      5  C   UNL     1       2.367   7.749  17.790  0.00  0.00    +0.000 A 
ATOM      6  C   UNL     1       1.798   9.015  17.864  0.00  0.00    +0.000 A 
ATOM      7  C   UNL     1       1.259   9.468  19.066  0.00  0.00    +0.000 A 
ATOM      8  C   UNL     1       1.307   8.649  20.206  0.00  0.00    +0.000 A 
ATOM      9  C   UNL     1       1.861   7.371  20.137  0.00  0.00    +0.000 A 
BRANCH   7  10
ATOM     10  O   UNL     1       0.772  10.754  19.038  0.00  0.00    +0.000 OA
BRANCH  10  11
ATOM     11  C   UNL     1      -0.568  10.985  18.850  0.00  0.00    +0.000 A 
ATOM     12  C   UNL     1      -1.123  12.005  19.628  0.00  0.00    +0.000 A 
ATOM     13  C   UNL     1      -2.480  12.304  19.514  0.00  0.00    +0.000 A 
ATOM     14  C   UNL     1      -3.265  11.585  18.620  0.00  0.00    +0.000 A 
ATOM     15  F   UNL     1      -4.575  11.861  18.524  0.00  0.00    +0.000 F 
ATOM     16  C   UNL     1      -2.720  10.594  17.819  0.00  0.00    +0.000 A 
ATOM     17  C   UNL     1      -1.362  10.311  17.912  0.00  0.00    +0.000 A 
ENDBRANCH  10  11
ENDBRANCH   7  10
ENDBRANCH   1   4
BRANCH   1  18
ATOM     18  N   UNL     1       4.013   5.377  17.313  0.00  0.00    +0.000 NA
ATOM     19  H   UNL     1       3.668   4.621  16.718  0.00  0.00    +0.000 HD
BRANCH  18  20
ATOM     20  C   UNL     1       5.516   5.565  17.189  0.00  0.00    +0.000 C 
ATOM     21  C   UNL     1       6.264   4.654  18.182  0.00  0.00    +0.000 C 
ATOM     22  C   UNL     1       7.755   4.964  18.298  0.00  0.00    +0.000 C 
ATOM     23  C   UNL     1       7.993   6.446  18.566  0.00  0.00    +0.000 C 
ATOM     24  C   UNL     1       7.368   7.312  17.478  0.00  0.00    +0.000 C 
ATOM     25  C   UNL     1       5.871   7.056  17.375  0.00  0.00    +0.000 C 
BRANCH  20  27
ATOM     26  O   UNL     1       6.091   5.957  14.808  0.00  0.00    +0.000 OA
ATOM     27  C   UNL     1       5.890   5.152  15.720  0.00  0.00    +0.000 C 
ATOM     28  N   UNL     1       5.984   3.801  15.478  0.00  0.00    +0.000 N 
ATOM     29  H   UNL     1       6.097   3.100  16.205  0.00  0.00    +0.000 HD
BRANCH  28  30
ATOM     30  O   UNL     1       6.323   3.412  14.158  0.00  0.00    +0.000 OA
ATOM     31  H   UNL     1       6.840   2.588  14.300  0.00  0.00    +0.000 HD
ENDBRANCH  28  30
ENDBRANCH  20  27
ENDBRANCH  18  20
ENDBRANCH   1  18
TORSDOF 7
ENDMDL
MODEL 3
REMARK VINA RESULT:      -8.5      0.565      1.423
REMARK  Name = 
REMARK  7 active torsions:
REMARK  status: ('A' for Active; 'I' for Inactive)
REMARK    1  A    between atoms: C_2  and  C_5
REMARK    2  A    between atoms: N_3  and  O_4
REMARK    3  A    between atoms: C_5  and  N_6
REMARK    4  A    between atoms: N_6  and  S_7
REMARK    5  A    between atoms: S_7  and  C_10
REMARK    6  A    between atoms: C_13  and  O_14
REMARK    7  A    between atoms: O_14  and  C_15
REMARK                            x       y       z     vdW  Elec       q    Type
REMARK                         _______ _______ _______ _____ _____    ______ ____
ROOT
ATOM      1  S   UNL     1       2.760   5.671  19.108  0.00  0.00    +0.000 S 
ATOM      2  O   UNL     1       2.097   5.024  18.009  0.00  0.00    +0.000 OA
ATOM      3  O   UNL     1       2.711   5.134  20.449  0.00  0.00    +0.000 OA
ENDROOT
BRANCH   1   4
ATOM      4  C   UNL     1       2.081   7.318  19.216  0.00  0.00    +0.000 A 
ATOM      5  C   UNL     1       2.144   8.152  18.093  0.00  0.00    +0.000 A 
ATOM      6  C   UNL     1       1.687   9.461  18.178  0.00  0.00    +0.000 A 
ATOM      7  C   UNL     1       1.137   9.932  19.368  0.00  0.00    +0.000 A 
ATOM      8  C   UNL     1       1.062   9.086  20.487  0.00  0.00    +0.000 A 
ATOM      9  C   UNL     1       1.505   7.765  20.406  0.00  0.00    +0.000 A 
BRANCH   7  10
ATOM     10  O   UNL     1       0.767  11.257  19.356  0.00  0.00    +0.000 OA
BRANCH  10  11
ATOM     11  C   UNL     1      -0.554  11.610  19.473  0.00  0.00    +0.000 A 
ATOM     12  C   UNL     1      -1.386  11.204  18.426  0.00  0.00    +0.000 A 
ATOM     13  C   UNL     1      -2.742  11.527  18.451  0.00  0.00    +0.000 A 
ATOM     14  C   UNL     1      -3.253  12.247  19.526  0.00  0.00    +0.000 A 
ATOM     15  F   UNL     1      -4.554  12.573  19.541  0.00  0.00    +0.000 F 
ATOM     16  C   UNL     1      -2.446  12.627  20.586  0.00  0.00    +0.000 A 
ATOM     17  C   UNL     1      -1.098  12.284  20.576  0.00  0.00    +0.000 A 
ENDBRANCH  10  11
ENDBRANCH   7  10
ENDBRANCH   1   4
BRANCH   1  18
ATOM     18  N   UNL     1       4.412   5.918  18.759  0.00  0.00    +0.000 NA
ATOM     19  H   UNL     1       4.601   6.899  18.546  0.00  0.00    +0.000 HD
BRANCH  18  20
ATOM     20  C   UNL     1       5.176   4.974  17.845  0.00  0.00    +0.000 C 
ATOM     21  C   UNL     1       6.695   5.191  17.984  0.00  0.00    +0.000 C 
ATOM     22  C   UNL     1       7.520   4.465  16.923  0.00  0.00    +0.000 C 
ATOM     23  C   UNL     1       7.010   4.770  15.520  0.00  0.00    +0.000 C 
ATOM     24  C   UNL     1       5.538   4.399  15.374  0.00  0.00    +0.000 C 
ATOM     25  C   UNL     1       4.687   5.148  16.390  0.00  0.00    +0.000 C 
BRANCH  20  27
ATOM     26  O   UNL     1       4.126   2.735  17.655  0.00  0.00    +0.000 OA
ATOM     27  C   UNL     1       4.812   3.519  18.313  0.00  0.00    +0.000 C 
ATOM     28  N   UNL     1       5.305   3.139  19.540  0.00  0.00    +0.000 N 
ATOM     29  H   UNL     1       6.075   3.604  20.012  0.00  0.00    +0.000 HD
BRANCH  28  30
ATOM     30  O   UNL     1       4.987   1.828  19.975  0.00  0.00    +0.000 OA
ATOM     31  H   UNL     1       4.531   1.444  19.195  0.00  0.00    +0.000 HD
ENDBRANCH  28  30
ENDBRANCH  20  27
ENDBRANCH  18  20
ENDBRANCH   1  18
TORSDOF 7
ENDMDL
MODEL 4
REMARK VINA RESULT:      -8.5      0.824      1.283
REMARK  Name = 
REMARK  7 active torsions:
REMARK  status: ('A' for Active; 'I' for Inactive)
REMARK    1  A    between atoms: C_2  and  C_5
REMARK    2  A    between atoms: N_3  and  O_4
REMARK    3  A    between atoms: C_5  and  N_6
REMARK    4  A    between atoms: N_6  and  S_7
REMARK    5  A    between atoms: S_7  and  C_10
REMARK    6  A    between atoms: C_13  and  O_14
REMARK    7  A    between atoms: O_14  and  C_15
REMARK                            x       y       z     vdW  Elec       q    Type
REMARK                         _______ _______ _______ _____ _____    ______ ____
ROOT
ATOM      1  S   UNL     1       2.858   5.687  19.104  0.00  0.00    +0.000 S 
ATOM      2  O   UNL     1       1.790   4.757  19.351  0.00  0.00    +0.000 OA
ATOM      3  O   UNL     1       4.017   5.760  19.965  0.00  0.00    +0.000 OA
ENDROOT
BRANCH   1   4
ATOM      4  C   UNL     1       2.130   7.316  19.124  0.00  0.00    +0.000 A 
ATOM      5  C   UNL     1       2.150   8.083  17.953  0.00  0.00    +0.000 A 
ATOM      6  C   UNL     1       1.654   9.380  17.968  0.00  0.00    +0.000 A 
ATOM      7  C   UNL     1       1.109   9.906  19.137  0.00  0.00    +0.000 A 
ATOM      8  C   UNL     1       1.077   9.126  20.305  0.00  0.00    +0.000 A 
ATOM      9  C   UNL     1       1.558   7.817  20.295  0.00  0.00    +0.000 A 
BRANCH   7  10
ATOM     10  O   UNL     1       0.698  11.216  19.051  0.00  0.00    +0.000 OA
BRANCH  10  11
ATOM     11  C   UNL     1      -0.637  11.530  19.106  0.00  0.00    +0.000 A 
ATOM     12  C   UNL     1      -1.037  12.290  20.208  0.00  0.00    +0.000 A 
ATOM     13  C   UNL     1      -2.377  12.648  20.355  0.00  0.00    +0.000 A 
ATOM     14  C   UNL     1      -3.300  12.246  19.396  0.00  0.00    +0.000 A 
ATOM     15  F   UNL     1      -4.593  12.575  19.547  0.00  0.00    +0.000 F 
ATOM     16  C   UNL     1      -2.911  11.521  18.281  0.00  0.00    +0.000 A 
ATOM     17  C   UNL     1      -1.571  11.184  18.118  0.00  0.00    +0.000 A 
ENDBRANCH  10  11
ENDBRANCH   7  10
ENDBRANCH   1   4
BRANCH   1  18
ATOM     18  N   UNL     1       3.457   5.512  17.517  0.00  0.00    +0.000 NA
ATOM     19  H   UNL     1       2.703   5.309  16.858  0.00  0.00    +0.000 HD
BRANCH  18  20
ATOM     20  C   UNL     1       4.707   4.696  17.229  0.00  0.00    +0.000 C 
ATOM     21  C   UNL     1       5.961   5.409  17.772  0.00  0.00    +0.000 C 
ATOM     22  C   UNL     1       7.274   4.784  17.305  0.00  0.00    +0.000 C 
ATOM     23  C   UNL     1       7.301   4.620  15.790  0.00  0.00    +0.000 C 
ATOM     24  C   UNL     1       6.127   3.778  15.304  0.00  0.00    +0.000 C 
ATOM     25  C   UNL     1       4.803   4.406  15.716  0.00  0.00    +0.000 C 
BRANCH  20  27
ATOM     26  O   UNL     1       3.789   2.419  17.582  0.00  0.00    +0.000 OA
ATOM     27  C   UNL     1       4.520   3.328  17.979  0.00  0.00    +0.000 C 
ATOM     28  N   UNL     1       5.229   3.179  19.149  0.00  0.00    +0.000 N 
ATOM     29  H   UNL     1       6.033   3.746  19.402  0.00  0.00    +0.000 HD
BRANCH  28  30
ATOM     30  O   UNL     1       5.073   1.950  19.836  0.00  0.00    +0.000 OA
ATOM     31  H   UNL     1       4.694   2.229  20.699  0.00  0.00    +0.000 HD
ENDBRANCH  28  30
ENDBRANCH  20  27
ENDBRANCH  18  20
ENDBRANCH   1  18
TORSDOF 7
ENDMDL
MODEL 5
REMARK VINA RESULT:      -8.5      2.738      3.310
REMARK  Name = 
REMARK  7 active torsions:
REMARK  status: ('A' for Active; 'I' for Inactive)
REMARK    1  A    between atoms: C_2  and  C_5
REMARK    2  A    between atoms: N_3  and  O_4
REMARK    3  A    between atoms: C_5  and  N_6
REMARK    4  A    between atoms: N_6  and  S_7
REMARK    5  A    between atoms: S_7  and  C_10
REMARK    6  A    between atoms: C_13  and  O_14
REMARK    7  A    between atoms: O_14  and  C_15
REMARK                            x       y       z     vdW  Elec       q    Type
REMARK                         _______ _______ _______ _____ _____    ______ ____
ROOT
ATOM      1  S   UNL     1       2.413   5.726  19.516  0.00  0.00    +0.000 S 
ATOM      2  O   UNL     1       1.987   5.079  18.306  0.00  0.00    +0.000 OA
ATOM      3  O   UNL     1       1.899   5.333  20.809  0.00  0.00    +0.000 OA
ENDROOT
BRANCH   1   4
ATOM      4  C   UNL     1       2.016   7.456  19.337  0.00  0.00    +0.000 A 
ATOM      5  C   UNL     1       1.482   8.147  20.431  0.00  0.00    +0.000 A 
ATOM      6  C   UNL     1       1.099   9.475  20.291  0.00  0.00    +0.000 A 
ATOM      7  C   UNL     1       1.276  10.126  19.072  0.00  0.00    +0.000 A 
ATOM      8  C   UNL     1       1.826   9.433  17.982  0.00  0.00    +0.000 A 
ATOM      9  C   UNL     1       2.228   8.104  18.118  0.00  0.00    +0.000 A 
BRANCH   7  10
ATOM     10  O   UNL     1       0.812  11.421  19.031  0.00  0.00    +0.000 OA
BRANCH  10  11
ATOM     11  C   UNL     1       1.662  12.471  19.276  0.00  0.00    +0.000 A 
ATOM     12  C   UNL     1       2.281  13.025  18.153  0.00  0.00    +0.000 A 
ATOM     13  C   UNL     1       3.171  14.088  18.304  0.00  0.00    +0.000 A 
ATOM     14  C   UNL     1       3.426  14.589  19.577  0.00  0.00    +0.000 A 
ATOM     15  F   UNL     1       4.296  15.600  19.725  0.00  0.00    +0.000 F 
ATOM     16  C   UNL     1       2.793  14.070  20.695  0.00  0.00    +0.000 A 
ATOM     17  C   UNL     1       1.886  13.027  20.544  0.00  0.00    +0.000 A 
ENDBRANCH  10  11
ENDBRANCH   7  10
ENDBRANCH   1   4
BRANCH   1  18
ATOM     18  N   UNL     1       4.113   5.694  19.654  0.00  0.00    +0.000 NA
ATOM     19  H   UNL     1       4.474   6.595  19.974  0.00  0.00    +0.000 HD
BRANCH  18  20
ATOM     20  C   UNL     1       4.983   5.078  18.571  0.00  0.00    +0.000 C 
ATOM     21  C   UNL     1       6.475   5.342  18.854  0.00  0.00    +0.000 C 
ATOM     22  C   UNL     1       7.395   4.979  17.690  0.00  0.00    +0.000 C 
ATOM     23  C   UNL     1       6.922   5.618  16.390  0.00  0.00    +0.000 C 
ATOM     24  C   UNL     1       5.490   5.211  16.063  0.00  0.00    +0.000 C 
ATOM     25  C   UNL     1       4.544   5.606  17.188  0.00  0.00    +0.000 C 
BRANCH  20  27
ATOM     26  O   UNL     1       4.095   2.916  17.741  0.00  0.00    +0.000 OA
ATOM     27  C   UNL     1       4.710   3.532  18.614  0.00  0.00    +0.000 C 
ATOM     28  N   UNL     1       5.198   2.863  19.713  0.00  0.00    +0.000 N 
ATOM     29  H   UNL     1       5.923   3.228  20.324  0.00  0.00    +0.000 HD
BRANCH  28  30
ATOM     30  O   UNL     1       4.962   1.467  19.765  0.00  0.00    +0.000 OA
ATOM     31  H   UNL     1       5.848   1.089  19.571  0.00  0.00    +0.000 HD
ENDBRANCH  28  30
ENDBRANCH  20  27
ENDBRANCH  18  20
ENDBRANCH   1  18
TORSDOF 7
ENDMDL
MODEL 6
REMARK VINA RESULT:      -8.4      2.289      3.339
REMARK  Name = 
REMARK  7 active torsions:
REMARK  status: ('A' for Active; 'I' for Inactive)
REMARK    1  A    between atoms: C_2  and  C_5
REMARK    2  A    between atoms: N_3  and  O_4
REMARK    3  A    between atoms: C_5  and  N_6
REMARK    4  A    between atoms: N_6  and  S_7
REMARK    5  A    between atoms: S_7  and  C_10
REMARK    6  A    between atoms: C_13  and  O_14
REMARK    7  A    between atoms: O_14  and  C_15
REMARK                            x       y       z     vdW  Elec       q    Type
REMARK                         _______ _______ _______ _____ _____    ______ ____
ROOT
ATOM      1  S   UNL     1       4.174   5.787  18.165  0.00  0.00    +0.000 S 
ATOM      2  O   UNL     1       5.465   6.386  17.962  0.00  0.00    +0.000 OA
ATOM      3  O   UNL     1       3.544   4.976  17.147  0.00  0.00    +0.000 OA
ENDROOT
BRANCH   1   4
ATOM      4  C   UNL     1       3.039   7.123  18.499  0.00  0.00    +0.000 A 
ATOM      5  C   UNL     1       2.885   8.137  17.545  0.00  0.00    +0.000 A 
ATOM      6  C   UNL     1       2.062   9.222  17.817  0.00  0.00    +0.000 A 
ATOM      7  C   UNL     1       1.366   9.286  19.022  0.00  0.00    +0.000 A 
ATOM      8  C   UNL     1       1.513   8.258  19.968  0.00  0.00    +0.000 A 
ATOM      9  C   UNL     1       2.325   7.157  19.697  0.00  0.00    +0.000 A 
BRANCH   7  10
ATOM     10  O   UNL     1       0.624  10.429  19.207  0.00  0.00    +0.000 OA
BRANCH  10  11
ATOM     11  C   UNL     1      -0.636  10.533  18.673  0.00  0.00    +0.000 A 
ATOM     12  C   UNL     1      -1.450  11.524  19.228  0.00  0.00    +0.000 A 
ATOM     13  C   UNL     1      -2.752  11.697  18.758  0.00  0.00    +0.000 A 
ATOM     14  C   UNL     1      -3.222  10.881  17.734  0.00  0.00    +0.000 A 
ATOM     15  F   UNL     1      -4.480  11.036  17.294  0.00  0.00    +0.000 F 
ATOM     16  C   UNL     1      -2.413   9.918  17.153  0.00  0.00    +0.000 A 
ATOM     17  C   UNL     1      -1.107   9.760  17.602  0.00  0.00    +0.000 A 
ENDBRANCH  10  11
ENDBRANCH   7  10
ENDBRANCH   1   4
BRANCH   1  18
ATOM     18  N   UNL     1       4.158   4.852  19.592  0.00  0.00    +0.000 NA
ATOM     19  H   UNL     1       5.107   4.605  19.881  0.00  0.00    +0.000 HD
BRANCH  18  20
ATOM     20  C   UNL     1       3.184   3.700  19.771  0.00  0.00    +0.000 C 
ATOM     21  C   UNL     1       2.130   3.696  18.646  0.00  0.00    +0.000 C 
ATOM     22  C   UNL     1       0.972   2.731  18.891  0.00  0.00    +0.000 C 
ATOM     23  C   UNL     1       0.358   2.941  20.269  0.00  0.00    +0.000 C 
ATOM     24  C   UNL     1       1.402   2.786  21.369  0.00  0.00    +0.000 C 
ATOM     25  C   UNL     1       2.545   3.772  21.175  0.00  0.00    +0.000 C 
BRANCH  20  27
ATOM     26  O   UNL     1       4.861   2.043  20.541  0.00  0.00    +0.000 OA
ATOM     27  C   UNL     1       4.039   2.385  19.688  0.00  0.00    +0.000 C 
ATOM     28  N   UNL     1       3.831   1.598  18.579  0.00  0.00    +0.000 N 
ATOM     29  H   UNL     1       3.010   1.662  17.983  0.00  0.00    +0.000 HD
BRANCH  28  30
ATOM     30  O   UNL     1       4.593   0.407  18.491  0.00  0.00    +0.000 OA
ATOM     31  H   UNL     1       4.238  -0.134  19.230  0.00  0.00    +0.000 HD
ENDBRANCH  28  30
ENDBRANCH  20  27
ENDBRANCH  18  20
ENDBRANCH   1  18
TORSDOF 7
ENDMDL
MODEL 7
REMARK VINA RESULT:      -8.4      2.035      2.505
REMARK  Name = 
REMARK  7 active torsions:
REMARK  status: ('A' for Active; 'I' for Inactive)
REMARK    1  A    between atoms: C_2  and  C_5
REMARK    2  A    between atoms: N_3  and  O_4
REMARK    3  A    between atoms: C_5  and  N_6
REMARK    4  A    between atoms: N_6  and  S_7
REMARK    5  A    between atoms: S_7  and  C_10
REMARK    6  A    between atoms: C_13  and  O_14
REMARK    7  A    between atoms: O_14  and  C_15
REMARK                            x       y       z     vdW  Elec       q    Type
REMARK                         _______ _______ _______ _____ _____    ______ ____
ROOT
ATOM      1  S   UNL     1       2.708   5.673  19.188  0.00  0.00    +0.000 S 
ATOM      2  O   UNL     1       2.002   5.183  18.036  0.00  0.00    +0.000 OA
ATOM      3  O   UNL     1       2.712   4.953  20.441  0.00  0.00    +0.000 OA
ENDROOT
BRANCH   1   4
ATOM      4  C   UNL     1       2.034   7.285  19.552  0.00  0.00    +0.000 A 
ATOM      5  C   UNL     1       1.587   7.556  20.851  0.00  0.00    +0.000 A 
ATOM      6  C   UNL     1       0.993   8.778  21.137  0.00  0.00    +0.000 A 
ATOM      7  C   UNL     1       0.871   9.744  20.141  0.00  0.00    +0.000 A 
ATOM      8  C   UNL     1       1.335   9.473  18.843  0.00  0.00    +0.000 A 
ATOM      9  C   UNL     1       1.947   8.254  18.551  0.00  0.00    +0.000 A 
BRANCH   7  10
ATOM     10  O   UNL     1       0.219  10.895  20.521  0.00  0.00    +0.000 OA
BRANCH  10  11
ATOM     11  C   UNL     1       0.602  12.110  20.013  0.00  0.00    +0.000 A 
ATOM     12  C   UNL     1      -0.334  12.749  19.195  0.00  0.00    +0.000 A 
ATOM     13  C   UNL     1      -0.029  13.983  18.623  0.00  0.00    +0.000 A 
ATOM     14  C   UNL     1       1.207  14.568  18.880  0.00  0.00    +0.000 A 
ATOM     15  F   UNL     1       1.508  15.747  18.315  0.00  0.00    +0.000 F 
ATOM     16  C   UNL     1       2.130  13.961  19.715  0.00  0.00    +0.000 A 
ATOM     17  C   UNL     1       1.819  12.742  20.308  0.00  0.00    +0.000 A 
ENDBRANCH  10  11
ENDBRANCH   7  10
ENDBRANCH   1   4
BRANCH   1  18
ATOM     18  N   UNL     1       4.345   5.975  18.811  0.00  0.00    +0.000 NA
ATOM     19  H   UNL     1       4.495   6.961  18.585  0.00  0.00    +0.000 HD
BRANCH  18  20
ATOM     20  C   UNL     1       5.128   5.050  17.895  0.00  0.00    +0.000 C 
ATOM     21  C   UNL     1       6.644   5.272  18.063  0.00  0.00    +0.000 C 
ATOM     22  C   UNL     1       7.490   4.567  17.004  0.00  0.00    +0.000 C 
ATOM     23  C   UNL     1       7.001   4.892  15.598  0.00  0.00    +0.000 C 
ATOM     24  C   UNL     1       5.534   4.516  15.422  0.00  0.00    +0.000 C 
ATOM     25  C   UNL     1       4.663   5.244  16.436  0.00  0.00    +0.000 C 
BRANCH  20  27
ATOM     26  O   UNL     1       4.071   2.818  17.666  0.00  0.00    +0.000 OA
ATOM     27  C   UNL     1       4.765   3.586  18.335  0.00  0.00    +0.000 C 
ATOM     28  N   UNL     1       5.268   3.177  19.549  0.00  0.00    +0.000 N 
ATOM     29  H   UNL     1       6.044   3.631  20.024  0.00  0.00    +0.000 HD
BRANCH  28  30
ATOM     30  O   UNL     1       4.951   1.859  19.958  0.00  0.00    +0.000 OA
ATOM     31  H   UNL     1       5.835   1.470  20.143  0.00  0.00    +0.000 HD
ENDBRANCH  28  30
ENDBRANCH  20  27
ENDBRANCH  18  20
ENDBRANCH   1  18
TORSDOF 7
ENDMDL
MODEL 8
REMARK VINA RESULT:      -8.4      2.697      3.458
REMARK  Name = 
REMARK  7 active torsions:
REMARK  status: ('A' for Active; 'I' for Inactive)
REMARK    1  A    between atoms: C_2  and  C_5
REMARK    2  A    between atoms: N_3  and  O_4
REMARK    3  A    between atoms: C_5  and  N_6
REMARK    4  A    between atoms: N_6  and  S_7
REMARK    5  A    between atoms: S_7  and  C_10
REMARK    6  A    between atoms: C_13  and  O_14
REMARK    7  A    between atoms: O_14  and  C_15
REMARK                            x       y       z     vdW  Elec       q    Type
REMARK                         _______ _______ _______ _____ _____    ______ ____
ROOT
ATOM      1  S   UNL     1       2.628   5.635  19.619  0.00  0.00    +0.000 S 
ATOM      2  O   UNL     1       2.127   4.858  18.518  0.00  0.00    +0.000 OA
ATOM      3  O   UNL     1       2.345   5.280  20.991  0.00  0.00    +0.000 OA
ENDROOT
BRANCH   1   4
ATOM      4  C   UNL     1       2.001   7.291  19.401  0.00  0.00    +0.000 A 
ATOM      5  C   UNL     1       2.125   7.904  18.148  0.00  0.00    +0.000 A 
ATOM      6  C   UNL     1       1.709   9.219  17.978  0.00  0.00    +0.000 A 
ATOM      7  C   UNL     1       1.142   9.915  19.043  0.00  0.00    +0.000 A 
ATOM      8  C   UNL     1       1.007   9.289  20.294  0.00  0.00    +0.000 A 
ATOM      9  C   UNL     1       1.407   7.965  20.470  0.00  0.00    +0.000 A 
BRANCH   7  10
ATOM     10  O   UNL     1       0.816  11.225  18.777  0.00  0.00    +0.000 OA
BRANCH  10  11
ATOM     11  C   UNL     1       1.658  12.240  19.157  0.00  0.00    +0.000 A 
ATOM     12  C   UNL     1       2.412  12.818  18.133  0.00  0.00    +0.000 A 
ATOM     13  C   UNL     1       3.304  13.849  18.424  0.00  0.00    +0.000 A 
ATOM     14  C   UNL     1       3.427  14.295  19.736  0.00  0.00    +0.000 A 
ATOM     15  F   UNL     1       4.299  15.275  20.019  0.00  0.00    +0.000 F 
ATOM     16  C   UNL     1       2.661  13.753  20.755  0.00  0.00    +0.000 A 
ATOM     17  C   UNL     1       1.752  12.742  20.463  0.00  0.00    +0.000 A 
ENDBRANCH  10  11
ENDBRANCH   7  10
ENDBRANCH   1   4
BRANCH   1  18
ATOM     18  N   UNL     1       4.322   5.807  19.515  0.00  0.00    +0.000 NA
ATOM     19  H   UNL     1       4.593   6.793  19.510  0.00  0.00    +0.000 HD
BRANCH  18  20
ATOM     20  C   UNL     1       5.143   4.981  18.538  0.00  0.00    +0.000 C 
ATOM     21  C   UNL     1       6.649   5.245  18.732  0.00  0.00    +0.000 C 
ATOM     22  C   UNL     1       7.524   4.652  17.630  0.00  0.00    +0.000 C 
ATOM     23  C   UNL     1       7.028   5.062  16.248  0.00  0.00    +0.000 C 
ATOM     24  C   UNL     1       5.577   4.647  16.035  0.00  0.00    +0.000 C 
ATOM     25  C   UNL     1       4.676   5.265  17.095  0.00  0.00    +0.000 C 
BRANCH  20  27
ATOM     26  O   UNL     1       5.117   2.932  19.935  0.00  0.00    +0.000 OA
ATOM     27  C   UNL     1       4.832   3.476  18.867  0.00  0.00    +0.000 C 
ATOM     28  N   UNL     1       4.210   2.757  17.873  0.00  0.00    +0.000 N 
ATOM     29  H   UNL     1       3.713   3.179  17.093  0.00  0.00    +0.000 HD
BRANCH  28  30
ATOM     30  O   UNL     1       3.921   1.399  18.155  0.00  0.00    +0.000 OA
ATOM     31  H   UNL     1       3.220   1.185  17.500  0.00  0.00    +0.000 HD
ENDBRANCH  28  30
ENDBRANCH  20  27
ENDBRANCH  18  20
ENDBRANCH   1  18
TORSDOF 7
ENDMDL
MODEL 9
REMARK VINA RESULT:      -8.4      1.612      2.084
REMARK  Name = 
REMARK  7 active torsions:
REMARK  status: ('A' for Active; 'I' for Inactive)
REMARK    1  A    between atoms: C_2  and  C_5
REMARK    2  A    between atoms: N_3  and  O_4
REMARK    3  A    between atoms: C_5  and  N_6
REMARK    4  A    between atoms: N_6  and  S_7
REMARK    5  A    between atoms: S_7  and  C_10
REMARK    6  A    between atoms: C_13  and  O_14
REMARK    7  A    between atoms: O_14  and  C_15
REMARK                            x       y       z     vdW  Elec       q    Type
REMARK                         _______ _______ _______ _____ _____    ______ ____
ROOT
ATOM      1  S   UNL     1       2.919   5.274  19.253  0.00  0.00    +0.000 S 
ATOM      2  O   UNL     1       2.477   4.665  18.028  0.00  0.00    +0.000 OA
ATOM      3  O   UNL     1       2.644   4.677  20.541  0.00  0.00    +0.000 OA
ENDROOT
BRANCH   1   4
ATOM      4  C   UNL     1       2.193   6.903  19.304  0.00  0.00    +0.000 A 
ATOM      5  C   UNL     1       2.187   7.679  18.138  0.00  0.00    +0.000 A 
ATOM      6  C   UNL     1       1.693   8.977  18.175  0.00  0.00    +0.000 A 
ATOM      7  C   UNL     1       1.176   9.493  19.361  0.00  0.00    +0.000 A 
ATOM      8  C   UNL     1       1.171   8.705  20.523  0.00  0.00    +0.000 A 
ATOM      9  C   UNL     1       1.651   7.395  20.492  0.00  0.00    +0.000 A 
BRANCH   7  10
ATOM     10  O   UNL     1       0.764  10.805  19.295  0.00  0.00    +0.000 OA
BRANCH  10  11
ATOM     11  C   UNL     1      -0.560  11.108  19.101  0.00  0.00    +0.000 A 
ATOM     12  C   UNL     1      -1.081  12.109  19.925  0.00  0.00    +0.000 A 
ATOM     13  C   UNL     1      -2.421  12.477  19.810  0.00  0.00    +0.000 A 
ATOM     14  C   UNL     1      -3.223  11.844  18.867  0.00  0.00    +0.000 A 
ATOM     15  F   UNL     1      -4.517  12.185  18.767  0.00  0.00    +0.000 F 
ATOM     16  C   UNL     1      -2.711  10.873  18.021  0.00  0.00    +0.000 A 
ATOM     17  C   UNL     1      -1.369  10.522  18.116  0.00  0.00    +0.000 A 
ENDBRANCH  10  11
ENDBRANCH   7  10
ENDBRANCH   1   4
BRANCH   1  18
ATOM     18  N   UNL     1       4.600   5.560  19.215  0.00  0.00    +0.000 NA
ATOM     19  H   UNL     1       4.838   6.426  19.705  0.00  0.00    +0.000 HD
BRANCH  18  20
ATOM     20  C   UNL     1       5.403   5.385  17.937  0.00  0.00    +0.000 C 
ATOM     21  C   UNL     1       5.016   6.455  16.898  0.00  0.00    +0.000 C 
ATOM     22  C   UNL     1       5.589   6.197  15.506  0.00  0.00    +0.000 C 
ATOM     23  C   UNL     1       5.280   4.781  15.034  0.00  0.00    +0.000 C 
ATOM     24  C   UNL     1       5.814   3.743  16.013  0.00  0.00    +0.000 C 
ATOM     25  C   UNL     1       5.220   3.949  17.399  0.00  0.00    +0.000 C 
BRANCH  20  27
ATOM     26  O   UNL     1       7.782   5.984  17.569  0.00  0.00    +0.000 OA
ATOM     27  C   UNL     1       6.912   5.569  18.337  0.00  0.00    +0.000 C 
ATOM     28  N   UNL     1       7.239   5.232  19.630  0.00  0.00    +0.000 N 
ATOM     29  H   UNL     1       6.563   5.142  20.382  0.00  0.00    +0.000 HD
BRANCH  28  30
ATOM     30  O   UNL     1       8.595   5.395  20.006  0.00  0.00    +0.000 OA
ATOM     31  H   UNL     1       8.924   4.469  20.041  0.00  0.00    +0.000 HD
ENDBRANCH  28  30
ENDBRANCH  20  27
ENDBRANCH  18  20
ENDBRANCH   1  18
TORSDOF 7
ENDMDL
