MODEL 1
REMARK VINA RESULT:      -7.6      0.000      0.000
REMARK  Name = 
REMARK  5 active torsions:
REMARK  status: ('A' for Active; 'I' for Inactive)
REMARK    1  A    between atoms: C_1  and  O_2
REMARK    2  A    between atoms: O_2  and  C_3
REMARK    3  A    between atoms: C_3  and  C_5
REMARK    4  A    between atoms: N_11  and  C_12
REMARK    5  A    between atoms: N_16  and  C_17
REMARK                            x       y       z     vdW  Elec       q    Type
REMARK                         _______ _______ _______ _____ _____    ______ ____
ROOT
ATOM      1  C   UNL     1       0.922  10.619  18.553  0.00  0.00    +0.000 C 
ATOM      2  C   UNL     1       1.794  11.724  19.136  0.00  0.00    +0.000 C 
ATOM      3  C   UNL     1       1.034  12.160  20.363  0.00  0.00    +0.000 C 
ATOM      4  O   UNL     1       1.541  12.839  21.242  0.00  0.00    +0.000 OA
ATOM      5  N   UNL     1      -0.290  11.726  20.227  0.00  0.00    +0.000 N 
ATOM      6  C   UNL     1      -0.485  11.071  18.953  0.00  0.00    +0.000 C 
ENDROOT
BRANCH   1  13
ATOM      7  C   UNL     1       1.840   4.371  19.377  0.00  0.00    +0.000 C 
ATOM      8  C   UNL     1       2.238   4.927  18.002  0.00  0.00    +0.000 C 
ATOM      9  C   UNL     1       3.031   6.225  18.120  0.00  0.00    +0.000 C 
ATOM     10  N   UNL     1       2.303   7.210  18.922  0.00  0.00    +0.000 N 
ATOM     11  C   UNL     1       2.040   8.440  18.355  0.00  0.00    +0.000 C 
ATOM     12  O   UNL     1       2.417   8.752  17.228  0.00  0.00    +0.000 OA
ATOM     13  N   UNL     1       1.277   9.304  19.104  0.00  0.00    +0.000 N 
ATOM     14  C   UNL     1       1.923   6.750  20.258  0.00  0.00    +0.000 C 
ATOM     15  C   UNL     1       1.105   5.460  20.176  0.00  0.00    +0.000 C 
ATOM     16  H   UNL     1       1.433   9.263  20.096  0.00  0.00    +0.000 HD
BRANCH   7  17
ATOM     17  C   UNL     1       3.008   3.824  20.189  0.00  0.00    +0.000 C 
ATOM     18  O   UNL     1       4.116   3.592  19.720  0.00  0.00    +0.000 OA
BRANCH  17  20
ATOM     19  C   UNL     1       2.017   2.451  21.807  0.00  0.00    +0.000 C 
ATOM     20  O   UNL     1       2.688   3.677  21.502  0.00  0.00    +0.000 OA
ENDBRANCH  17  20
ENDBRANCH   7  17
ENDBRANCH   1  13
BRANCH   5  21
ATOM     21  C   UNL     1      -1.346  11.961  21.139  0.00  0.00    +0.000 A 
ATOM     22  C   UNL     1      -1.294  11.452  22.445  0.00  0.00    +0.000 A 
ATOM     23  C   UNL     1      -2.323  11.691  23.357  0.00  0.00    +0.000 A 
ATOM     24  C   UNL     1      -3.432  12.428  22.970  0.00  0.00    +0.000 A 
ATOM     25  C   UNL     1      -3.507  12.938  21.670  0.00  0.00    +0.000 A 
ATOM     26  C   UNL     1      -2.476  12.698  20.759  0.00  0.00    +0.000 A 
ATOM     27  O   UNL     1      -4.570  13.677  21.215  0.00  0.00    +0.000 OA
ATOM     28  C   UNL     1      -5.380  14.150  22.295  0.00  0.00    +0.000 C 
ATOM     29  C   UNL     1      -5.627  13.053  23.318  0.00  0.00    +0.000 C 
ATOM     30  O   UNL     1      -4.402  12.619  23.914  0.00  0.00    +0.000 OA
ENDBRANCH   5  21
TORSDOF 4
ENDMDL
MODEL 2
REMARK VINA RESULT:      -7.5      3.845     10.780
REMARK  Name = 
REMARK  5 active torsions:
REMARK  status: ('A' for Active; 'I' for Inactive)
REMARK    1  A    between atoms: C_1  and  O_2
REMARK    2  A    between atoms: O_2  and  C_3
REMARK    3  A    between atoms: C_3  and  C_5
REMARK    4  A    between atoms: N_11  and  C_12
REMARK    5  A    between atoms: N_16  and  C_17
REMARK                            x       y       z     vdW  Elec       q    Type
REMARK                         _______ _______ _______ _____ _____    ______ ____
ROOT
ATOM      1  C   UNL     1       2.643   4.679  18.817  0.00  0.00    +0.000 C 
ATOM      2  C   UNL     1       3.790   4.243  19.719  0.00  0.00    +0.000 C 
ATOM      3  C   UNL     1       5.008   4.427  18.851  0.00  0.00    +0.000 C 
ATOM      4  O   UNL     1       6.142   4.439  19.305  0.00  0.00    +0.000 OA
ATOM      5  N   UNL     1       4.585   4.480  17.518  0.00  0.00    +0.000 N 
ATOM      6  C   UNL     1       3.155   4.285  17.428  0.00  0.00    +0.000 C 
ENDROOT
BRANCH   1  13
ATOM      7  C   UNL     1      -0.065  10.328  19.961  0.00  0.00    +0.000 C 
ATOM      8  C   UNL     1      -0.259   9.264  21.051  0.00  0.00    +0.000 C 
ATOM      9  C   UNL     1       1.041   8.533  21.371  0.00  0.00    +0.000 C 
ATOM     10  N   UNL     1       1.639   7.975  20.157  0.00  0.00    +0.000 N 
ATOM     11  C   UNL     1       1.900   6.620  20.127  0.00  0.00    +0.000 C 
ATOM     12  O   UNL     1       1.686   5.876  21.081  0.00  0.00    +0.000 OA
ATOM     13  N   UNL     1       2.376   6.118  18.939  0.00  0.00    +0.000 N 
ATOM     14  C   UNL     1       1.878   8.947  19.090  0.00  0.00    +0.000 C 
ATOM     15  C   UNL     1       0.588   9.684  18.726  0.00  0.00    +0.000 C 
ATOM     16  H   UNL     1       2.990   6.731  18.430  0.00  0.00    +0.000 HD
BRANCH   7  17
ATOM     17  C   UNL     1       0.746  11.539  20.410  0.00  0.00    +0.000 C 
ATOM     18  O   UNL     1       1.044  11.766  21.576  0.00  0.00    +0.000 OA
BRANCH  17  20
ATOM     19  C   UNL     1       0.232  13.356  19.025  0.00  0.00    +0.000 C 
ATOM     20  O   UNL     1       1.142  12.303  19.357  0.00  0.00    +0.000 OA
ENDBRANCH  17  20
ENDBRANCH   7  17
ENDBRANCH   1  13
BRANCH   5  21
ATOM     21  C   UNL     1       5.415   4.604  16.379  0.00  0.00    +0.000 A 
ATOM     22  C   UNL     1       6.583   5.379  16.423  0.00  0.00    +0.000 A 
ATOM     23  C   UNL     1       7.417   5.495  15.310  0.00  0.00    +0.000 A 
ATOM     24  C   UNL     1       7.084   4.853  14.127  0.00  0.00    +0.000 A 
ATOM     25  C   UNL     1       5.921   4.082  14.060  0.00  0.00    +0.000 A 
ATOM     26  C   UNL     1       5.087   3.965  15.175  0.00  0.00    +0.000 A 
ATOM     27  O   UNL     1       5.527   3.415  12.926  0.00  0.00    +0.000 OA
ATOM     28  C   UNL     1       6.596   3.312  11.981  0.00  0.00    +0.000 C 
ATOM     29  C   UNL     1       7.335   4.634  11.842  0.00  0.00    +0.000 C 
ATOM     30  O   UNL     1       7.945   5.015  13.078  0.00  0.00    +0.000 OA
ENDBRANCH   5  21
TORSDOF 4
ENDMDL
MODEL 3
REMARK VINA RESULT:      -7.1      3.433      9.696
REMARK  Name = 
REMARK  5 active torsions:
REMARK  status: ('A' for Active; 'I' for Inactive)
REMARK    1  A    between atoms: C_1  and  O_2
REMARK    2  A    between atoms: O_2  and  C_3
REMARK    3  A    between atoms: C_3  and  C_5
REMARK    4  A    between atoms: N_11  and  C_12
REMARK    5  A    between atoms: N_16  and  C_17
REMARK                            x       y       z     vdW  Elec       q    Type
REMARK                         _______ _______ _______ _____ _____    ______ ____
ROOT
ATOM      1  C   UNL     1       0.293  10.971  18.926  0.00  0.00    +0.000 C 
ATOM      2  C   UNL     1      -0.091  10.405  20.287  0.00  0.00    +0.000 C 
ATOM      3  C   UNL     1       0.863   9.253  20.469  0.00  0.00    +0.000 C 
ATOM      4  O   UNL     1       1.048   8.718  21.552  0.00  0.00    +0.000 OA
ATOM      5  N   UNL     1       1.369   8.908  19.211  0.00  0.00    +0.000 N 
ATOM      6  C   UNL     1       0.769   9.723  18.178  0.00  0.00    +0.000 C 
ENDROOT
BRANCH   1  13
ATOM      7  C   UNL     1       4.033  16.036  17.970  0.00  0.00    +0.000 C 
ATOM      8  C   UNL     1       2.527  16.276  17.784  0.00  0.00    +0.000 C 
ATOM      9  C   UNL     1       1.709  15.655  18.912  0.00  0.00    +0.000 C 
ATOM     10  N   UNL     1       2.025  14.234  19.066  0.00  0.00    +0.000 N 
ATOM     11  C   UNL     1       0.988  13.327  18.985  0.00  0.00    +0.000 C 
ATOM     12  O   UNL     1      -0.183  13.662  18.825  0.00  0.00    +0.000 OA
ATOM     13  N   UNL     1       1.336  11.999  19.044  0.00  0.00    +0.000 N 
ATOM     14  C   UNL     1       3.443  13.942  19.278  0.00  0.00    +0.000 C 
ATOM     15  C   UNL     1       4.293  14.531  18.151  0.00  0.00    +0.000 C 
ATOM     16  H   UNL     1       2.108  11.784  19.652  0.00  0.00    +0.000 HD
BRANCH   7  17
ATOM     17  C   UNL     1       4.650  16.817  19.125  0.00  0.00    +0.000 C 
ATOM     18  O   UNL     1       4.080  17.728  19.714  0.00  0.00    +0.000 OA
BRANCH  17  20
ATOM     19  C   UNL     1       6.963  17.154  18.983  0.00  0.00    +0.000 C 
ATOM     20  O   UNL     1       5.881  16.346  19.456  0.00  0.00    +0.000 OA
ENDBRANCH  17  20
ENDBRANCH   7  17
ENDBRANCH   1  13
BRANCH   5  21
ATOM     21  C   UNL     1       2.267   7.851  18.929  0.00  0.00    +0.000 A 
ATOM     22  C   UNL     1       2.363   6.744  19.785  0.00  0.00    +0.000 A 
ATOM     23  C   UNL     1       3.234   5.689  19.508  0.00  0.00    +0.000 A 
ATOM     24  C   UNL     1       4.039   5.735  18.379  0.00  0.00    +0.000 A 
ATOM     25  C   UNL     1       3.963   6.833  17.518  0.00  0.00    +0.000 A 
ATOM     26  C   UNL     1       3.091   7.888  17.795  0.00  0.00    +0.000 A 
ATOM     27  O   UNL     1       4.724   6.948  16.381  0.00  0.00    +0.000 OA
ATOM     28  C   UNL     1       5.306   5.696  16.011  0.00  0.00    +0.000 C 
ATOM     29  C   UNL     1       5.888   4.981  17.221  0.00  0.00    +0.000 C 
ATOM     30  O   UNL     1       4.869   4.669  18.174  0.00  0.00    +0.000 OA
ENDBRANCH   5  21
TORSDOF 4
ENDMDL
MODEL 4
REMARK VINA RESULT:      -7.1      1.016      1.042
REMARK  Name = 
REMARK  5 active torsions:
REMARK  status: ('A' for Active; 'I' for Inactive)
REMARK    1  A    between atoms: C_1  and  O_2
REMARK    2  A    between atoms: O_2  and  C_3
REMARK    3  A    between atoms: C_3  and  C_5
REMARK    4  A    between atoms: N_11  and  C_12
REMARK    5  A    between atoms: N_16  and  C_17
REMARK                            x       y       z     vdW  Elec       q    Type
REMARK                         _______ _______ _______ _____ _____    ______ ____
ROOT
ATOM      1  C   UNL     1       1.018  10.140  18.085  0.00  0.00    +0.000 C 
ATOM      2  C   UNL     1       1.917  11.311  18.460  0.00  0.00    +0.000 C 
ATOM      3  C   UNL     1       1.352  11.780  19.776  0.00  0.00    +0.000 C 
ATOM      4  O   UNL     1       1.964  12.527  20.524  0.00  0.00    +0.000 OA
ATOM      5  N   UNL     1       0.049  11.283  19.888  0.00  0.00    +0.000 N 
ATOM      6  C   UNL     1      -0.324  10.552  18.697  0.00  0.00    +0.000 C 
ENDROOT
BRANCH   1  13
ATOM      7  C   UNL     1       2.804   4.071  18.817  0.00  0.00    +0.000 C 
ATOM      8  C   UNL     1       3.210   4.729  17.490  0.00  0.00    +0.000 C 
ATOM      9  C   UNL     1       3.788   6.125  17.700  0.00  0.00    +0.000 C 
ATOM     10  N   UNL     1       2.867   6.962  18.470  0.00  0.00    +0.000 N 
ATOM     11  C   UNL     1       2.461   8.159  17.916  0.00  0.00    +0.000 C 
ATOM     12  O   UNL     1       2.865   8.564  16.829  0.00  0.00    +0.000 OA
ATOM     13  N   UNL     1       1.527   8.873  18.627  0.00  0.00    +0.000 N 
ATOM     14  C   UNL     1       2.467   6.403  19.762  0.00  0.00    +0.000 C 
ATOM     15  C   UNL     1       1.860   5.010  19.587  0.00  0.00    +0.000 C 
ATOM     16  H   UNL     1       1.618   8.820  19.628  0.00  0.00    +0.000 HD
BRANCH   7  17
ATOM     17  C   UNL     1       3.982   3.674  19.701  0.00  0.00    +0.000 C 
ATOM     18  O   UNL     1       5.106   4.149  19.593  0.00  0.00    +0.000 OA
BRANCH  17  20
ATOM     19  C   UNL     1       4.563   1.714  20.842  0.00  0.00    +0.000 C 
ATOM     20  O   UNL     1       3.621   2.774  20.653  0.00  0.00    +0.000 OA
ENDBRANCH  17  20
ENDBRANCH   7  17
ENDBRANCH   1  13
BRANCH   5  21
ATOM     21  C   UNL     1      -0.851  11.522  20.955  0.00  0.00    +0.000 A 
ATOM     22  C   UNL     1      -0.683  10.882  22.191  0.00  0.00    +0.000 A 
ATOM     23  C   UNL     1      -1.556  11.123  23.254  0.00  0.00    +0.000 A 
ATOM     24  C   UNL     1      -2.623  11.993  23.090  0.00  0.00    +0.000 A 
ATOM     25  C   UNL     1      -2.811  12.635  21.862  0.00  0.00    +0.000 A 
ATOM     26  C   UNL     1      -1.937  12.394  20.799  0.00  0.00    +0.000 A 
ATOM     27  O   UNL     1      -3.841  13.511  21.624  0.00  0.00    +0.000 OA
ATOM     28  C   UNL     1      -4.450  13.946  22.843  0.00  0.00    +0.000 C 
ATOM     29  C   UNL     1      -4.676  12.780  23.791  0.00  0.00    +0.000 C 
ATOM     30  O   UNL     1      -3.437  12.177  24.172  0.00  0.00    +0.000 OA
ENDBRANCH   5  21
TORSDOF 4
ENDMDL
MODEL 5
REMARK VINA RESULT:      -7.1      3.312      9.674
REMARK  Name = 
REMARK  5 active torsions:
REMARK  status: ('A' for Active; 'I' for Inactive)
REMARK    1  A    between atoms: C_1  and  O_2
REMARK    2  A    between atoms: O_2  and  C_3
REMARK    3  A    between atoms: C_3  and  C_5
REMARK    4  A    between atoms: N_11  and  C_12
REMARK    5  A    between atoms: N_16  and  C_17
REMARK                            x       y       z     vdW  Elec       q    Type
REMARK                         _______ _______ _______ _____ _____    ______ ____
ROOT
ATOM      1  C   UNL     1       0.240  10.946  19.323  0.00  0.00    +0.000 C 
ATOM      2  C   UNL     1       0.045  10.304  20.690  0.00  0.00    +0.000 C 
ATOM      3  C   UNL     1       1.031   9.163  20.686  0.00  0.00    +0.000 C 
ATOM      4  O   UNL     1       1.363   8.578  21.705  0.00  0.00    +0.000 OA
ATOM      5  N   UNL     1       1.373   8.894  19.356  0.00  0.00    +0.000 N 
ATOM      6  C   UNL     1       0.631   9.748  18.454  0.00  0.00    +0.000 C 
ENDROOT
BRANCH   1  13
ATOM      7  C   UNL     1       3.838  16.047  18.065  0.00  0.00    +0.000 C 
ATOM      8  C   UNL     1       2.321  16.266  17.981  0.00  0.00    +0.000 C 
ATOM      9  C   UNL     1       1.589  15.647  19.168  0.00  0.00    +0.000 C 
ATOM     10  N   UNL     1       1.934  14.232  19.313  0.00  0.00    +0.000 N 
ATOM     11  C   UNL     1       0.906  13.310  19.312  0.00  0.00    +0.000 C 
ATOM     12  O   UNL     1      -0.278  13.629  19.230  0.00  0.00    +0.000 OA
ATOM     13  N   UNL     1       1.275  11.988  19.359  0.00  0.00    +0.000 N 
ATOM     14  C   UNL     1       3.367  13.960  19.430  0.00  0.00    +0.000 C 
ATOM     15  C   UNL     1       4.130  14.548  18.242  0.00  0.00    +0.000 C 
ATOM     16  H   UNL     1       2.089  11.789  19.915  0.00  0.00    +0.000 HD
BRANCH   7  17
ATOM     17  C   UNL     1       4.522  16.848  19.168  0.00  0.00    +0.000 C 
ATOM     18  O   UNL     1       3.994  17.781  19.761  0.00  0.00    +0.000 OA
BRANCH  17  20
ATOM     19  C   UNL     1       6.826  17.103  18.833  0.00  0.00    +0.000 C 
ATOM     20  O   UNL     1       5.763  16.368  19.448  0.00  0.00    +0.000 OA
ENDBRANCH  17  20
ENDBRANCH   7  17
ENDBRANCH   1  13
BRANCH   5  21
ATOM     21  C   UNL     1       2.241   7.871  18.904  0.00  0.00    +0.000 A 
ATOM     22  C   UNL     1       3.078   8.077  17.798  0.00  0.00    +0.000 A 
ATOM     23  C   UNL     1       3.949   7.081  17.355  0.00  0.00    +0.000 A 
ATOM     24  C   UNL     1       3.982   5.854  17.999  0.00  0.00    +0.000 A 
ATOM     25  C   UNL     1       3.149   5.626  19.099  0.00  0.00    +0.000 A 
ATOM     26  C   UNL     1       2.279   6.624  19.543  0.00  0.00    +0.000 A 
ATOM     27  O   UNL     1       3.127   4.440  19.790  0.00  0.00    +0.000 OA
ATOM     28  C   UNL     1       4.271   3.636  19.487  0.00  0.00    +0.000 C 
ATOM     29  C   UNL     1       4.549   3.616  17.992  0.00  0.00    +0.000 C 
ATOM     30  O   UNL     1       4.856   4.925  17.508  0.00  0.00    +0.000 OA
ENDBRANCH   5  21
TORSDOF 4
ENDMDL
MODEL 6
REMARK VINA RESULT:      -7.0      2.164      2.875
REMARK  Name = 
REMARK  5 active torsions:
REMARK  status: ('A' for Active; 'I' for Inactive)
REMARK    1  A    between atoms: C_1  and  O_2
REMARK    2  A    between atoms: O_2  and  C_3
REMARK    3  A    between atoms: C_3  and  C_5
REMARK    4  A    between atoms: N_11  and  C_12
REMARK    5  A    between atoms: N_16  and  C_17
REMARK                            x       y       z     vdW  Elec       q    Type
REMARK                         _______ _______ _______ _____ _____    ______ ____
ROOT
ATOM      1  C   UNL     1       1.687  10.122  18.631  0.00  0.00    +0.000 C 
ATOM      2  C   UNL     1       1.611  11.218  19.685  0.00  0.00    +0.000 C 
ATOM      3  C   UNL     1       0.130  11.397  19.899  0.00  0.00    +0.000 C 
ATOM      4  O   UNL     1      -0.326  11.996  20.861  0.00  0.00    +0.000 OA
ATOM      5  N   UNL     1      -0.535  10.851  18.796  0.00  0.00    +0.000 N 
ATOM      6  C   UNL     1       0.412  10.364  17.817  0.00  0.00    +0.000 C 
ENDROOT
BRANCH   1  13
ATOM      7  C   UNL     1       1.284   3.854  19.683  0.00  0.00    +0.000 C 
ATOM      8  C   UNL     1       1.901   4.265  18.338  0.00  0.00    +0.000 C 
ATOM      9  C   UNL     1       2.920   5.388  18.499  0.00  0.00    +0.000 C 
ATOM     10  N   UNL     1       2.334   6.528  19.206  0.00  0.00    +0.000 N 
ATOM     11  C   UNL     1       2.368   7.762  18.588  0.00  0.00    +0.000 C 
ATOM     12  O   UNL     1       2.895   7.948  17.494  0.00  0.00    +0.000 OA
ATOM     13  N   UNL     1       1.728   8.787  19.243  0.00  0.00    +0.000 N 
ATOM     14  C   UNL     1       1.757   6.206  20.511  0.00  0.00    +0.000 C 
ATOM     15  C   UNL     1       0.711   5.097  20.385  0.00  0.00    +0.000 C 
ATOM     16  H   UNL     1       1.786   8.757  20.246  0.00  0.00    +0.000 HD
BRANCH   7  17
ATOM     17  C   UNL     1       2.247   3.125  20.613  0.00  0.00    +0.000 C 
ATOM     18  O   UNL     1       2.270   3.279  21.829  0.00  0.00    +0.000 OA
BRANCH  17  20
ATOM     19  C   UNL     1       4.424   2.329  20.281  0.00  0.00    +0.000 C 
ATOM     20  O   UNL     1       3.037   2.248  19.940  0.00  0.00    +0.000 OA
ENDBRANCH  17  20
ENDBRANCH   7  17
ENDBRANCH   1  13
BRANCH   5  21
ATOM     21  C   UNL     1      -1.933  10.845  18.578  0.00  0.00    +0.000 A 
ATOM     22  C   UNL     1      -2.535   9.845  17.801  0.00  0.00    +0.000 A 
ATOM     23  C   UNL     1      -3.915   9.821  17.594  0.00  0.00    +0.000 A 
ATOM     24  C   UNL     1      -4.714  10.811  18.145  0.00  0.00    +0.000 A 
ATOM     25  C   UNL     1      -4.133  11.822  18.917  0.00  0.00    +0.000 A 
ATOM     26  C   UNL     1      -2.752  11.844  19.125  0.00  0.00    +0.000 A 
ATOM     27  O   UNL     1      -4.858  12.833  19.498  0.00  0.00    +0.000 OA
ATOM     28  C   UNL     1      -6.255  12.529  19.520  0.00  0.00    +0.000 C 
ATOM     29  C   UNL     1      -6.716  11.961  18.187  0.00  0.00    +0.000 C 
ATOM     30  O   UNL     1      -6.055  10.726  17.897  0.00  0.00    +0.000 OA
ENDBRANCH   5  21
TORSDOF 4
ENDMDL
MODEL 7
REMARK VINA RESULT:      -7.0      0.836      1.604
REMARK  Name = 
REMARK  5 active torsions:
REMARK  status: ('A' for Active; 'I' for Inactive)
REMARK    1  A    between atoms: C_1  and  O_2
REMARK    2  A    between atoms: O_2  and  C_3
REMARK    3  A    between atoms: C_3  and  C_5
REMARK    4  A    between atoms: N_11  and  C_12
REMARK    5  A    between atoms: N_16  and  C_17
REMARK                            x       y       z     vdW  Elec       q    Type
REMARK                         _______ _______ _______ _____ _____    ______ ____
ROOT
ATOM      1  C   UNL     1       1.206  10.582  18.446  0.00  0.00    +0.000 C 
ATOM      2  C   UNL     1       1.966  11.702  19.143  0.00  0.00    +0.000 C 
ATOM      3  C   UNL     1       0.984  12.208  20.168  0.00  0.00    +0.000 C 
ATOM      4  O   UNL     1       1.318  12.923  21.101  0.00  0.00    +0.000 OA
ATOM      5  N   UNL     1      -0.294  11.786  19.786  0.00  0.00    +0.000 N 
ATOM      6  C   UNL     1      -0.243  11.072  18.530  0.00  0.00    +0.000 C 
ENDROOT
BRANCH   1  13
ATOM      7  C   UNL     1       1.498   4.368  19.806  0.00  0.00    +0.000 C 
ATOM      8  C   UNL     1       2.009   4.769  18.415  0.00  0.00    +0.000 C 
ATOM      9  C   UNL     1       2.914   5.997  18.474  0.00  0.00    +0.000 C 
ATOM     10  N   UNL     1       2.245   7.106  19.156  0.00  0.00    +0.000 N 
ATOM     11  C   UNL     1       2.123   8.304  18.480  0.00  0.00    +0.000 C 
ATOM     12  O   UNL     1       2.580   8.486  17.354  0.00  0.00    +0.000 OA
ATOM     13  N   UNL     1       1.411   9.291  19.117  0.00  0.00    +0.000 N 
ATOM     14  C   UNL     1       1.761   6.795  20.501  0.00  0.00    +0.000 C 
ATOM     15  C   UNL     1       0.832   5.581  20.477  0.00  0.00    +0.000 C 
ATOM     16  H   UNL     1       1.516   9.319  20.117  0.00  0.00    +0.000 HD
BRANCH   7  17
ATOM     17  C   UNL     1       2.572   3.788  20.721  0.00  0.00    +0.000 C 
ATOM     18  O   UNL     1       2.398   3.549  21.910  0.00  0.00    +0.000 OA
BRANCH  17  20
ATOM     19  C   UNL     1       4.293   2.245  20.351  0.00  0.00    +0.000 C 
ATOM     20  O   UNL     1       3.722   3.521  20.048  0.00  0.00    +0.000 OA
ENDBRANCH  17  20
ENDBRANCH   7  17
ENDBRANCH   1  13
BRANCH   5  21
ATOM     21  C   UNL     1      -1.508  12.080  20.452  0.00  0.00    +0.000 A 
ATOM     22  C   UNL     1      -2.674  12.364  19.727  0.00  0.00    +0.000 A 
ATOM     23  C   UNL     1      -3.880  12.640  20.374  0.00  0.00    +0.000 A 
ATOM     24  C   UNL     1      -3.933  12.656  21.760  0.00  0.00    +0.000 A 
ATOM     25  C   UNL     1      -2.780  12.383  22.501  0.00  0.00    +0.000 A 
ATOM     26  C   UNL     1      -1.574  12.106  21.853  0.00  0.00    +0.000 A 
ATOM     27  O   UNL     1      -2.754  12.377  23.874  0.00  0.00    +0.000 OA
ATOM     28  C   UNL     1      -4.074  12.324  24.422  0.00  0.00    +0.000 C 
ATOM     29  C   UNL     1      -5.007  13.287  23.704  0.00  0.00    +0.000 C 
ATOM     30  O   UNL     1      -5.145  12.937  22.324  0.00  0.00    +0.000 OA
ENDBRANCH   5  21
TORSDOF 4
ENDMDL
MODEL 8
REMARK VINA RESULT:      -7.0      3.218      9.610
REMARK  Name = 
REMARK  5 active torsions:
REMARK  status: ('A' for Active; 'I' for Inactive)
REMARK    1  A    between atoms: C_1  and  O_2
REMARK    2  A    between atoms: O_2  and  C_3
REMARK    3  A    between atoms: C_3  and  C_5
REMARK    4  A    between atoms: N_11  and  C_12
REMARK    5  A    between atoms: N_16  and  C_17
REMARK                            x       y       z     vdW  Elec       q    Type
REMARK                         _______ _______ _______ _____ _____    ______ ____
ROOT
ATOM      1  C   UNL     1      -0.689  11.217  20.830  0.00  0.00    +0.000 C 
ATOM      2  C   UNL     1      -0.287  10.610  22.168  0.00  0.00    +0.000 C 
ATOM      3  C   UNL     1       0.811   9.646  21.800  0.00  0.00    +0.000 C 
ATOM      4  O   UNL     1       1.569   9.166  22.629  0.00  0.00    +0.000 OA
ATOM      5  N   UNL     1       0.710   9.379  20.430  0.00  0.00    +0.000 N 
ATOM      6  C   UNL     1      -0.429  10.062  19.859  0.00  0.00    +0.000 C 
ENDROOT
BRANCH   1  13
ATOM      7  C   UNL     1       1.485  16.627  18.270  0.00  0.00    +0.000 C 
ATOM      8  C   UNL     1      -0.028  16.573  18.525  0.00  0.00    +0.000 C 
ATOM      9  C   UNL     1      -0.352  16.010  19.906  0.00  0.00    +0.000 C 
ATOM     10  N   UNL     1       0.286  14.708  20.102  0.00  0.00    +0.000 N 
ATOM     11  C   UNL     1      -0.517  13.635  20.433  0.00  0.00    +0.000 C 
ATOM     12  O   UNL     1      -1.730  13.735  20.602  0.00  0.00    +0.000 OA
ATOM     13  N   UNL     1       0.105  12.413  20.519  0.00  0.00    +0.000 N 
ATOM     14  C   UNL     1       1.735  14.701  19.903  0.00  0.00    +0.000 C 
ATOM     15  C   UNL     1       2.097  15.238  18.518  0.00  0.00    +0.000 C 
ATOM     16  H   UNL     1       1.042  12.434  20.884  0.00  0.00    +0.000 HD
BRANCH   7  17
ATOM     17  C   UNL     1       2.219  17.677  19.097  0.00  0.00    +0.000 C 
ATOM     18  O   UNL     1       1.667  18.630  19.635  0.00  0.00    +0.000 OA
BRANCH  17  20
ATOM     19  C   UNL     1       4.084  17.642  20.512  0.00  0.00    +0.000 C 
ATOM     20  O   UNL     1       3.545  17.399  19.210  0.00  0.00    +0.000 OA
ENDBRANCH  17  20
ENDBRANCH   7  17
ENDBRANCH   1  13
BRANCH   5  21
ATOM     21  C   UNL     1       1.525   8.492  19.686  0.00  0.00    +0.000 A 
ATOM     22  C   UNL     1       1.964   8.831  18.398  0.00  0.00    +0.000 A 
ATOM     23  C   UNL     1       2.781   7.970  17.663  0.00  0.00    +0.000 A 
ATOM     24  C   UNL     1       3.155   6.747  18.198  0.00  0.00    +0.000 A 
ATOM     25  C   UNL     1       2.721   6.387  19.477  0.00  0.00    +0.000 A 
ATOM     26  C   UNL     1       1.905   7.249  20.213  0.00  0.00    +0.000 A 
ATOM     27  O   UNL     1       3.052   5.196  20.074  0.00  0.00    +0.000 OA
ATOM     28  C   UNL     1       4.145   4.561  19.405  0.00  0.00    +0.000 C 
ATOM     29  C   UNL     1       3.967   4.607  17.896  0.00  0.00    +0.000 C 
ATOM     30  O   UNL     1       3.952   5.955  17.420  0.00  0.00    +0.000 OA
ENDBRANCH   5  21
TORSDOF 4
ENDMDL
MODEL 9
REMARK VINA RESULT:      -6.9      3.249      9.276
REMARK  Name = 
REMARK  5 active torsions:
REMARK  status: ('A' for Active; 'I' for Inactive)
REMARK    1  A    between atoms: C_1  and  O_2
REMARK    2  A    between atoms: O_2  and  C_3
REMARK    3  A    between atoms: C_3  and  C_5
REMARK    4  A    between atoms: N_11  and  C_12
REMARK    5  A    between atoms: N_16  and  C_17
REMARK                            x       y       z     vdW  Elec       q    Type
REMARK                         _______ _______ _______ _____ _____    ______ ____
ROOT
ATOM      1  C   UNL     1       0.006  11.508  20.348  0.00  0.00    +0.000 C 
ATOM      2  C   UNL     1       0.055  11.039  21.796  0.00  0.00    +0.000 C 
ATOM      3  C   UNL     1       0.890   9.786  21.732  0.00  0.00    +0.000 C 
ATOM      4  O   UNL     1       1.378   9.271  22.725  0.00  0.00    +0.000 OA
ATOM      5  N   UNL     1       0.897   9.340  20.405  0.00  0.00    +0.000 N 
ATOM      6  C   UNL     1       0.067  10.186  19.577  0.00  0.00    +0.000 C 
ENDROOT
BRANCH   1  13
ATOM      7  C   UNL     1       3.661  16.108  17.892  0.00  0.00    +0.000 C 
ATOM      8  C   UNL     1       2.232  16.524  18.271  0.00  0.00    +0.000 C 
ATOM      9  C   UNL     1       1.830  15.993  19.644  0.00  0.00    +0.000 C 
ATOM     10  N   UNL     1       2.019  14.544  19.719  0.00  0.00    +0.000 N 
ATOM     11  C   UNL     1       0.932  13.765  20.061  0.00  0.00    +0.000 C 
ATOM     12  O   UNL     1      -0.168  14.236  20.337  0.00  0.00    +0.000 OA
ATOM     13  N   UNL     1       1.126  12.405  20.033  0.00  0.00    +0.000 N 
ATOM     14  C   UNL     1       3.371  14.085  19.398  0.00  0.00    +0.000 C 
ATOM     15  C   UNL     1       3.800  14.581  18.016  0.00  0.00    +0.000 C 
ATOM     16  H   UNL     1       2.039  12.096  20.317  0.00  0.00    +0.000 HD
BRANCH   7  17
ATOM     17  C   UNL     1       4.749  16.800  18.706  0.00  0.00    +0.000 C 
ATOM     18  O   UNL     1       4.537  17.732  19.473  0.00  0.00    +0.000 OA
BRANCH  17  20
ATOM     19  C   UNL     1       6.769  16.159  19.702  0.00  0.00    +0.000 C 
ATOM     20  O   UNL     1       5.966  16.225  18.520  0.00  0.00    +0.000 OA
ENDBRANCH  17  20
ENDBRANCH   7  17
ENDBRANCH   1  13
BRANCH   5  21
ATOM     21  C   UNL     1       1.531   8.173  19.917  0.00  0.00    +0.000 A 
ATOM     22  C   UNL     1       2.231   8.192  18.702  0.00  0.00    +0.000 A 
ATOM     23  C   UNL     1       2.873   7.050  18.219  0.00  0.00    +0.000 A 
ATOM     24  C   UNL     1       2.808   5.865  18.936  0.00  0.00    +0.000 A 
ATOM     25  C   UNL     1       2.109   5.824  20.146  0.00  0.00    +0.000 A 
ATOM     26  C   UNL     1       1.467   6.966  20.628  0.00  0.00    +0.000 A 
ATOM     27  O   UNL     1       2.002   4.690  20.912  0.00  0.00    +0.000 OA
ATOM     28  C   UNL     1       2.959   3.701  20.521  0.00  0.00    +0.000 C 
ATOM     29  C   UNL     1       3.024   3.567  19.007  0.00  0.00    +0.000 C 
ATOM     30  O   UNL     1       3.457   4.788  18.400  0.00  0.00    +0.000 OA
ENDBRANCH   5  21
TORSDOF 4
ENDMDL
