MODEL 1
REMARK VINA RESULT:      -6.7      0.000      0.000
REMARK  Name = 
REMARK  7 active torsions:
REMARK  status: ('A' for Active; 'I' for Inactive)
REMARK    1  A    between atoms: C_2  and  C_3
REMARK    2  A    between atoms: C_2  and  O_10
REMARK    3  A    between atoms: C_3  and  N_4
REMARK    4  A    between atoms: O_10  and  C_11
REMARK    5  A    between atoms: C_11  and  C_12
REMARK    6  A    between atoms: C_12  and  C_13
REMARK    7  A    between atoms: C_13  and  C_14
REMARK                            x       y       z     vdW  Elec       q    Type
REMARK                         _______ _______ _______ _____ _____    ______ ____
ROOT
ATOM      1  O   UNL     1       7.699   6.214  17.908  0.00  0.00    +0.000 OA
ENDROOT
BRANCH   1   3
ATOM      2  O   UNL     1       7.133   5.365  19.968  0.00  0.00    +0.000 OA
ATOM      3  C   UNL     1       6.845   5.642  18.804  0.00  0.00    +0.000 C 
BRANCH   3   4
ATOM      4  C   UNL     1       5.460   5.405  18.196  0.00  0.00    +0.000 C 
BRANCH   4   5
ATOM      5  N   UNL     1       4.605   4.624  19.102  0.00  0.00    +0.000 NA
ATOM      6  C   UNL     1       4.112   3.354  18.523  0.00  0.00    +0.000 C 
ATOM      7  C   UNL     1       2.784   3.426  17.747  0.00  0.00    +0.000 C 
ATOM      8  O   UNL     1       1.773   4.123  18.480  0.00  0.00    +0.000 OA
ATOM      9  C   UNL     1       2.219   5.447  18.780  0.00  0.00    +0.000 C 
ATOM     10  C   UNL     1       3.486   5.412  19.650  0.00  0.00    +0.000 C 
ENDBRANCH   4   5
ENDBRANCH   3   4
ENDBRANCH   1   3
BRANCH   1  11
ATOM     11  C   UNL     1       7.447   7.599  17.600  0.00  0.00    +0.000 C 
BRANCH  11  12
ATOM     12  C   UNL     1       8.394   8.494  18.394  0.00  0.00    +0.000 C 
BRANCH  12  13
ATOM     13  C   UNL     1       8.387   9.941  17.899  0.00  0.00    +0.000 C 
BRANCH  13  14
ATOM     14  C   UNL     1       9.460  10.756  18.585  0.00  0.00    +0.000 A 
ATOM     15  C   UNL     1       9.438  10.946  19.974  0.00  0.00    +0.000 A 
ATOM     16  C   UNL     1      10.411  11.730  20.596  0.00  0.00    +0.000 A 
ATOM     17  C   UNL     1      11.414  12.332  19.839  0.00  0.00    +0.000 A 
ATOM     18  C   UNL     1      11.444  12.153  18.458  0.00  0.00    +0.000 A 
ATOM     19  C   UNL     1      10.471  11.371  17.832  0.00  0.00    +0.000 A 
ENDBRANCH  13  14
ENDBRANCH  12  13
ENDBRANCH  11  12
ENDBRANCH   1  11
TORSDOF 7
ENDMDL
MODEL 2
REMARK VINA RESULT:      -6.6      1.352      2.061
REMARK  Name = 
REMARK  7 active torsions:
REMARK  status: ('A' for Active; 'I' for Inactive)
REMARK    1  A    between atoms: C_2  and  C_3
REMARK    2  A    between atoms: C_2  and  O_10
REMARK    3  A    between atoms: C_3  and  N_4
REMARK    4  A    between atoms: O_10  and  C_11
REMARK    5  A    between atoms: C_11  and  C_12
REMARK    6  A    between atoms: C_12  and  C_13
REMARK    7  A    between atoms: C_13  and  C_14
REMARK                            x       y       z     vdW  Elec       q    Type
REMARK                         _______ _______ _______ _____ _____    ______ ____
ROOT
ATOM      1  O   UNL     1       7.140   7.832  17.207  0.00  0.00    +0.000 OA
ENDROOT
BRANCH   1   3
ATOM      2  O   UNL     1       7.585   5.968  15.937  0.00  0.00    +0.000 OA
ATOM      3  C   UNL     1       7.022   6.512  16.886  0.00  0.00    +0.000 C 
BRANCH   3   4
ATOM      4  C   UNL     1       6.118   5.768  17.872  0.00  0.00    +0.000 C 
BRANCH   4   5
ATOM      5  N   UNL     1       4.750   5.639  17.351  0.00  0.00    +0.000 NA
ATOM      6  C   UNL     1       3.697   6.072  18.298  0.00  0.00    +0.000 C 
ATOM      7  C   UNL     1       3.157   4.997  19.258  0.00  0.00    +0.000 C 
ATOM      8  O   UNL     1       2.814   3.790  18.572  0.00  0.00    +0.000 OA
ATOM      9  C   UNL     1       3.959   3.280  17.885  0.00  0.00    +0.000 C 
ATOM     10  C   UNL     1       4.459   4.287  16.837  0.00  0.00    +0.000 C 
ENDBRANCH   4   5
ENDBRANCH   3   4
ENDBRANCH   1   3
BRANCH   1  11
ATOM     11  C   UNL     1       8.224   8.166  18.096  0.00  0.00    +0.000 C 
BRANCH  11  12
ATOM     12  C   UNL     1       8.547   9.653  17.996  0.00  0.00    +0.000 C 
BRANCH  12  13
ATOM     13  C   UNL     1       9.147  10.212  19.287  0.00  0.00    +0.000 C 
BRANCH  13  14
ATOM     14  C   UNL     1      10.271  11.177  18.991  0.00  0.00    +0.000 A 
ATOM     15  C   UNL     1      11.184  11.544  19.991  0.00  0.00    +0.000 A 
ATOM     16  C   UNL     1      12.197  12.465  19.721  0.00  0.00    +0.000 A 
ATOM     17  C   UNL     1      12.311  13.029  18.452  0.00  0.00    +0.000 A 
ATOM     18  C   UNL     1      11.409  12.675  17.452  0.00  0.00    +0.000 A 
ATOM     19  C   UNL     1      10.392  11.755  17.718  0.00  0.00    +0.000 A 
ENDBRANCH  13  14
ENDBRANCH  12  13
ENDBRANCH  11  12
ENDBRANCH   1  11
TORSDOF 7
ENDMDL
MODEL 3
REMARK VINA RESULT:      -6.6      4.461      8.089
REMARK  Name = 
REMARK  7 active torsions:
REMARK  status: ('A' for Active; 'I' for Inactive)
REMARK    1  A    between atoms: C_2  and  C_3
REMARK    2  A    between atoms: C_2  and  O_10
REMARK    3  A    between atoms: C_3  and  N_4
REMARK    4  A    between atoms: O_10  and  C_11
REMARK    5  A    between atoms: C_11  and  C_12
REMARK    6  A    between atoms: C_12  and  C_13
REMARK    7  A    between atoms: C_13  and  C_14
REMARK                            x       y       z     vdW  Elec       q    Type
REMARK                         _______ _______ _______ _____ _____    ______ ____
ROOT
ATOM      1  O   UNL     1       3.344   6.446  19.404  0.00  0.00    +0.000 OA
ENDROOT
BRANCH   1   3
ATOM      2  O   UNL     1       2.983   7.704  17.514  0.00  0.00    +0.000 OA
ATOM      3  C   UNL     1       3.444   6.708  18.070  0.00  0.00    +0.000 C 
BRANCH   3   4
ATOM      4  C   UNL     1       4.232   5.619  17.336  0.00  0.00    +0.000 C 
BRANCH   4   5
ATOM      5  N   UNL     1       5.455   6.161  16.729  0.00  0.00    +0.000 NA
ATOM      6  C   UNL     1       5.774   5.594  15.399  0.00  0.00    +0.000 C 
ATOM      7  C   UNL     1       6.639   4.322  15.386  0.00  0.00    +0.000 C 
ATOM      8  O   UNL     1       7.796   4.453  16.217  0.00  0.00    +0.000 OA
ATOM      9  C   UNL     1       7.399   4.744  17.559  0.00  0.00    +0.000 C 
ATOM     10  C   UNL     1       6.625   6.070  17.623  0.00  0.00    +0.000 C 
ENDBRANCH   4   5
ENDBRANCH   3   4
ENDBRANCH   1   3
BRANCH   1  11
ATOM     11  C   UNL     1       2.029   6.598  19.975  0.00  0.00    +0.000 C 
BRANCH  11  12
ATOM     12  C   UNL     1       1.765   5.490  20.990  0.00  0.00    +0.000 C 
BRANCH  12  13
ATOM     13  C   UNL     1       0.987   4.318  20.390  0.00  0.00    +0.000 C 
BRANCH  13  14
ATOM     14  C   UNL     1       1.901   3.395  19.618  0.00  0.00    +0.000 A 
ATOM     15  C   UNL     1       3.073   2.892  20.202  0.00  0.00    +0.000 A 
ATOM     16  C   UNL     1       3.932   2.071  19.470  0.00  0.00    +0.000 A 
ATOM     17  C   UNL     1       3.632   1.744  18.150  0.00  0.00    +0.000 A 
ATOM     18  C   UNL     1       2.474   2.241  17.558  0.00  0.00    +0.000 A 
ATOM     19  C   UNL     1       1.612   3.064  18.286  0.00  0.00    +0.000 A 
ENDBRANCH  13  14
ENDBRANCH  12  13
ENDBRANCH  11  12
ENDBRANCH   1  11
TORSDOF 7
ENDMDL
MODEL 4
REMARK VINA RESULT:      -6.5      1.357      1.868
REMARK  Name = 
REMARK  7 active torsions:
REMARK  status: ('A' for Active; 'I' for Inactive)
REMARK    1  A    between atoms: C_2  and  C_3
REMARK    2  A    between atoms: C_2  and  O_10
REMARK    3  A    between atoms: C_3  and  N_4
REMARK    4  A    between atoms: O_10  and  C_11
REMARK    5  A    between atoms: C_11  and  C_12
REMARK    6  A    between atoms: C_12  and  C_13
REMARK    7  A    between atoms: C_13  and  C_14
REMARK                            x       y       z     vdW  Elec       q    Type
REMARK                         _______ _______ _______ _____ _____    ______ ____
ROOT
ATOM      1  O   UNL     1       7.244   7.439  16.798  0.00  0.00    +0.000 OA
ENDROOT
BRANCH   1   3
ATOM      2  O   UNL     1       7.680   5.205  16.470  0.00  0.00    +0.000 OA
ATOM      3  C   UNL     1       6.890   6.130  16.655  0.00  0.00    +0.000 C 
BRANCH   3   4
ATOM      4  C   UNL     1       5.376   5.936  16.780  0.00  0.00    +0.000 C 
BRANCH   4   5
ATOM      5  N   UNL     1       5.053   4.765  17.607  0.00  0.00    +0.000 NA
ATOM      6  C   UNL     1       3.828   4.047  17.189  0.00  0.00    +0.000 C 
ATOM      7  C   UNL     1       2.505   4.530  17.811  0.00  0.00    +0.000 C 
ATOM      8  O   UNL     1       2.601   4.668  19.232  0.00  0.00    +0.000 OA
ATOM      9  C   UNL     1       3.644   5.589  19.559  0.00  0.00    +0.000 C 
ATOM     10  C   UNL     1       5.001   5.081  19.047  0.00  0.00    +0.000 C 
ENDBRANCH   4   5
ENDBRANCH   3   4
ENDBRANCH   1   3
BRANCH   1  11
ATOM     11  C   UNL     1       7.932   7.771  18.020  0.00  0.00    +0.000 C 
BRANCH  11  12
ATOM     12  C   UNL     1       8.350   9.238  18.006  0.00  0.00    +0.000 C 
BRANCH  12  13
ATOM     13  C   UNL     1       9.098   9.648  19.275  0.00  0.00    +0.000 C 
BRANCH  13  14
ATOM     14  C   UNL     1       9.838  10.950  19.074  0.00  0.00    +0.000 A 
ATOM     15  C   UNL     1      10.172  11.393  17.786  0.00  0.00    +0.000 A 
ATOM     16  C   UNL     1      10.888  12.579  17.610  0.00  0.00    +0.000 A 
ATOM     17  C   UNL     1      11.278  13.332  18.715  0.00  0.00    +0.000 A 
ATOM     18  C   UNL     1      10.955  12.900  19.999  0.00  0.00    +0.000 A 
ATOM     19  C   UNL     1      10.240  11.714  20.180  0.00  0.00    +0.000 A 
ENDBRANCH  13  14
ENDBRANCH  12  13
ENDBRANCH  11  12
ENDBRANCH   1  11
TORSDOF 7
ENDMDL
MODEL 5
REMARK VINA RESULT:      -6.5      4.929      7.020
REMARK  Name = 
REMARK  7 active torsions:
REMARK  status: ('A' for Active; 'I' for Inactive)
REMARK    1  A    between atoms: C_2  and  C_3
REMARK    2  A    between atoms: C_2  and  O_10
REMARK    3  A    between atoms: C_3  and  N_4
REMARK    4  A    between atoms: O_10  and  C_11
REMARK    5  A    between atoms: C_11  and  C_12
REMARK    6  A    between atoms: C_12  and  C_13
REMARK    7  A    between atoms: C_13  and  C_14
REMARK                            x       y       z     vdW  Elec       q    Type
REMARK                         _______ _______ _______ _____ _____    ______ ____
ROOT
ATOM      1  O   UNL     1       3.083   3.293  19.173  0.00  0.00    +0.000 OA
ENDROOT
BRANCH   1   3
ATOM      2  O   UNL     1       1.966   3.076  17.175  0.00  0.00    +0.000 OA
ATOM      3  C   UNL     1       3.008   3.214  17.814  0.00  0.00    +0.000 C 
BRANCH   3   4
ATOM      4  C   UNL     1       4.388   3.344  17.162  0.00  0.00    +0.000 C 
BRANCH   4   5
ATOM      5  N   UNL     1       4.890   4.723  17.243  0.00  0.00    +0.000 NA
ATOM      6  C   UNL     1       5.187   5.337  15.929  0.00  0.00    +0.000 C 
ATOM      7  C   UNL     1       6.609   5.125  15.380  0.00  0.00    +0.000 C 
ATOM      8  O   UNL     1       7.610   5.416  16.360  0.00  0.00    +0.000 OA
ATOM      9  C   UNL     1       7.417   4.589  17.510  0.00  0.00    +0.000 C 
ATOM     10  C   UNL     1       6.045   4.857  18.150  0.00  0.00    +0.000 C 
ENDBRANCH   4   5
ENDBRANCH   3   4
ENDBRANCH   1   3
BRANCH   1  11
ATOM     11  C   UNL     1       1.840   3.112  19.879  0.00  0.00    +0.000 C 
BRANCH  11  12
ATOM     12  C   UNL     1       1.299   4.460  20.345  0.00  0.00    +0.000 C 
BRANCH  12  13
ATOM     13  C   UNL     1       2.409   5.473  20.628  0.00  0.00    +0.000 C 
BRANCH  13  14
ATOM     14  C   UNL     1       2.145   6.782  19.921  0.00  0.00    +0.000 A 
ATOM     15  C   UNL     1       1.528   7.847  20.592  0.00  0.00    +0.000 A 
ATOM     16  C   UNL     1       1.252   9.041  19.923  0.00  0.00    +0.000 A 
ATOM     17  C   UNL     1       1.589   9.183  18.578  0.00  0.00    +0.000 A 
ATOM     18  C   UNL     1       2.198   8.131  17.901  0.00  0.00    +0.000 A 
ATOM     19  C   UNL     1       2.474   6.934  18.566  0.00  0.00    +0.000 A 
ENDBRANCH  13  14
ENDBRANCH  12  13
ENDBRANCH  11  12
ENDBRANCH   1  11
TORSDOF 7
ENDMDL
MODEL 6
REMARK VINA RESULT:      -6.4      0.920      1.386
REMARK  Name = 
REMARK  7 active torsions:
REMARK  status: ('A' for Active; 'I' for Inactive)
REMARK    1  A    between atoms: C_2  and  C_3
REMARK    2  A    between atoms: C_2  and  O_10
REMARK    3  A    between atoms: C_3  and  N_4
REMARK    4  A    between atoms: O_10  and  C_11
REMARK    5  A    between atoms: C_11  and  C_12
REMARK    6  A    between atoms: C_12  and  C_13
REMARK    7  A    between atoms: C_13  and  C_14
REMARK                            x       y       z     vdW  Elec       q    Type
REMARK                         _______ _______ _______ _____ _____    ______ ____
ROOT
ATOM      1  O   UNL     1       6.782   6.548  18.249  0.00  0.00    +0.000 OA
ENDROOT
BRANCH   1   3
ATOM      2  O   UNL     1       7.699   4.740  17.165  0.00  0.00    +0.000 OA
ATOM      3  C   UNL     1       6.864   5.226  17.926  0.00  0.00    +0.000 C 
BRANCH   3   4
ATOM      4  C   UNL     1       5.797   4.399  18.649  0.00  0.00    +0.000 C 
BRANCH   4   5
ATOM      5  N   UNL     1       4.720   3.997  17.733  0.00  0.00    +0.000 NA
ATOM      6  C   UNL     1       3.881   5.120  17.255  0.00  0.00    +0.000 C 
ATOM      7  C   UNL     1       2.661   5.479  18.121  0.00  0.00    +0.000 C 
ATOM      8  O   UNL     1       1.888   4.326  18.463  0.00  0.00    +0.000 OA
ATOM      9  C   UNL     1       2.706   3.385  19.163  0.00  0.00    +0.000 C 
ATOM     10  C   UNL     1       3.876   2.919  18.283  0.00  0.00    +0.000 C 
ENDBRANCH   4   5
ENDBRANCH   3   4
ENDBRANCH   1   3
BRANCH   1  11
ATOM     11  C   UNL     1       7.611   7.435  17.472  0.00  0.00    +0.000 C 
BRANCH  11  12
ATOM     12  C   UNL     1       8.412   8.349  18.395  0.00  0.00    +0.000 C 
BRANCH  12  13
ATOM     13  C   UNL     1       8.320   9.820  17.987  0.00  0.00    +0.000 C 
BRANCH  13  14
ATOM     14  C   UNL     1       9.409  10.635  18.646  0.00  0.00    +0.000 A 
ATOM     15  C   UNL     1       9.414  10.836  20.034  0.00  0.00    +0.000 A 
ATOM     16  C   UNL     1      10.401  11.621  20.632  0.00  0.00    +0.000 A 
ATOM     17  C   UNL     1      11.392  12.214  19.851  0.00  0.00    +0.000 A 
ATOM     18  C   UNL     1      11.395  12.025  18.472  0.00  0.00    +0.000 A 
ATOM     19  C   UNL     1      10.408  11.241  17.870  0.00  0.00    +0.000 A 
ENDBRANCH  13  14
ENDBRANCH  12  13
ENDBRANCH  11  12
ENDBRANCH   1  11
TORSDOF 7
ENDMDL
MODEL 7
REMARK VINA RESULT:      -6.4      3.489      6.810
REMARK  Name = 
REMARK  7 active torsions:
REMARK  status: ('A' for Active; 'I' for Inactive)
REMARK    1  A    between atoms: C_2  and  C_3
REMARK    2  A    between atoms: C_2  and  O_10
REMARK    3  A    between atoms: C_3  and  N_4
REMARK    4  A    between atoms: O_10  and  C_11
REMARK    5  A    between atoms: C_11  and  C_12
REMARK    6  A    between atoms: C_12  and  C_13
REMARK    7  A    between atoms: C_13  and  C_14
REMARK                            x       y       z     vdW  Elec       q    Type
REMARK                         _______ _______ _______ _____ _____    ______ ____
ROOT
ATOM      1  O   UNL     1       3.795   3.341  18.403  0.00  0.00    +0.000 OA
ENDROOT
BRANCH   1   3
ATOM      2  O   UNL     1       5.200   2.591  20.062  0.00  0.00    +0.000 OA
ATOM      3  C   UNL     1       4.830   3.468  19.281  0.00  0.00    +0.000 C 
BRANCH   3   4
ATOM      4  C   UNL     1       5.506   4.837  19.166  0.00  0.00    +0.000 C 
BRANCH   4   5
ATOM      5  N   UNL     1       6.839   4.725  18.555  0.00  0.00    +0.000 NA
ATOM      6  C   UNL     1       7.742   5.857  18.862  0.00  0.00    +0.000 C 
ATOM      7  C   UNL     1       7.685   7.058  17.902  0.00  0.00    +0.000 C 
ATOM      8  O   UNL     1       7.760   6.653  16.532  0.00  0.00    +0.000 OA
ATOM      9  C   UNL     1       6.690   5.755  16.233  0.00  0.00    +0.000 C 
ATOM     10  C   UNL     1       6.781   4.489  17.101  0.00  0.00    +0.000 C 
ENDBRANCH   4   5
ENDBRANCH   3   4
ENDBRANCH   1   3
BRANCH   1  11
ATOM     11  C   UNL     1       2.475   3.434  18.973  0.00  0.00    +0.000 C 
BRANCH  11  12
ATOM     12  C   UNL     1       1.905   4.831  18.753  0.00  0.00    +0.000 C 
BRANCH  12  13
ATOM     13  C   UNL     1       2.197   5.775  19.921  0.00  0.00    +0.000 C 
BRANCH  13  14
ATOM     14  C   UNL     1       1.950   7.214  19.532  0.00  0.00    +0.000 A 
ATOM     15  C   UNL     1       1.393   8.119  20.447  0.00  0.00    +0.000 A 
ATOM     16  C   UNL     1       1.132   9.437  20.070  0.00  0.00    +0.000 A 
ATOM     17  C   UNL     1       1.423   9.866  18.776  0.00  0.00    +0.000 A 
ATOM     18  C   UNL     1       1.973   8.976  17.857  0.00  0.00    +0.000 A 
ATOM     19  C   UNL     1       2.234   7.655  18.230  0.00  0.00    +0.000 A 
ENDBRANCH  13  14
ENDBRANCH  12  13
ENDBRANCH  11  12
ENDBRANCH   1  11
TORSDOF 7
ENDMDL
MODEL 8
REMARK VINA RESULT:      -6.4      1.338      1.596
REMARK  Name = 
REMARK  7 active torsions:
REMARK  status: ('A' for Active; 'I' for Inactive)
REMARK    1  A    between atoms: C_2  and  C_3
REMARK    2  A    between atoms: C_2  and  O_10
REMARK    3  A    between atoms: C_3  and  N_4
REMARK    4  A    between atoms: O_10  and  C_11
REMARK    5  A    between atoms: C_11  and  C_12
REMARK    6  A    between atoms: C_12  and  C_13
REMARK    7  A    between atoms: C_13  and  C_14
REMARK                            x       y       z     vdW  Elec       q    Type
REMARK                         _______ _______ _______ _____ _____    ______ ____
ROOT
ATOM      1  O   UNL     1       7.067   7.310  16.791  0.00  0.00    +0.000 OA
ENDROOT
BRANCH   1   3
ATOM      2  O   UNL     1       7.628   5.085  16.644  0.00  0.00    +0.000 OA
ATOM      3  C   UNL     1       6.785   5.978  16.711  0.00  0.00    +0.000 C 
BRANCH   3   4
ATOM      4  C   UNL     1       5.276   5.716  16.740  0.00  0.00    +0.000 C 
BRANCH   4   5
ATOM      5  N   UNL     1       4.844   5.225  18.057  0.00  0.00    +0.000 NA
ATOM      6  C   UNL     1       4.576   3.770  18.102  0.00  0.00    +0.000 C 
ATOM      7  C   UNL     1       3.144   3.327  17.753  0.00  0.00    +0.000 C 
ATOM      8  O   UNL     1       2.161   4.087  18.460  0.00  0.00    +0.000 OA
ATOM      9  C   UNL     1       2.314   5.476  18.160  0.00  0.00    +0.000 C 
ATOM     10  C   UNL     1       3.698   5.979  18.599  0.00  0.00    +0.000 C 
ENDBRANCH   4   5
ENDBRANCH   3   4
ENDBRANCH   1   3
BRANCH   1  11
ATOM     11  C   UNL     1       7.900   7.707  17.898  0.00  0.00    +0.000 C 
BRANCH  11  12
ATOM     12  C   UNL     1       8.146   9.212  17.857  0.00  0.00    +0.000 C 
BRANCH  12  13
ATOM     13  C   UNL     1       9.020   9.696  19.015  0.00  0.00    +0.000 C 
BRANCH  13  14
ATOM     14  C   UNL     1       9.676  11.017  18.686  0.00  0.00    +0.000 A 
ATOM     15  C   UNL     1      10.946  11.332  19.189  0.00  0.00    +0.000 A 
ATOM     16  C   UNL     1      11.531  12.569  18.912  0.00  0.00    +0.000 A 
ATOM     17  C   UNL     1      10.854  13.504  18.131  0.00  0.00    +0.000 A 
ATOM     18  C   UNL     1       9.590  13.204  17.629  0.00  0.00    +0.000 A 
ATOM     19  C   UNL     1       9.001  11.968  17.905  0.00  0.00    +0.000 A 
ENDBRANCH  13  14
ENDBRANCH  12  13
ENDBRANCH  11  12
ENDBRANCH   1  11
TORSDOF 7
ENDMDL
MODEL 9
REMARK VINA RESULT:      -6.4      0.802      1.744
REMARK  Name = 
REMARK  7 active torsions:
REMARK  status: ('A' for Active; 'I' for Inactive)
REMARK    1  A    between atoms: C_2  and  C_3
REMARK    2  A    between atoms: C_2  and  O_10
REMARK    3  A    between atoms: C_3  and  N_4
REMARK    4  A    between atoms: O_10  and  C_11
REMARK    5  A    between atoms: C_11  and  C_12
REMARK    6  A    between atoms: C_12  and  C_13
REMARK    7  A    between atoms: C_13  and  C_14
REMARK                            x       y       z     vdW  Elec       q    Type
REMARK                         _______ _______ _______ _____ _____    ______ ____
ROOT
ATOM      1  O   UNL     1       7.493   6.045  17.805  0.00  0.00    +0.000 OA
ENDROOT
BRANCH   1   3
ATOM      2  O   UNL     1       7.513   5.668  20.073  0.00  0.00    +0.000 OA
ATOM      3  C   UNL     1       7.035   5.476  18.956  0.00  0.00    +0.000 C 
BRANCH   3   4
ATOM      4  C   UNL     1       5.822   4.577  18.700  0.00  0.00    +0.000 C 
BRANCH   4   5
ATOM      5  N   UNL     1       4.915   5.173  17.708  0.00  0.00    +0.000 NA
ATOM      6  C   UNL     1       3.834   5.996  18.293  0.00  0.00    +0.000 C 
ATOM      7  C   UNL     1       2.533   5.259  18.659  0.00  0.00    +0.000 C 
ATOM      8  O   UNL     1       2.071   4.427  17.592  0.00  0.00    +0.000 OA
ATOM      9  C   UNL     1       3.078   3.472  17.251  0.00  0.00    +0.000 C 
ATOM     10  C   UNL     1       4.358   4.176  16.774  0.00  0.00    +0.000 C 
ENDBRANCH   4   5
ENDBRANCH   3   4
ENDBRANCH   1   3
BRANCH   1  11
ATOM     11  C   UNL     1       7.216   7.451  17.649  0.00  0.00    +0.000 C 
BRANCH  11  12
ATOM     12  C   UNL     1       8.376   8.279  18.192  0.00  0.00    +0.000 C 
BRANCH  12  13
ATOM     13  C   UNL     1       8.160   9.782  18.011  0.00  0.00    +0.000 C 
BRANCH  13  14
ATOM     14  C   UNL     1       9.286  10.573  18.636  0.00  0.00    +0.000 A 
ATOM     15  C   UNL     1      10.348  11.049  17.854  0.00  0.00    +0.000 A 
ATOM     16  C   UNL     1      11.404  11.746  18.443  0.00  0.00    +0.000 A 
ATOM     17  C   UNL     1      11.410  11.975  19.818  0.00  0.00    +0.000 A 
ATOM     18  C   UNL     1      10.363  11.504  20.605  0.00  0.00    +0.000 A 
ATOM     19  C   UNL     1       9.306  10.805  20.019  0.00  0.00    +0.000 A 
ENDBRANCH  13  14
ENDBRANCH  12  13
ENDBRANCH  11  12
ENDBRANCH   1  11
TORSDOF 7
ENDMDL
