MODEL 1
REMARK VINA RESULT:      -8.9      0.000      0.000
REMARK  Name = 
REMARK  8 active torsions:
REMARK  status: ('A' for Active; 'I' for Inactive)
REMARK    1  A    between atoms: C_1  and  C_2
REMARK    2  A    between atoms: C_2  and  C_11
REMARK    3  A    between atoms: N_3  and  O_4
REMARK    4  A    between atoms: O_4  and  C_5
REMARK    5  A    between atoms: C_5  and  C_6
REMARK    6  A    between atoms: C_6  and  N_7
REMARK    7  A    between atoms: N_17  and  C_18
REMARK    8  A    between atoms: C_18  and  C_19
REMARK                            x       y       z     vdW  Elec       q    Type
REMARK                         _______ _______ _______ _____ _____    ______ ____
ROOT
ATOM      1  C   UNL     1       4.977   4.668  18.599  0.00  0.00    +0.000 A 
ATOM      2  C   UNL     1       4.622   3.468  19.225  0.00  0.00    +0.000 A 
ATOM      3  N   UNL     1       3.515   3.298  19.998  0.00  0.00    +0.000 NA
ATOM      4  C   UNL     1       2.790   4.440  20.122  0.00  0.00    +0.000 A 
ATOM      5  N   UNL     1       1.633   4.633  20.819  0.00  0.00    +0.000 NA
ATOM      6  N   UNL     1       1.270   5.906  20.667  0.00  0.00    +0.000 NA
ATOM      7  N   UNL     1       2.209   6.508  19.899  0.00  0.00    +0.000 N 
ATOM      8  C   UNL     1       3.170   5.624  19.499  0.00  0.00    +0.000 A 
ATOM      9  N   UNL     1       4.248   5.817  18.702  0.00  0.00    +0.000 NA
ENDROOT
BRANCH   1  11
ATOM     10  C   UNL     1       7.426   5.402  18.425  0.00  0.00    +0.000 C 
ATOM     11  C   UNL     1       6.224   4.739  17.779  0.00  0.00    +0.000 C 
ATOM     12  N   UNL     1       6.212   4.245  16.574  0.00  0.00    +0.000 NA
BRANCH  12  13
ATOM     13  O   UNL     1       7.459   4.364  15.948  0.00  0.00    +0.000 OA
BRANCH  13  14
ATOM     14  C   UNL     1       7.298   5.030  14.692  0.00  0.00    +0.000 C 
BRANCH  14  15
ATOM     15  C   UNL     1       6.069   4.471  13.974  0.00  0.00    +0.000 C 
BRANCH  15  16
ATOM     16  N   UNL     1       6.327   3.265  13.206  0.00  0.00    +0.000 N 
ATOM     17  C   UNL     1       5.526   2.863  12.188  0.00  0.00    +0.000 C 
ATOM     18  N   UNL     1       5.961   1.732  11.580  0.00  0.00    +0.000 N 
ATOM     19  O   UNL     1       4.519   3.454  11.795  0.00  0.00    +0.000 OA
ATOM     20  H   UNL     1       7.142   2.715  13.427  0.00  0.00    +0.000 HD
ATOM     21  H   UNL     1       6.521   1.065  12.091  0.00  0.00    +0.000 HD
ATOM     22  H   UNL     1       5.335   1.356  10.882  0.00  0.00    +0.000 HD
ENDBRANCH  15  16
ENDBRANCH  14  15
ENDBRANCH  13  14
ENDBRANCH  12  13
ENDBRANCH   1  11
BRANCH   7  23
ATOM     23  C   UNL     1       2.050   7.884  19.482  0.00  0.00    +0.000 C 
BRANCH  23  24
ATOM     24  C   UNL     1       1.175   8.690  20.411  0.00  0.00    +0.000 A 
ATOM     25  C   UNL     1       1.261   8.495  21.793  0.00  0.00    +0.000 A 
ATOM     26  C   UNL     1       0.629   9.380  22.670  0.00  0.00    +0.000 A 
ATOM     27  C   UNL     1      -0.143  10.437  22.215  0.00  0.00    +0.000 A 
ATOM     28  N   UNL     1      -0.625  11.327  23.101  0.00  0.00    +0.000 NA
ATOM     29  C   UNL     1      -1.437  12.301  22.642  0.00  0.00    +0.000 A 
ATOM     30  C   UNL     1      -1.869  12.381  21.333  0.00  0.00    +0.000 A 
ATOM     31  C   UNL     1      -1.323  11.494  20.411  0.00  0.00    +0.000 A 
ATOM     32  C   UNL     1      -0.388  10.530  20.832  0.00  0.00    +0.000 A 
ATOM     33  C   UNL     1       0.306   9.685  19.935  0.00  0.00    +0.000 A 
ENDBRANCH  23  24
ENDBRANCH   7  23
TORSDOF 7
ENDMDL
MODEL 2
REMARK VINA RESULT:      -8.8      1.899      2.406
REMARK  Name = 
REMARK  8 active torsions:
REMARK  status: ('A' for Active; 'I' for Inactive)
REMARK    1  A    between atoms: C_1  and  C_2
REMARK    2  A    between atoms: C_2  and  C_11
REMARK    3  A    between atoms: N_3  and  O_4
REMARK    4  A    between atoms: O_4  and  C_5
REMARK    5  A    between atoms: C_5  and  C_6
REMARK    6  A    between atoms: C_6  and  N_7
REMARK    7  A    between atoms: N_17  and  C_18
REMARK    8  A    between atoms: C_18  and  C_19
REMARK                            x       y       z     vdW  Elec       q    Type
REMARK                         _______ _______ _______ _____ _____    ______ ____
ROOT
ATOM      1  C   UNL     1       5.284   5.501  17.845  0.00  0.00    +0.000 A 
ATOM      2  C   UNL     1       5.019   4.546  18.833  0.00  0.00    +0.000 A 
ATOM      3  N   UNL     1       3.978   4.606  19.707  0.00  0.00    +0.000 NA
ATOM      4  C   UNL     1       3.222   5.722  19.535  0.00  0.00    +0.000 A 
ATOM      5  N   UNL     1       2.113   6.105  20.231  0.00  0.00    +0.000 NA
ATOM      6  N   UNL     1       1.693   7.266  19.729  0.00  0.00    +0.000 NA
ATOM      7  N   UNL     1       2.551   7.615  18.741  0.00  0.00    +0.000 N 
ATOM      8  C   UNL     1       3.513   6.664  18.553  0.00  0.00    +0.000 A 
ATOM      9  N   UNL     1       4.522   6.617  17.651  0.00  0.00    +0.000 NA
ENDROOT
BRANCH   1  11
ATOM     10  C   UNL     1       7.652   4.581  17.514  0.00  0.00    +0.000 C 
ATOM     11  C   UNL     1       6.464   5.334  16.945  0.00  0.00    +0.000 C 
ATOM     12  N   UNL     1       6.416   5.838  15.744  0.00  0.00    +0.000 NA
BRANCH  12  13
ATOM     13  O   UNL     1       7.583   5.573  15.019  0.00  0.00    +0.000 OA
BRANCH  13  14
ATOM     14  C   UNL     1       7.235   5.149  13.697  0.00  0.00    +0.000 C 
BRANCH  14  15
ATOM     15  C   UNL     1       6.082   4.148  13.771  0.00  0.00    +0.000 C 
BRANCH  15  16
ATOM     16  N   UNL     1       6.283   2.950  12.974  0.00  0.00    +0.000 N 
ATOM     17  C   UNL     1       5.478   2.624  11.931  0.00  0.00    +0.000 C 
ATOM     18  N   UNL     1       5.858   1.486  11.300  0.00  0.00    +0.000 N 
ATOM     19  O   UNL     1       4.516   3.284  11.538  0.00  0.00    +0.000 OA
ATOM     20  H   UNL     1       7.060   2.347  13.193  0.00  0.00    +0.000 HD
ATOM     21  H   UNL     1       6.368   0.774  11.801  0.00  0.00    +0.000 HD
ATOM     22  H   UNL     1       5.224   1.167  10.581  0.00  0.00    +0.000 HD
ENDBRANCH  15  16
ENDBRANCH  14  15
ENDBRANCH  13  14
ENDBRANCH  12  13
ENDBRANCH   1  11
BRANCH   7  23
ATOM     23  C   UNL     1       2.312   8.795  17.939  0.00  0.00    +0.000 C 
BRANCH  23  24
ATOM     24  C   UNL     1       1.024   9.501  18.288  0.00  0.00    +0.000 A 
ATOM     25  C   UNL     1       1.010  10.463  19.302  0.00  0.00    +0.000 A 
ATOM     26  C   UNL     1      -0.111  11.278  19.485  0.00  0.00    +0.000 A 
ATOM     27  C   UNL     1      -1.256  11.132  18.718  0.00  0.00    +0.000 A 
ATOM     28  N   UNL     1      -2.254  12.023  18.854  0.00  0.00    +0.000 NA
ATOM     29  C   UNL     1      -3.388  11.814  18.154  0.00  0.00    +0.000 A 
ATOM     30  C   UNL     1      -3.612  10.694  17.379  0.00  0.00    +0.000 A 
ATOM     31  C   UNL     1      -2.556   9.806  17.197  0.00  0.00    +0.000 A 
ATOM     32  C   UNL     1      -1.320  10.047  17.824  0.00  0.00    +0.000 A 
ATOM     33  C   UNL     1      -0.167   9.264  17.582  0.00  0.00    +0.000 A 
ENDBRANCH  23  24
ENDBRANCH   7  23
TORSDOF 7
ENDMDL
MODEL 3
REMARK VINA RESULT:      -8.7      1.529      2.171
REMARK  Name = 
REMARK  8 active torsions:
REMARK  status: ('A' for Active; 'I' for Inactive)
REMARK    1  A    between atoms: C_1  and  C_2
REMARK    2  A    between atoms: C_2  and  C_11
REMARK    3  A    between atoms: N_3  and  O_4
REMARK    4  A    between atoms: O_4  and  C_5
REMARK    5  A    between atoms: C_5  and  C_6
REMARK    6  A    between atoms: C_6  and  N_7
REMARK    7  A    between atoms: N_17  and  C_18
REMARK    8  A    between atoms: C_18  and  C_19
REMARK                            x       y       z     vdW  Elec       q    Type
REMARK                         _______ _______ _______ _____ _____    ______ ____
ROOT
ATOM      1  C   UNL     1       4.218   3.900  17.605  0.00  0.00    +0.000 A 
ATOM      2  C   UNL     1       3.413   2.877  17.091  0.00  0.00    +0.000 A 
ATOM      3  N   UNL     1       2.183   2.547  17.573  0.00  0.00    +0.000 NA
ATOM      4  C   UNL     1       1.822   3.310  18.637  0.00  0.00    +0.000 A 
ATOM      5  N   UNL     1       0.668   3.253  19.363  0.00  0.00    +0.000 NA
ATOM      6  N   UNL     1       0.736   4.183  20.316  0.00  0.00    +0.000 NA
ATOM      7  N   UNL     1       1.936   4.799  20.197  0.00  0.00    +0.000 N 
ATOM      8  C   UNL     1       2.646   4.313  19.136  0.00  0.00    +0.000 A 
ATOM      9  N   UNL     1       3.859   4.685  18.662  0.00  0.00    +0.000 NA
ENDROOT
BRANCH   1  11
ATOM     10  C   UNL     1       6.565   4.894  17.869  0.00  0.00    +0.000 C 
ATOM     11  C   UNL     1       5.557   4.167  16.999  0.00  0.00    +0.000 C 
ATOM     12  N   UNL     1       5.784   3.777  15.777  0.00  0.00    +0.000 NA
BRANCH  12  13
ATOM     13  O   UNL     1       7.088   4.075  15.366  0.00  0.00    +0.000 OA
BRANCH  13  14
ATOM     14  C   UNL     1       7.042   4.852  14.165  0.00  0.00    +0.000 C 
BRANCH  14  15
ATOM     15  C   UNL     1       6.002   4.256  13.214  0.00  0.00    +0.000 C 
BRANCH  15  16
ATOM     16  N   UNL     1       6.379   2.971  12.652  0.00  0.00    +0.000 N 
ATOM     17  C   UNL     1       5.602   2.310  11.757  0.00  0.00    +0.000 C 
ATOM     18  N   UNL     1       6.151   1.145  11.332  0.00  0.00    +0.000 N 
ATOM     19  O   UNL     1       4.523   2.707  11.318  0.00  0.00    +0.000 OA
ATOM     20  H   UNL     1       7.258   2.562  12.925  0.00  0.00    +0.000 HD
ATOM     21  H   UNL     1       6.799   0.645  11.922  0.00  0.00    +0.000 HD
ATOM     22  H   UNL     1       5.554   0.585  10.740  0.00  0.00    +0.000 HD
ENDBRANCH  15  16
ENDBRANCH  14  15
ENDBRANCH  13  14
ENDBRANCH  12  13
ENDBRANCH   1  11
BRANCH   7  23
ATOM     23  C   UNL     1       2.275   5.924  21.042  0.00  0.00    +0.000 C 
BRANCH  23  24
ATOM     24  C   UNL     1       1.866   7.253  20.454  0.00  0.00    +0.000 A 
ATOM     25  C   UNL     1       2.299   7.611  19.174  0.00  0.00    +0.000 A 
ATOM     26  C   UNL     1       1.754   8.726  18.532  0.00  0.00    +0.000 A 
ATOM     27  C   UNL     1       0.818   9.542  19.147  0.00  0.00    +0.000 A 
ATOM     28  N   UNL     1       0.238  10.526  18.438  0.00  0.00    +0.000 NA
ATOM     29  C   UNL     1      -0.610  11.354  19.082  0.00  0.00    +0.000 A 
ATOM     30  C   UNL     1      -0.845  11.302  20.441  0.00  0.00    +0.000 A 
ATOM     31  C   UNL     1      -0.288  10.248  21.158  0.00  0.00    +0.000 A 
ATOM     32  C   UNL     1       0.517   9.299  20.501  0.00  0.00    +0.000 A 
ATOM     33  C   UNL     1       1.008   8.132  21.133  0.00  0.00    +0.000 A 
ENDBRANCH  23  24
ENDBRANCH   7  23
TORSDOF 7
ENDMDL
MODEL 4
REMARK VINA RESULT:      -8.6      3.498      8.694
REMARK  Name = 
REMARK  8 active torsions:
REMARK  status: ('A' for Active; 'I' for Inactive)
REMARK    1  A    between atoms: C_1  and  C_2
REMARK    2  A    between atoms: C_2  and  C_11
REMARK    3  A    between atoms: N_3  and  O_4
REMARK    4  A    between atoms: O_4  and  C_5
REMARK    5  A    between atoms: C_5  and  C_6
REMARK    6  A    between atoms: C_6  and  N_7
REMARK    7  A    between atoms: N_17  and  C_18
REMARK    8  A    between atoms: C_18  and  C_19
REMARK                            x       y       z     vdW  Elec       q    Type
REMARK                         _______ _______ _______ _____ _____    ______ ____
ROOT
ATOM      1  C   UNL     1       2.174   6.387  19.391  0.00  0.00    +0.000 A 
ATOM      2  C   UNL     1       1.486   6.002  20.548  0.00  0.00    +0.000 A 
ATOM      3  N   UNL     1       1.433   4.729  21.027  0.00  0.00    +0.000 NA
ATOM      4  C   UNL     1       2.108   3.851  20.240  0.00  0.00    +0.000 A 
ATOM      5  N   UNL     1       2.260   2.506  20.414  0.00  0.00    +0.000 NA
ATOM      6  N   UNL     1       2.994   2.042  19.404  0.00  0.00    +0.000 NA
ATOM      7  N   UNL     1       3.278   3.088  18.593  0.00  0.00    +0.000 N 
ATOM      8  C   UNL     1       2.774   4.257  19.088  0.00  0.00    +0.000 A 
ATOM      9  N   UNL     1       2.870   5.517  18.602  0.00  0.00    +0.000 NA
ENDROOT
BRANCH   1  11
ATOM     10  C   UNL     1       3.006   8.171  17.751  0.00  0.00    +0.000 C 
ATOM     11  C   UNL     1       2.155   7.816  18.956  0.00  0.00    +0.000 C 
ATOM     12  N   UNL     1       1.430   8.667  19.624  0.00  0.00    +0.000 NA
BRANCH  12  13
ATOM     13  O   UNL     1       1.498   9.953  19.076  0.00  0.00    +0.000 OA
BRANCH  13  14
ATOM     14  C   UNL     1       0.266  10.640  19.323  0.00  0.00    +0.000 C 
BRANCH  14  15
ATOM     15  C   UNL     1       0.309  11.278  20.712  0.00  0.00    +0.000 C 
BRANCH  15  16
ATOM     16  N   UNL     1       0.394  10.322  21.803  0.00  0.00    +0.000 N 
ATOM     17  C   UNL     1      -0.489  10.310  22.833  0.00  0.00    +0.000 C 
ATOM     18  N   UNL     1      -0.254   9.319  23.727  0.00  0.00    +0.000 N 
ATOM     19  O   UNL     1      -1.444  11.076  22.963  0.00  0.00    +0.000 OA
ATOM     20  H   UNL     1       1.126   9.630  21.785  0.00  0.00    +0.000 HD
ATOM     21  H   UNL     1       0.678   8.950  23.842  0.00  0.00    +0.000 HD
ATOM     22  H   UNL     1      -0.835   9.344  24.552  0.00  0.00    +0.000 HD
ENDBRANCH  15  16
ENDBRANCH  14  15
ENDBRANCH  13  14
ENDBRANCH  12  13
ENDBRANCH   1  11
BRANCH   7  23
ATOM     23  C   UNL     1       4.140   2.919  17.444  0.00  0.00    +0.000 C 
BRANCH  23  24
ATOM     24  C   UNL     1       5.084   4.079  17.233  0.00  0.00    +0.000 A 
ATOM     25  C   UNL     1       5.001   4.838  16.061  0.00  0.00    +0.000 A 
ATOM     26  C   UNL     1       5.708   6.039  15.949  0.00  0.00    +0.000 A 
ATOM     27  C   UNL     1       6.548   6.492  16.954  0.00  0.00    +0.000 A 
ATOM     28  N   UNL     1       7.104   7.711  16.844  0.00  0.00    +0.000 NA
ATOM     29  C   UNL     1       7.978   8.096  17.797  0.00  0.00    +0.000 A 
ATOM     30  C   UNL     1       8.398   7.276  18.824  0.00  0.00    +0.000 A 
ATOM     31  C   UNL     1       7.777   6.039  18.966  0.00  0.00    +0.000 A 
ATOM     32  C   UNL     1       6.781   5.645  18.054  0.00  0.00    +0.000 A 
ATOM     33  C   UNL     1       6.016   4.465  18.209  0.00  0.00    +0.000 A 
ENDBRANCH  23  24
ENDBRANCH   7  23
TORSDOF 7
ENDMDL
MODEL 5
REMARK VINA RESULT:      -8.6      3.645      8.316
REMARK  Name = 
REMARK  8 active torsions:
REMARK  status: ('A' for Active; 'I' for Inactive)
REMARK    1  A    between atoms: C_1  and  C_2
REMARK    2  A    between atoms: C_2  and  C_11
REMARK    3  A    between atoms: N_3  and  O_4
REMARK    4  A    between atoms: O_4  and  C_5
REMARK    5  A    between atoms: C_5  and  C_6
REMARK    6  A    between atoms: C_6  and  N_7
REMARK    7  A    between atoms: N_17  and  C_18
REMARK    8  A    between atoms: C_18  and  C_19
REMARK                            x       y       z     vdW  Elec       q    Type
REMARK                         _______ _______ _______ _____ _____    ______ ____
ROOT
ATOM      1  C   UNL     1       2.180   6.336  19.515  0.00  0.00    +0.000 A 
ATOM      2  C   UNL     1       1.579   5.889  20.697  0.00  0.00    +0.000 A 
ATOM      3  N   UNL     1       1.618   4.604  21.145  0.00  0.00    +0.000 NA
ATOM      4  C   UNL     1       2.290   3.781  20.299  0.00  0.00    +0.000 A 
ATOM      5  N   UNL     1       2.520   2.443  20.429  0.00  0.00    +0.000 NA
ATOM      6  N   UNL     1       3.219   2.041  19.367  0.00  0.00    +0.000 NA
ATOM      7  N   UNL     1       3.402   3.119  18.569  0.00  0.00    +0.000 N 
ATOM      8  C   UNL     1       2.868   4.248  19.123  0.00  0.00    +0.000 A 
ATOM      9  N   UNL     1       2.872   5.523  18.665  0.00  0.00    +0.000 NA
ENDROOT
BRANCH   1  11
ATOM     10  C   UNL     1       2.812   8.196  17.869  0.00  0.00    +0.000 C 
ATOM     11  C   UNL     1       2.064   7.772  19.119  0.00  0.00    +0.000 C 
ATOM     12  N   UNL     1       1.347   8.572  19.857  0.00  0.00    +0.000 NA
BRANCH  12  13
ATOM     13  O   UNL     1       1.316   9.872  19.340  0.00  0.00    +0.000 OA
BRANCH  13  14
ATOM     14  C   UNL     1       0.856  10.774  20.351  0.00  0.00    +0.000 C 
BRANCH  14  15
ATOM     15  C   UNL     1      -0.629  11.066  20.135  0.00  0.00    +0.000 C 
BRANCH  15  16
ATOM     16  N   UNL     1      -0.937  11.664  18.848  0.00  0.00    +0.000 N 
ATOM     17  C   UNL     1      -1.712  11.046  17.922  0.00  0.00    +0.000 C 
ATOM     18  N   UNL     1      -1.904  11.789  16.804  0.00  0.00    +0.000 N 
ATOM     19  O   UNL     1      -2.240   9.942  18.056  0.00  0.00    +0.000 OA
ATOM     20  H   UNL     1      -0.574  12.582  18.642  0.00  0.00    +0.000 HD
ATOM     21  H   UNL     1      -1.218  12.477  16.528  0.00  0.00    +0.000 HD
ATOM     22  H   UNL     1      -2.396  11.317  16.059  0.00  0.00    +0.000 HD
ENDBRANCH  15  16
ENDBRANCH  14  15
ENDBRANCH  13  14
ENDBRANCH  12  13
ENDBRANCH   1  11
BRANCH   7  23
ATOM     23  C   UNL     1       4.206   3.023  17.371  0.00  0.00    +0.000 C 
BRANCH  23  24
ATOM     24  C   UNL     1       5.141   4.194  17.185  0.00  0.00    +0.000 A 
ATOM     25  C   UNL     1       5.047   4.983  16.035  0.00  0.00    +0.000 A 
ATOM     26  C   UNL     1       5.745   6.191  15.951  0.00  0.00    +0.000 A 
ATOM     27  C   UNL     1       6.588   6.623  16.963  0.00  0.00    +0.000 A 
ATOM     28  N   UNL     1       7.137   7.848  16.883  0.00  0.00    +0.000 NA
ATOM     29  C   UNL     1       8.014   8.212  17.841  0.00  0.00    +0.000 A 
ATOM     30  C   UNL     1       8.445   7.367  18.843  0.00  0.00    +0.000 A 
ATOM     31  C   UNL     1       7.832   6.123  18.955  0.00  0.00    +0.000 A 
ATOM     32  C   UNL     1       6.833   5.747  18.038  0.00  0.00    +0.000 A 
ATOM     33  C   UNL     1       6.077   4.559  18.166  0.00  0.00    +0.000 A 
ENDBRANCH  23  24
ENDBRANCH   7  23
TORSDOF 7
ENDMDL
MODEL 6
REMARK VINA RESULT:      -8.5      3.737      8.280
REMARK  Name = 
REMARK  8 active torsions:
REMARK  status: ('A' for Active; 'I' for Inactive)
REMARK    1  A    between atoms: C_1  and  C_2
REMARK    2  A    between atoms: C_2  and  C_11
REMARK    3  A    between atoms: N_3  and  O_4
REMARK    4  A    between atoms: O_4  and  C_5
REMARK    5  A    between atoms: C_5  and  C_6
REMARK    6  A    between atoms: C_6  and  N_7
REMARK    7  A    between atoms: N_17  and  C_18
REMARK    8  A    between atoms: C_18  and  C_19
REMARK                            x       y       z     vdW  Elec       q    Type
REMARK                         _______ _______ _______ _____ _____    ______ ____
ROOT
ATOM      1  C   UNL     1       2.212   6.115  19.678  0.00  0.00    +0.000 A 
ATOM      2  C   UNL     1       1.697   5.547  20.849  0.00  0.00    +0.000 A 
ATOM      3  N   UNL     1       1.783   4.227  21.169  0.00  0.00    +0.000 NA
ATOM      4  C   UNL     1       2.411   3.501  20.208  0.00  0.00    +0.000 A 
ATOM      5  N   UNL     1       2.667   2.161  20.196  0.00  0.00    +0.000 NA
ATOM      6  N   UNL     1       3.301   1.875  19.058  0.00  0.00    +0.000 NA
ATOM      7  N   UNL     1       3.416   3.027  18.356  0.00  0.00    +0.000 N 
ATOM      8  C   UNL     1       2.903   4.088  19.047  0.00  0.00    +0.000 A 
ATOM      9  N   UNL     1       2.859   5.400  18.713  0.00  0.00    +0.000 NA
ENDROOT
BRANCH   1  11
ATOM     10  C   UNL     1       2.631   8.117  18.134  0.00  0.00    +0.000 C 
ATOM     11  C   UNL     1       2.050   7.579  19.429  0.00  0.00    +0.000 C 
ATOM     12  N   UNL     1       1.437   8.305  20.320  0.00  0.00    +0.000 NA
BRANCH  12  13
ATOM     13  O   UNL     1       1.343   9.645  19.928  0.00  0.00    +0.000 OA
BRANCH  13  14
ATOM     14  C   UNL     1      -0.019  10.074  20.026  0.00  0.00    +0.000 C 
BRANCH  14  15
ATOM     15  C   UNL     1      -0.303  11.117  18.944  0.00  0.00    +0.000 C 
BRANCH  15  16
ATOM     16  N   UNL     1       0.874  11.545  18.208  0.00  0.00    +0.000 N 
ATOM     17  C   UNL     1       1.394  12.793  18.323  0.00  0.00    +0.000 C 
ATOM     18  N   UNL     1       2.512  12.977  17.578  0.00  0.00    +0.000 N 
ATOM     19  O   UNL     1       0.953  13.685  19.048  0.00  0.00    +0.000 OA
ATOM     20  H   UNL     1       1.333  10.884  17.601  0.00  0.00    +0.000 HD
ATOM     21  H   UNL     1       2.659  12.431  16.742  0.00  0.00    +0.000 HD
ATOM     22  H   UNL     1       2.865  13.923  17.569  0.00  0.00    +0.000 HD
ENDBRANCH  15  16
ENDBRANCH  14  15
ENDBRANCH  13  14
ENDBRANCH  12  13
ENDBRANCH   1  11
BRANCH   7  23
ATOM     23  C   UNL     1       4.141   3.059  17.105  0.00  0.00    +0.000 C 
BRANCH  23  24
ATOM     24  C   UNL     1       5.067   4.245  16.984  0.00  0.00    +0.000 A 
ATOM     25  C   UNL     1       4.941   5.120  15.901  0.00  0.00    +0.000 A 
ATOM     26  C   UNL     1       5.634   6.334  15.891  0.00  0.00    +0.000 A 
ATOM     27  C   UNL     1       6.502   6.690  16.910  0.00  0.00    +0.000 A 
ATOM     28  N   UNL     1       7.045   7.921  16.909  0.00  0.00    +0.000 NA
ATOM     29  C   UNL     1       7.947   8.215  17.868  0.00  0.00    +0.000 A 
ATOM     30  C   UNL     1       8.407   7.298  18.792  0.00  0.00    +0.000 A 
ATOM     31  C   UNL     1       7.801   6.046  18.824  0.00  0.00    +0.000 A 
ATOM     32  C   UNL     1       6.778   5.737  17.908  0.00  0.00    +0.000 A 
ATOM     33  C   UNL     1       6.028   4.539  17.965  0.00  0.00    +0.000 A 
ENDBRANCH  23  24
ENDBRANCH   7  23
TORSDOF 7
ENDMDL
MODEL 7
REMARK VINA RESULT:      -8.5      2.803      4.433
REMARK  Name = 
REMARK  8 active torsions:
REMARK  status: ('A' for Active; 'I' for Inactive)
REMARK    1  A    between atoms: C_1  and  C_2
REMARK    2  A    between atoms: C_2  and  C_11
REMARK    3  A    between atoms: N_3  and  O_4
REMARK    4  A    between atoms: O_4  and  C_5
REMARK    5  A    between atoms: C_5  and  C_6
REMARK    6  A    between atoms: C_6  and  N_7
REMARK    7  A    between atoms: N_17  and  C_18
REMARK    8  A    between atoms: C_18  and  C_19
REMARK                            x       y       z     vdW  Elec       q    Type
REMARK                         _______ _______ _______ _____ _____    ______ ____
ROOT
ATOM      1  C   UNL     1       2.825   5.727  18.701  0.00  0.00    +0.000 A 
ATOM      2  C   UNL     1       2.659   5.062  19.921  0.00  0.00    +0.000 A 
ATOM      3  N   UNL     1       2.090   5.611  21.029  0.00  0.00    +0.000 NA
ATOM      4  C   UNL     1       1.715   6.902  20.833  0.00  0.00    +0.000 A 
ATOM      5  N   UNL     1       1.122   7.753  21.719  0.00  0.00    +0.000 NA
ATOM      6  N   UNL     1       0.934   8.920  21.105  0.00  0.00    +0.000 NA
ATOM      7  N   UNL     1       1.429   8.804  19.850  0.00  0.00    +0.000 N 
ATOM      8  C   UNL     1       1.903   7.545  19.613  0.00  0.00    +0.000 A 
ATOM      9  N   UNL     1       2.438   7.018  18.486  0.00  0.00    +0.000 NA
ENDROOT
BRANCH   1  11
ATOM     10  C   UNL     1       2.992   3.615  17.259  0.00  0.00    +0.000 C 
ATOM     11  C   UNL     1       3.473   5.024  17.553  0.00  0.00    +0.000 C 
ATOM     12  N   UNL     1       4.402   5.641  16.881  0.00  0.00    +0.000 NA
BRANCH  12  13
ATOM     13  O   UNL     1       4.888   4.863  15.824  0.00  0.00    +0.000 OA
BRANCH  13  14
ATOM     14  C   UNL     1       6.176   5.347  15.430  0.00  0.00    +0.000 C 
BRANCH  14  15
ATOM     15  C   UNL     1       7.263   4.517  16.114  0.00  0.00    +0.000 C 
BRANCH  15  16
ATOM     16  N   UNL     1       7.129   4.437  17.558  0.00  0.00    +0.000 N 
ATOM     17  C   UNL     1       7.455   5.466  18.380  0.00  0.00    +0.000 C 
ATOM     18  N   UNL     1       7.224   5.199  19.689  0.00  0.00    +0.000 N 
ATOM     19  O   UNL     1       7.883   6.562  18.016  0.00  0.00    +0.000 OA
ATOM     20  H   UNL     1       6.763   3.590  17.965  0.00  0.00    +0.000 HD
ATOM     21  H   UNL     1       7.240   4.246  20.023  0.00  0.00    +0.000 HD
ATOM     22  H   UNL     1       7.546   5.908  20.331  0.00  0.00    +0.000 HD
ENDBRANCH  15  16
ENDBRANCH  14  15
ENDBRANCH  13  14
ENDBRANCH  12  13
ENDBRANCH   1  11
BRANCH   7  23
ATOM     23  C   UNL     1       1.295   9.887  18.900  0.00  0.00    +0.000 C 
BRANCH  23  24
ATOM     24  C   UNL     1      -0.143  10.224  18.583  0.00  0.00    +0.000 A 
ATOM     25  C   UNL     1      -0.871  11.048  19.447  0.00  0.00    +0.000 A 
ATOM     26  C   UNL     1      -2.117  11.548  19.059  0.00  0.00    +0.000 A 
ATOM     27  C   UNL     1      -2.698  11.210  17.847  0.00  0.00    +0.000 A 
ATOM     28  N   UNL     1      -3.839  11.818  17.475  0.00  0.00    +0.000 NA
ATOM     29  C   UNL     1      -4.424  11.415  16.328  0.00  0.00    +0.000 A 
ATOM     30  C   UNL     1      -3.967  10.358  15.567  0.00  0.00    +0.000 A 
ATOM     31  C   UNL     1      -2.757   9.772  15.925  0.00  0.00    +0.000 A 
ATOM     32  C   UNL     1      -2.059  10.237  17.056  0.00  0.00    +0.000 A 
ATOM     33  C   UNL     1      -0.766   9.782  17.405  0.00  0.00    +0.000 A 
ENDBRANCH  23  24
ENDBRANCH   7  23
TORSDOF 7
ENDMDL
MODEL 8
REMARK VINA RESULT:      -8.4      5.245     10.245
REMARK  Name = 
REMARK  8 active torsions:
REMARK  status: ('A' for Active; 'I' for Inactive)
REMARK    1  A    between atoms: C_1  and  C_2
REMARK    2  A    between atoms: C_2  and  C_11
REMARK    3  A    between atoms: N_3  and  O_4
REMARK    4  A    between atoms: O_4  and  C_5
REMARK    5  A    between atoms: C_5  and  C_6
REMARK    6  A    between atoms: C_6  and  N_7
REMARK    7  A    between atoms: N_17  and  C_18
REMARK    8  A    between atoms: C_18  and  C_19
REMARK                            x       y       z     vdW  Elec       q    Type
REMARK                         _______ _______ _______ _____ _____    ______ ____
ROOT
ATOM      1  C   UNL     1      -1.717  11.198  18.799  0.00  0.00    +0.000 A 
ATOM      2  C   UNL     1      -1.139  12.459  18.987  0.00  0.00    +0.000 A 
ATOM      3  N   UNL     1      -0.096  12.713  19.824  0.00  0.00    +0.000 NA
ATOM      4  C   UNL     1       0.317  11.603  20.489  0.00  0.00    +0.000 A 
ATOM      5  N   UNL     1       1.325  11.492  21.401  0.00  0.00    +0.000 NA
ATOM      6  N   UNL     1       1.381  10.221  21.799  0.00  0.00    +0.000 NA
ATOM      7  N   UNL     1       0.396   9.550  21.156  0.00  0.00    +0.000 N 
ATOM      8  C   UNL     1      -0.283  10.363  20.293  0.00  0.00    +0.000 A 
ATOM      9  N   UNL     1      -1.300  10.072  19.448  0.00  0.00    +0.000 NA
ENDROOT
BRANCH   1  11
ATOM     10  C   UNL     1      -2.653  10.116  16.673  0.00  0.00    +0.000 C 
ATOM     11  C   UNL     1      -2.866  11.040  17.858  0.00  0.00    +0.000 C 
ATOM     12  N   UNL     1      -3.967  11.695  18.093  0.00  0.00    +0.000 NA
BRANCH  12  13
ATOM     13  O   UNL     1      -4.954  11.420  17.139  0.00  0.00    +0.000 OA
BRANCH  13  14
ATOM     14  C   UNL     1      -5.993  12.398  17.236  0.00  0.00    +0.000 C 
BRANCH  14  15
ATOM     15  C   UNL     1      -7.066  11.906  18.208  0.00  0.00    +0.000 C 
BRANCH  15  16
ATOM     16  N   UNL     1      -7.046  10.472  18.439  0.00  0.00    +0.000 N 
ATOM     17  C   UNL     1      -7.031   9.933  19.683  0.00  0.00    +0.000 C 
ATOM     18  N   UNL     1      -7.048   8.577  19.678  0.00  0.00    +0.000 N 
ATOM     19  O   UNL     1      -7.039  10.570  20.737  0.00  0.00    +0.000 OA
ATOM     20  H   UNL     1      -7.063   9.853  17.643  0.00  0.00    +0.000 HD
ATOM     21  H   UNL     1      -6.677   8.068  18.890  0.00  0.00    +0.000 HD
ATOM     22  H   UNL     1      -6.940   8.147  20.586  0.00  0.00    +0.000 HD
ENDBRANCH  15  16
ENDBRANCH  14  15
ENDBRANCH  13  14
ENDBRANCH  12  13
ENDBRANCH   1  11
BRANCH   7  23
ATOM     23  C   UNL     1       0.253   8.119  21.314  0.00  0.00    +0.000 C 
BRANCH  23  24
ATOM     24  C   UNL     1       1.312   7.331  20.582  0.00  0.00    +0.000 A 
ATOM     25  C   UNL     1       1.594   6.017  20.969  0.00  0.00    +0.000 A 
ATOM     26  C   UNL     1       2.402   5.205  20.169  0.00  0.00    +0.000 A 
ATOM     27  C   UNL     1       2.993   5.676  19.007  0.00  0.00    +0.000 A 
ATOM     28  N   UNL     1       3.658   4.816  18.215  0.00  0.00    +0.000 NA
ATOM     29  C   UNL     1       4.290   5.315  17.132  0.00  0.00    +0.000 A 
ATOM     30  C   UNL     1       4.365   6.662  16.844  0.00  0.00    +0.000 A 
ATOM     31  C   UNL     1       3.628   7.539  17.633  0.00  0.00    +0.000 A 
ATOM     32  C   UNL     1       2.868   7.046  18.710  0.00  0.00    +0.000 A 
ATOM     33  C   UNL     1       1.994   7.856  19.472  0.00  0.00    +0.000 A 
ENDBRANCH  23  24
ENDBRANCH   7  23
TORSDOF 7
ENDMDL
MODEL 9
REMARK VINA RESULT:      -8.3      2.996      4.557
REMARK  Name = 
REMARK  8 active torsions:
REMARK  status: ('A' for Active; 'I' for Inactive)
REMARK    1  A    between atoms: C_1  and  C_2
REMARK    2  A    between atoms: C_2  and  C_11
REMARK    3  A    between atoms: N_3  and  O_4
REMARK    4  A    between atoms: O_4  and  C_5
REMARK    5  A    between atoms: C_5  and  C_6
REMARK    6  A    between atoms: C_6  and  N_7
REMARK    7  A    between atoms: N_17  and  C_18
REMARK    8  A    between atoms: C_18  and  C_19
REMARK                            x       y       z     vdW  Elec       q    Type
REMARK                         _______ _______ _______ _____ _____    ______ ____
ROOT
ATOM      1  C   UNL     1       2.994   6.607  18.544  0.00  0.00    +0.000 A 
ATOM      2  C   UNL     1       2.795   5.646  19.541  0.00  0.00    +0.000 A 
ATOM      3  N   UNL     1       2.057   5.843  20.668  0.00  0.00    +0.000 NA
ATOM      4  C   UNL     1       1.546   7.100  20.739  0.00  0.00    +0.000 A 
ATOM      5  N   UNL     1       0.769   7.640  21.721  0.00  0.00    +0.000 NA
ATOM      6  N   UNL     1       0.497   8.900  21.382  0.00  0.00    +0.000 NA
ATOM      7  N   UNL     1       1.121   9.150  20.207  0.00  0.00    +0.000 N 
ATOM      8  C   UNL     1       1.769   8.042  19.739  0.00  0.00    +0.000 A 
ATOM      9  N   UNL     1       2.472   7.867  18.595  0.00  0.00    +0.000 NA
ENDROOT
BRANCH   1  11
ATOM     10  C   UNL     1       4.179   7.431  16.427  0.00  0.00    +0.000 C 
ATOM     11  C   UNL     1       3.832   6.279  17.352  0.00  0.00    +0.000 C 
ATOM     12  N   UNL     1       4.208   5.046  17.168  0.00  0.00    +0.000 NA
BRANCH  12  13
ATOM     13  O   UNL     1       5.007   4.908  16.026  0.00  0.00    +0.000 OA
BRANCH  13  14
ATOM     14  C   UNL     1       5.990   3.893  16.255  0.00  0.00    +0.000 C 
BRANCH  14  15
ATOM     15  C   UNL     1       7.367   4.542  16.395  0.00  0.00    +0.000 C 
BRANCH  15  16
ATOM     16  N   UNL     1       7.341   5.995  16.411  0.00  0.00    +0.000 N 
ATOM     17  C   UNL     1       7.572   6.716  17.537  0.00  0.00    +0.000 C 
ATOM     18  N   UNL     1       7.535   8.055  17.329  0.00  0.00    +0.000 N 
ATOM     19  O   UNL     1       7.833   6.247  18.645  0.00  0.00    +0.000 OA
ATOM     20  H   UNL     1       7.161   6.486  15.550  0.00  0.00    +0.000 HD
ATOM     21  H   UNL     1       6.982   8.437  16.575  0.00  0.00    +0.000 HD
ATOM     22  H   UNL     1       7.608   8.618  18.165  0.00  0.00    +0.000 HD
ENDBRANCH  15  16
ENDBRANCH  14  15
ENDBRANCH  13  14
ENDBRANCH  12  13
ENDBRANCH   1  11
BRANCH   7  23
ATOM     23  C   UNL     1       0.946  10.417  19.532  0.00  0.00    +0.000 C 
BRANCH  23  24
ATOM     24  C   UNL     1      -0.441  10.600  18.962  0.00  0.00    +0.000 A 
ATOM     25  C   UNL     1      -1.362  11.419  19.622  0.00  0.00    +0.000 A 
ATOM     26  C   UNL     1      -2.561  11.775  18.998  0.00  0.00    +0.000 A 
ATOM     27  C   UNL     1      -2.906  11.295  17.745  0.00  0.00    +0.000 A 
ATOM     28  N   UNL     1      -4.012  11.767  17.143  0.00  0.00    +0.000 NA
ATOM     29  C   UNL     1      -4.368  11.227  15.959  0.00  0.00    +0.000 A 
ATOM     30  C   UNL     1      -3.713  10.159  15.379  0.00  0.00    +0.000 A 
ATOM     31  C   UNL     1      -2.538   9.713  15.977  0.00  0.00    +0.000 A 
ATOM     32  C   UNL     1      -2.074  10.324  17.156  0.00  0.00    +0.000 A 
ATOM     33  C   UNL     1      -0.826  10.014  17.745  0.00  0.00    +0.000 A 
ENDBRANCH  23  24
ENDBRANCH   7  23
TORSDOF 7
ENDMDL
