MODEL 1
REMARK VINA RESULT:      -9.7      0.000      0.000
REMARK  Name = 
REMARK  9 active torsions:
REMARK  status: ('A' for Active; 'I' for Inactive)
REMARK    1  A    between atoms: C_1  and  C_2
REMARK    2  A    between atoms: C_6  and  N_7
REMARK    3  A    between atoms: C_8  and  C_10
REMARK    4  A    between atoms: C_13  and  O_14
REMARK    5  A    between atoms: O_14  and  C_15
REMARK    6  A    between atoms: C_15  and  C_16
REMARK    7  A    between atoms: C_18  and  C_19
REMARK    8  A    between atoms: C_29  and  C_30
REMARK    9  A    between atoms: N_32  and  O_33
REMARK                            x       y       z     vdW  Elec       q    Type
REMARK                         _______ _______ _______ _____ _____    ______ ____
ROOT
ATOM      1  C   UNL     1       1.892   7.432  20.098  0.00  0.00    +0.000 A 
ATOM      2  C   UNL     1       2.029   6.195  20.731  0.00  0.00    +0.000 A 
ATOM      3  C   UNL     1       2.658   5.078  20.053  0.00  0.00    +0.000 A 
ATOM      4  C   UNL     1       3.162   5.146  18.726  0.00  0.00    +0.000 A 
ATOM      5  C   UNL     1       3.075   6.388  18.128  0.00  0.00    +0.000 A 
ATOM      6  C   UNL     1       2.450   7.496  18.795  0.00  0.00    +0.000 A 
ENDROOT
BRANCH   1   8
ATOM      7  N   UNL     1       0.737   9.737  19.818  0.00  0.00    +0.000 N 
ATOM      8  C   UNL     1       1.165   8.689  20.649  0.00  0.00    +0.000 C 
ATOM      9  O   UNL     1       0.980   8.766  21.864  0.00  0.00    +0.000 OA
ATOM     10  H   UNL     1       0.782   9.627  18.809  0.00  0.00    +0.000 HD
BRANCH   7  16
ATOM     11  C   UNL     1      -2.795  12.059  23.480  0.00  0.00    +0.000 C 
ATOM     12  C   UNL     1      -2.632  12.736  22.155  0.00  0.00    +0.000 C 
ATOM     13  O   UNL     1      -3.217  13.796  21.914  0.00  0.00    +0.000 OA
ATOM     14  N   UNL     1      -1.777  12.150  21.247  0.00  0.00    +0.000 N 
ATOM     15  C   UNL     1      -1.095  10.850  21.297  0.00  0.00    +0.000 C 
ATOM     16  C   UNL     1       0.097  11.004  20.319  0.00  0.00    +0.000 C 
ATOM     17  C   UNL     1      -0.491  11.976  19.243  0.00  0.00    +0.000 C 
ATOM     18  C   UNL     1      -1.572  12.793  19.974  0.00  0.00    +0.000 C 
BRANCH  17  19
ATOM     19  C   UNL     1      -1.105  11.305  18.031  0.00  0.00    +0.000 C 
ATOM     20  O   UNL     1      -1.006  10.104  17.775  0.00  0.00    +0.000 OA
ATOM     21  N   UNL     1      -1.757  12.152  17.161  0.00  0.00    +0.000 N 
ATOM     22  H   UNL     1      -2.134  13.060  17.425  0.00  0.00    +0.000 HD
BRANCH  21  23
ATOM     23  O   UNL     1      -2.402  11.524  16.071  0.00  0.00    +0.000 OA
ATOM     24  H   UNL     1      -2.358  12.210  15.370  0.00  0.00    +0.000 HD
ENDBRANCH  21  23
ENDBRANCH  17  19
ENDBRANCH   7  16
ENDBRANCH   1   8
BRANCH   4  25
ATOM     25  O   UNL     1       3.654   4.000  18.140  0.00  0.00    +0.000 OA
BRANCH  25  26
ATOM     26  C   UNL     1       3.859   3.738  16.679  0.00  0.00    +0.000 C 
BRANCH  26  27
ATOM     27  C   UNL     1       5.340   3.857  16.167  0.00  0.00    +0.000 A 
ATOM     28  C   UNL     1       6.134   4.384  17.177  0.00  0.00    +0.000 A 
ATOM     29  C   UNL     1       6.764   5.539  16.806  0.00  0.00    +0.000 A 
ATOM     30  C   UNL     1       5.930   6.807  16.689  0.00  0.00    +0.000 C 
ATOM     31  N   UNL     1       7.589   5.460  15.767  0.00  0.00    +0.000 NA
ATOM     32  C   UNL     1       7.075   4.837  14.708  0.00  0.00    +0.000 A 
ATOM     33  C   UNL     1       7.705   5.221  13.539  0.00  0.00    +0.000 A 
ATOM     34  C   UNL     1       7.332   4.716  12.304  0.00  0.00    +0.000 A 
ATOM     35  C   UNL     1       6.314   3.775  12.293  0.00  0.00    +0.000 A 
ATOM     36  C   UNL     1       5.589   3.446  13.481  0.00  0.00    +0.000 A 
ATOM     37  C   UNL     1       5.912   4.002  14.782  0.00  0.00    +0.000 A 
ENDBRANCH  26  27
ENDBRANCH  25  26
ENDBRANCH   4  25
TORSDOF 7
ENDMDL
MODEL 2
REMARK VINA RESULT:      -9.2      1.539      1.752
REMARK  Name = 
REMARK  9 active torsions:
REMARK  status: ('A' for Active; 'I' for Inactive)
REMARK    1  A    between atoms: C_1  and  C_2
REMARK    2  A    between atoms: C_6  and  N_7
REMARK    3  A    between atoms: C_8  and  C_10
REMARK    4  A    between atoms: C_13  and  O_14
REMARK    5  A    between atoms: O_14  and  C_15
REMARK    6  A    between atoms: C_15  and  C_16
REMARK    7  A    between atoms: C_18  and  C_19
REMARK    8  A    between atoms: C_29  and  C_30
REMARK    9  A    between atoms: N_32  and  O_33
REMARK                            x       y       z     vdW  Elec       q    Type
REMARK                         _______ _______ _______ _____ _____    ______ ____
ROOT
ATOM      1  C   UNL     1       1.876   7.386  20.174  0.00  0.00    +0.000 A 
ATOM      2  C   UNL     1       1.881   6.087  20.686  0.00  0.00    +0.000 A 
ATOM      3  C   UNL     1       2.494   4.998  19.949  0.00  0.00    +0.000 A 
ATOM      4  C   UNL     1       3.113   5.159  18.680  0.00  0.00    +0.000 A 
ATOM      5  C   UNL     1       3.155   6.456  18.207  0.00  0.00    +0.000 A 
ATOM      6  C   UNL     1       2.547   7.535  18.933  0.00  0.00    +0.000 A 
ENDROOT
BRANCH   1   8
ATOM      7  N   UNL     1       0.688   9.685  20.007  0.00  0.00    +0.000 N 
ATOM      8  C   UNL     1       1.186   8.632  20.793  0.00  0.00    +0.000 C 
ATOM      9  O   UNL     1       1.096   8.696  22.019  0.00  0.00    +0.000 OA
ATOM     10  H   UNL     1       0.656   9.585  18.997  0.00  0.00    +0.000 HD
BRANCH   7  16
ATOM     11  C   UNL     1      -3.878  12.886  20.426  0.00  0.00    +0.000 C 
ATOM     12  C   UNL     1      -2.548  13.570  20.497  0.00  0.00    +0.000 C 
ATOM     13  O   UNL     1      -2.475  14.786  20.695  0.00  0.00    +0.000 OA
ATOM     14  N   UNL     1      -1.425  12.781  20.372  0.00  0.00    +0.000 N 
ATOM     15  C   UNL     1      -1.305  11.361  20.015  0.00  0.00    +0.000 C 
ATOM     16  C   UNL     1       0.081  10.942  20.569  0.00  0.00    +0.000 C 
ATOM     17  C   UNL     1       0.905  12.262  20.409  0.00  0.00    +0.000 C 
ATOM     18  C   UNL     1      -0.128  13.402  20.466  0.00  0.00    +0.000 C 
BRANCH  17  19
ATOM     19  C   UNL     1       1.705  12.375  19.128  0.00  0.00    +0.000 C 
ATOM     20  O   UNL     1       1.988  11.423  18.398  0.00  0.00    +0.000 OA
ATOM     21  N   UNL     1       2.170  13.639  18.837  0.00  0.00    +0.000 N 
ATOM     22  H   UNL     1       1.754  14.495  19.198  0.00  0.00    +0.000 HD
BRANCH  21  23
ATOM     23  O   UNL     1       2.847  13.769  17.603  0.00  0.00    +0.000 OA
ATOM     24  H   UNL     1       2.431  14.568  17.212  0.00  0.00    +0.000 HD
ENDBRANCH  21  23
ENDBRANCH  17  19
ENDBRANCH   7  16
ENDBRANCH   1   8
BRANCH   4  25
ATOM     25  O   UNL     1       3.580   4.042  18.019  0.00  0.00    +0.000 OA
BRANCH  25  26
ATOM     26  C   UNL     1       3.781   3.872  16.544  0.00  0.00    +0.000 C 
BRANCH  26  27
ATOM     27  C   UNL     1       5.271   3.936  16.049  0.00  0.00    +0.000 A 
ATOM     28  C   UNL     1       6.066   4.471  17.054  0.00  0.00    +0.000 A 
ATOM     29  C   UNL     1       6.733   5.596  16.657  0.00  0.00    +0.000 A 
ATOM     30  C   UNL     1       5.936   6.882  16.491  0.00  0.00    +0.000 C 
ATOM     31  N   UNL     1       7.568   5.464  15.632  0.00  0.00    +0.000 NA
ATOM     32  C   UNL     1       7.050   4.823  14.585  0.00  0.00    +0.000 A 
ATOM     33  C   UNL     1       7.706   5.155  13.414  0.00  0.00    +0.000 A 
ATOM     34  C   UNL     1       7.334   4.622  12.189  0.00  0.00    +0.000 A 
ATOM     35  C   UNL     1       6.290   3.710  12.192  0.00  0.00    +0.000 A 
ATOM     36  C   UNL     1       5.542   3.437  13.380  0.00  0.00    +0.000 A 
ATOM     37  C   UNL     1       5.864   4.023  14.668  0.00  0.00    +0.000 A 
ENDBRANCH  26  27
ENDBRANCH  25  26
ENDBRANCH   4  25
TORSDOF 7
ENDMDL
MODEL 3
REMARK VINA RESULT:      -9.2      1.386      1.966
REMARK  Name = 
REMARK  9 active torsions:
REMARK  status: ('A' for Active; 'I' for Inactive)
REMARK    1  A    between atoms: C_1  and  C_2
REMARK    2  A    between atoms: C_6  and  N_7
REMARK    3  A    between atoms: C_8  and  C_10
REMARK    4  A    between atoms: C_13  and  O_14
REMARK    5  A    between atoms: O_14  and  C_15
REMARK    6  A    between atoms: C_15  and  C_16
REMARK    7  A    between atoms: C_18  and  C_19
REMARK    8  A    between atoms: C_29  and  C_30
REMARK    9  A    between atoms: N_32  and  O_33
REMARK                            x       y       z     vdW  Elec       q    Type
REMARK                         _______ _______ _______ _____ _____    ______ ____
ROOT
ATOM      1  C   UNL     1       1.501   9.196  19.280  0.00  0.00    +0.000 A 
ATOM      2  C   UNL     1       1.975   8.841  18.015  0.00  0.00    +0.000 A 
ATOM      3  C   UNL     1       2.570   7.539  17.781  0.00  0.00    +0.000 A 
ATOM      4  C   UNL     1       2.723   6.552  18.792  0.00  0.00    +0.000 A 
ATOM      5  C   UNL     1       2.199   6.888  20.025  0.00  0.00    +0.000 A 
ATOM      6  C   UNL     1       1.612   8.177  20.261  0.00  0.00    +0.000 A 
ENDROOT
BRANCH   1   8
ATOM      7  N   UNL     1      -0.195  10.694  20.546  0.00  0.00    +0.000 N 
ATOM      8  C   UNL     1       0.927  10.573  19.710  0.00  0.00    +0.000 C 
ATOM      9  O   UNL     1       1.473  11.590  19.281  0.00  0.00    +0.000 OA
ATOM     10  H   UNL     1      -0.578   9.866  20.995  0.00  0.00    +0.000 HD
BRANCH   7  16
ATOM     11  C   UNL     1      -3.704  13.369  23.983  0.00  0.00    +0.000 C 
ATOM     12  C   UNL     1      -3.541  13.918  22.599  0.00  0.00    +0.000 C 
ATOM     13  O   UNL     1      -4.122  14.953  22.261  0.00  0.00    +0.000 OA
ATOM     14  N   UNL     1      -2.692  13.245  21.749  0.00  0.00    +0.000 N 
ATOM     15  C   UNL     1      -2.017  11.951  21.919  0.00  0.00    +0.000 C 
ATOM     16  C   UNL     1      -0.827  12.006  20.927  0.00  0.00    +0.000 C 
ATOM     17  C   UNL     1      -1.414  12.875  19.766  0.00  0.00    +0.000 C 
ATOM     18  C   UNL     1      -2.488  13.763  20.419  0.00  0.00    +0.000 C 
BRANCH  17  19
ATOM     19  C   UNL     1      -2.035  12.096  18.624  0.00  0.00    +0.000 C 
ATOM     20  O   UNL     1      -2.910  11.239  18.761  0.00  0.00    +0.000 OA
ATOM     21  N   UNL     1      -1.507  12.362  17.379  0.00  0.00    +0.000 N 
ATOM     22  H   UNL     1      -1.022  13.224  17.139  0.00  0.00    +0.000 HD
BRANCH  21  23
ATOM     23  O   UNL     1      -2.135  11.701  16.299  0.00  0.00    +0.000 OA
ATOM     24  H   UNL     1      -3.080  11.941  16.419  0.00  0.00    +0.000 HD
ENDBRANCH  21  23
ENDBRANCH  17  19
ENDBRANCH   7  16
ENDBRANCH   1   8
BRANCH   4  25
ATOM     25  O   UNL     1       3.389   5.384  18.488  0.00  0.00    +0.000 OA
BRANCH  25  26
ATOM     26  C   UNL     1       4.666   4.880  19.088  0.00  0.00    +0.000 C 
BRANCH  26  27
ATOM     27  C   UNL     1       5.893   4.801  18.109  0.00  0.00    +0.000 A 
ATOM     28  C   UNL     1       6.918   5.603  18.594  0.00  0.00    +0.000 A 
ATOM     29  C   UNL     1       7.299   6.569  17.704  0.00  0.00    +0.000 A 
ATOM     30  C   UNL     1       6.366   7.752  17.486  0.00  0.00    +0.000 C 
ATOM     31  N   UNL     1       7.756   6.150  16.529  0.00  0.00    +0.000 NA
ATOM     32  C   UNL     1       6.987   5.236  15.939  0.00  0.00    +0.000 A 
ATOM     33  C   UNL     1       7.180   5.219  14.570  0.00  0.00    +0.000 A 
ATOM     34  C   UNL     1       6.480   4.357  13.741  0.00  0.00    +0.000 A 
ATOM     35  C   UNL     1       5.594   3.482  14.350  0.00  0.00    +0.000 A 
ATOM     36  C   UNL     1       5.313   3.559  15.750  0.00  0.00    +0.000 A 
ATOM     37  C   UNL     1       5.983   4.491  16.639  0.00  0.00    +0.000 A 
ENDBRANCH  26  27
ENDBRANCH  25  26
ENDBRANCH   4  25
TORSDOF 7
ENDMDL
MODEL 4
REMARK VINA RESULT:      -9.1      2.836      5.003
REMARK  Name = 
REMARK  9 active torsions:
REMARK  status: ('A' for Active; 'I' for Inactive)
REMARK    1  A    between atoms: C_1  and  C_2
REMARK    2  A    between atoms: C_6  and  N_7
REMARK    3  A    between atoms: C_8  and  C_10
REMARK    4  A    between atoms: C_13  and  O_14
REMARK    5  A    between atoms: O_14  and  C_15
REMARK    6  A    between atoms: C_15  and  C_16
REMARK    7  A    between atoms: C_18  and  C_19
REMARK    8  A    between atoms: C_29  and  C_30
REMARK    9  A    between atoms: N_32  and  O_33
REMARK                            x       y       z     vdW  Elec       q    Type
REMARK                         _______ _______ _______ _____ _____    ______ ____
ROOT
ATOM      1  C   UNL     1       0.659  10.942  20.320  0.00  0.00    +0.000 A 
ATOM      2  C   UNL     1       0.833   9.657  20.836  0.00  0.00    +0.000 A 
ATOM      3  C   UNL     1       1.365   8.588  20.012  0.00  0.00    +0.000 A 
ATOM      4  C   UNL     1       1.733   8.756  18.649  0.00  0.00    +0.000 A 
ATOM      5  C   UNL     1       1.612  10.043  18.163  0.00  0.00    +0.000 A 
ATOM      6  C   UNL     1       1.084  11.102  18.976  0.00  0.00    +0.000 A 
ENDROOT
BRANCH   1   8
ATOM      7  N   UNL     1      -1.362  12.408  21.020  0.00  0.00    +0.000 N 
ATOM      8  C   UNL     1       0.021  12.160  21.040  0.00  0.00    +0.000 C 
ATOM      9  O   UNL     1       0.767  12.942  21.632  0.00  0.00    +0.000 OA
ATOM     10  H   UNL     1      -1.991  11.709  20.635  0.00  0.00    +0.000 HD
BRANCH   7  16
ATOM     11  C   UNL     1      -2.663  15.107  25.743  0.00  0.00    +0.000 C 
ATOM     12  C   UNL     1      -3.570  15.298  24.567  0.00  0.00    +0.000 C 
ATOM     13  O   UNL     1      -4.533  16.066  24.634  0.00  0.00    +0.000 OA
ATOM     14  N   UNL     1      -3.259  14.615  23.412  0.00  0.00    +0.000 N 
ATOM     15  C   UNL     1      -2.246  13.578  23.173  0.00  0.00    +0.000 C 
ATOM     16  C   UNL     1      -2.012  13.615  21.641  0.00  0.00    +0.000 C 
ATOM     17  C   UNL     1      -3.429  14.012  21.107  0.00  0.00    +0.000 C 
ATOM     18  C   UNL     1      -4.093  14.800  22.251  0.00  0.00    +0.000 C 
BRANCH  17  19
ATOM     19  C   UNL     1      -4.320  12.852  20.714  0.00  0.00    +0.000 C 
ATOM     20  O   UNL     1      -4.177  12.180  19.692  0.00  0.00    +0.000 OA
ATOM     21  N   UNL     1      -5.380  12.614  21.562  0.00  0.00    +0.000 N 
ATOM     22  H   UNL     1      -5.404  12.904  22.538  0.00  0.00    +0.000 HD
BRANCH  21  23
ATOM     23  O   UNL     1      -6.168  11.485  21.248  0.00  0.00    +0.000 OA
ATOM     24  H   UNL     1      -5.676  11.079  20.501  0.00  0.00    +0.000 HD
ENDBRANCH  21  23
ENDBRANCH  17  19
ENDBRANCH   7  16
ENDBRANCH   1   8
BRANCH   4  25
ATOM     25  O   UNL     1       2.137   7.654  17.927  0.00  0.00    +0.000 OA
BRANCH  25  26
ATOM     26  C   UNL     1       3.524   7.100  17.808  0.00  0.00    +0.000 C 
BRANCH  26  27
ATOM     27  C   UNL     1       3.895   5.966  18.831  0.00  0.00    +0.000 A 
ATOM     28  C   UNL     1       5.216   5.585  18.636  0.00  0.00    +0.000 A 
ATOM     29  C   UNL     1       5.346   4.256  18.347  0.00  0.00    +0.000 A 
ATOM     30  C   UNL     1       4.919   3.775  16.968  0.00  0.00    +0.000 C 
ATOM     31  N   UNL     1       4.905   3.401  19.264  0.00  0.00    +0.000 NA
ATOM     32  C   UNL     1       3.683   3.672  19.719  0.00  0.00    +0.000 A 
ATOM     33  C   UNL     1       3.071   2.542  20.231  0.00  0.00    +0.000 A 
ATOM     34  C   UNL     1       1.787   2.575  20.751  0.00  0.00    +0.000 A 
ATOM     35  C   UNL     1       1.148   3.806  20.768  0.00  0.00    +0.000 A 
ATOM     36  C   UNL     1       1.731   4.957  20.152  0.00  0.00    +0.000 A 
ATOM     37  C   UNL     1       3.049   4.945  19.543  0.00  0.00    +0.000 A 
ENDBRANCH  26  27
ENDBRANCH  25  26
ENDBRANCH   4  25
TORSDOF 7
ENDMDL
MODEL 5
REMARK VINA RESULT:      -9.1      3.114      5.731
REMARK  Name = 
REMARK  9 active torsions:
REMARK  status: ('A' for Active; 'I' for Inactive)
REMARK    1  A    between atoms: C_1  and  C_2
REMARK    2  A    between atoms: C_6  and  N_7
REMARK    3  A    between atoms: C_8  and  C_10
REMARK    4  A    between atoms: C_13  and  O_14
REMARK    5  A    between atoms: O_14  and  C_15
REMARK    6  A    between atoms: C_15  and  C_16
REMARK    7  A    between atoms: C_18  and  C_19
REMARK    8  A    between atoms: C_29  and  C_30
REMARK    9  A    between atoms: N_32  and  O_33
REMARK                            x       y       z     vdW  Elec       q    Type
REMARK                         _______ _______ _______ _____ _____    ______ ____
ROOT
ATOM      1  C   UNL     1      -0.114  11.336  20.911  0.00  0.00    +0.000 A 
ATOM      2  C   UNL     1       0.274  10.879  19.650  0.00  0.00    +0.000 A 
ATOM      3  C   UNL     1       0.921   9.590  19.491  0.00  0.00    +0.000 A 
ATOM      4  C   UNL     1       1.212   8.718  20.575  0.00  0.00    +0.000 A 
ATOM      5  C   UNL     1       0.774   9.151  21.810  0.00  0.00    +0.000 A 
ATOM      6  C   UNL     1       0.135  10.427  21.972  0.00  0.00    +0.000 A 
ENDROOT
BRANCH   1   8
ATOM      7  N   UNL     1      -0.978  13.124  22.577  0.00  0.00    +0.000 N 
ATOM      8  C   UNL     1      -0.728  12.719  21.256  0.00  0.00    +0.000 C 
ATOM      9  O   UNL     1      -1.020  13.473  20.326  0.00  0.00    +0.000 OA
ATOM     10  H   UNL     1      -0.635  12.559  23.349  0.00  0.00    +0.000 HD
BRANCH   7  16
ATOM     11  C   UNL     1      -1.095  17.466  26.101  0.00  0.00    +0.000 C 
ATOM     12  C   UNL     1      -2.387  17.062  25.461  0.00  0.00    +0.000 C 
ATOM     13  O   UNL     1      -3.420  17.705  25.669  0.00  0.00    +0.000 OA
ATOM     14  N   UNL     1      -2.359  15.979  24.610  0.00  0.00    +0.000 N 
ATOM     15  C   UNL     1      -1.276  15.026  24.333  0.00  0.00    +0.000 C 
ATOM     16  C   UNL     1      -1.639  14.424  22.951  0.00  0.00    +0.000 C 
ATOM     17  C   UNL     1      -3.204  14.439  22.993  0.00  0.00    +0.000 C 
ATOM     18  C   UNL     1      -3.579  15.583  23.952  0.00  0.00    +0.000 C 
BRANCH  17  19
ATOM     19  C   UNL     1      -3.851  13.154  23.468  0.00  0.00    +0.000 C 
ATOM     20  O   UNL     1      -3.812  12.087  22.854  0.00  0.00    +0.000 OA
ATOM     21  N   UNL     1      -4.565  13.258  24.642  0.00  0.00    +0.000 N 
ATOM     22  H   UNL     1      -4.410  13.982  25.341  0.00  0.00    +0.000 HD
BRANCH  21  23
ATOM     23  O   UNL     1      -5.103  12.047  25.135  0.00  0.00    +0.000 OA
ATOM     24  H   UNL     1      -4.561  11.881  25.937  0.00  0.00    +0.000 HD
ENDBRANCH  21  23
ENDBRANCH  17  19
ENDBRANCH   7  16
ENDBRANCH   1   8
BRANCH   4  25
ATOM     25  O   UNL     1       1.917   7.559  20.327  0.00  0.00    +0.000 OA
BRANCH  25  26
ATOM     26  C   UNL     1       1.621   6.184  20.844  0.00  0.00    +0.000 C 
BRANCH  26  27
ATOM     27  C   UNL     1       1.661   5.033  19.775  0.00  0.00    +0.000 A 
ATOM     28  C   UNL     1       0.896   3.963  20.225  0.00  0.00    +0.000 A 
ATOM     29  C   UNL     1       1.614   2.804  20.320  0.00  0.00    +0.000 A 
ATOM     30  C   UNL     1       2.616   2.671  21.458  0.00  0.00    +0.000 C 
ATOM     31  N   UNL     1       2.164   2.349  19.199  0.00  0.00    +0.000 NA
ATOM     32  C   UNL     1       2.835   3.269  18.508  0.00  0.00    +0.000 A 
ATOM     33  C   UNL     1       3.787   2.691  17.688  0.00  0.00    +0.000 A 
ATOM     34  C   UNL     1       4.620   3.451  16.882  0.00  0.00    +0.000 A 
ATOM     35  C   UNL     1       4.433   4.825  16.906  0.00  0.00    +0.000 A 
ATOM     36  C   UNL     1       3.522   5.439  17.821  0.00  0.00    +0.000 A 
ATOM     37  C   UNL     1       2.677   4.676  18.724  0.00  0.00    +0.000 A 
ENDBRANCH  26  27
ENDBRANCH  25  26
ENDBRANCH   4  25
TORSDOF 7
ENDMDL
MODEL 6
REMARK VINA RESULT:      -9.0      0.864      1.198
REMARK  Name = 
REMARK  9 active torsions:
REMARK  status: ('A' for Active; 'I' for Inactive)
REMARK    1  A    between atoms: C_1  and  C_2
REMARK    2  A    between atoms: C_6  and  N_7
REMARK    3  A    between atoms: C_8  and  C_10
REMARK    4  A    between atoms: C_13  and  O_14
REMARK    5  A    between atoms: O_14  and  C_15
REMARK    6  A    between atoms: C_15  and  C_16
REMARK    7  A    between atoms: C_18  and  C_19
REMARK    8  A    between atoms: C_29  and  C_30
REMARK    9  A    between atoms: N_32  and  O_33
REMARK                            x       y       z     vdW  Elec       q    Type
REMARK                         _______ _______ _______ _____ _____    ______ ____
ROOT
ATOM      1  C   UNL     1       1.619   8.256  19.687  0.00  0.00    +0.000 A 
ATOM      2  C   UNL     1       2.260   8.119  18.454  0.00  0.00    +0.000 A 
ATOM      3  C   UNL     1       2.955   6.895  18.107  0.00  0.00    +0.000 A 
ATOM      4  C   UNL     1       3.046   5.771  18.972  0.00  0.00    +0.000 A 
ATOM      5  C   UNL     1       2.362   5.891  20.165  0.00  0.00    +0.000 A 
ATOM      6  C   UNL     1       1.674   7.103  20.513  0.00  0.00    +0.000 A 
ENDROOT
BRANCH   1   8
ATOM      7  N   UNL     1      -0.115  10.178  19.547  0.00  0.00    +0.000 N 
ATOM      8  C   UNL     1       0.917   9.525  20.241  0.00  0.00    +0.000 C 
ATOM      9  O   UNL     1       1.302   9.977  21.319  0.00  0.00    +0.000 OA
ATOM     10  H   UNL     1      -0.514   9.747  18.718  0.00  0.00    +0.000 HD
BRANCH   7  16
ATOM     11  C   UNL     1      -2.935  12.766  23.626  0.00  0.00    +0.000 C 
ATOM     12  C   UNL     1      -3.177  13.225  22.222  0.00  0.00    +0.000 C 
ATOM     13  O   UNL     1      -3.931  14.175  21.991  0.00  0.00    +0.000 OA
ATOM     14  N   UNL     1      -2.497  12.571  21.217  0.00  0.00    +0.000 N 
ATOM     15  C   UNL     1      -1.667  11.361  21.274  0.00  0.00    +0.000 C 
ATOM     16  C   UNL     1      -0.770  11.451  20.012  0.00  0.00    +0.000 C 
ATOM     17  C   UNL     1      -1.714  12.176  18.996  0.00  0.00    +0.000 C 
ATOM     18  C   UNL     1      -2.682  13.008  19.856  0.00  0.00    +0.000 C 
BRANCH  17  19
ATOM     19  C   UNL     1      -2.510  11.262  18.087  0.00  0.00    +0.000 C 
ATOM     20  O   UNL     1      -2.564  10.038  18.205  0.00  0.00    +0.000 OA
ATOM     21  N   UNL     1      -3.150  11.891  17.041  0.00  0.00    +0.000 N 
ATOM     22  H   UNL     1      -3.401  12.878  17.037  0.00  0.00    +0.000 HD
BRANCH  21  23
ATOM     23  O   UNL     1      -3.960  11.059  16.236  0.00  0.00    +0.000 OA
ATOM     24  H   UNL     1      -3.418  10.244  16.153  0.00  0.00    +0.000 HD
ENDBRANCH  21  23
ENDBRANCH  17  19
ENDBRANCH   7  16
ENDBRANCH   1   8
BRANCH   4  25
ATOM     25  O   UNL     1       3.812   4.692  18.585  0.00  0.00    +0.000 OA
BRANCH  25  26
ATOM     26  C   UNL     1       3.897   4.075  17.221  0.00  0.00    +0.000 C 
BRANCH  26  27
ATOM     27  C   UNL     1       5.328   4.054  16.572  0.00  0.00    +0.000 A 
ATOM     28  C   UNL     1       6.247   4.585  17.468  0.00  0.00    +0.000 A 
ATOM     29  C   UNL     1       6.915   5.665  16.961  0.00  0.00    +0.000 A 
ATOM     30  C   UNL     1       6.159   6.980  16.829  0.00  0.00    +0.000 C 
ATOM     31  N   UNL     1       7.631   5.460  15.861  0.00  0.00    +0.000 NA
ATOM     32  C   UNL     1       6.979   4.809  14.899  0.00  0.00    +0.000 A 
ATOM     33  C   UNL     1       7.520   5.071  13.654  0.00  0.00    +0.000 A 
ATOM     34  C   UNL     1       7.000   4.515  12.495  0.00  0.00    +0.000 A 
ATOM     35  C   UNL     1       5.925   3.652  12.642  0.00  0.00    +0.000 A 
ATOM     36  C   UNL     1       5.295   3.453  13.910  0.00  0.00    +0.000 A 
ATOM     37  C   UNL     1       5.776   4.067  15.135  0.00  0.00    +0.000 A 
ENDBRANCH  26  27
ENDBRANCH  25  26
ENDBRANCH   4  25
TORSDOF 7
ENDMDL
MODEL 7
REMARK VINA RESULT:      -9.0      2.799      4.636
REMARK  Name = 
REMARK  9 active torsions:
REMARK  status: ('A' for Active; 'I' for Inactive)
REMARK    1  A    between atoms: C_1  and  C_2
REMARK    2  A    between atoms: C_6  and  N_7
REMARK    3  A    between atoms: C_8  and  C_10
REMARK    4  A    between atoms: C_13  and  O_14
REMARK    5  A    between atoms: O_14  and  C_15
REMARK    6  A    between atoms: C_15  and  C_16
REMARK    7  A    between atoms: C_18  and  C_19
REMARK    8  A    between atoms: C_29  and  C_30
REMARK    9  A    between atoms: N_32  and  O_33
REMARK                            x       y       z     vdW  Elec       q    Type
REMARK                         _______ _______ _______ _____ _____    ______ ____
ROOT
ATOM      1  C   UNL     1       0.338  10.052  20.986  0.00  0.00    +0.000 A 
ATOM      2  C   UNL     1       1.049   8.879  21.246  0.00  0.00    +0.000 A 
ATOM      3  C   UNL     1       1.695   8.146  20.174  0.00  0.00    +0.000 A 
ATOM      4  C   UNL     1       1.649   8.546  18.811  0.00  0.00    +0.000 A 
ATOM      5  C   UNL     1       0.993   9.737  18.570  0.00  0.00    +0.000 A 
ATOM      6  C   UNL     1       0.351  10.463  19.629  0.00  0.00    +0.000 A 
ENDROOT
BRANCH   1   8
ATOM      7  N   UNL     1      -1.468  11.808  21.602  0.00  0.00    +0.000 N 
ATOM      8  C   UNL     1      -0.480  10.894  22.003  0.00  0.00    +0.000 C 
ATOM      9  O   UNL     1      -0.230  10.760  23.201  0.00  0.00    +0.000 OA
ATOM     10  H   UNL     1      -1.758  11.838  20.628  0.00  0.00    +0.000 HD
BRANCH   7  16
ATOM     11  C   UNL     1      -6.460  13.215  23.694  0.00  0.00    +0.000 C 
ATOM     12  C   UNL     1      -5.413  14.283  23.631  0.00  0.00    +0.000 C 
ATOM     13  O   UNL     1      -5.638  15.412  24.077  0.00  0.00    +0.000 OA
ATOM     14  N   UNL     1      -4.191  13.939  23.095  0.00  0.00    +0.000 N 
ATOM     15  C   UNL     1      -3.775  12.707  22.411  0.00  0.00    +0.000 C 
ATOM     16  C   UNL     1      -2.231  12.696  22.548  0.00  0.00    +0.000 C 
ATOM     17  C   UNL     1      -1.892  14.223  22.517  0.00  0.00    +0.000 C 
ATOM     18  C   UNL     1      -3.150  14.934  23.048  0.00  0.00    +0.000 C 
BRANCH  17  19
ATOM     19  C   UNL     1      -1.540  14.780  21.153  0.00  0.00    +0.000 C 
ATOM     20  O   UNL     1      -0.637  14.347  20.436  0.00  0.00    +0.000 OA
ATOM     21  N   UNL     1      -2.273  15.880  20.763  0.00  0.00    +0.000 N 
ATOM     22  H   UNL     1      -3.193  16.111  21.131  0.00  0.00    +0.000 HD
BRANCH  21  23
ATOM     23  O   UNL     1      -2.007  16.356  19.459  0.00  0.00    +0.000 OA
ATOM     24  H   UNL     1      -2.907  16.508  19.096  0.00  0.00    +0.000 HD
ENDBRANCH  21  23
ENDBRANCH  17  19
ENDBRANCH   7  16
ENDBRANCH   1   8
BRANCH   4  25
ATOM     25  O   UNL     1       2.214   7.727  17.856  0.00  0.00    +0.000 OA
BRANCH  25  26
ATOM     26  C   UNL     1       3.599   7.152  17.851  0.00  0.00    +0.000 C 
BRANCH  26  27
ATOM     27  C   UNL     1       3.807   5.872  18.739  0.00  0.00    +0.000 A 
ATOM     28  C   UNL     1       5.162   5.706  18.994  0.00  0.00    +0.000 A 
ATOM     29  C   UNL     1       5.637   4.499  18.563  0.00  0.00    +0.000 A 
ATOM     30  C   UNL     1       5.810   4.289  17.065  0.00  0.00    +0.000 C 
ATOM     31  N   UNL     1       5.082   3.416  19.095  0.00  0.00    +0.000 NA
ATOM     32  C   UNL     1       3.750   3.430  19.097  0.00  0.00    +0.000 A 
ATOM     33  C   UNL     1       3.230   2.150  19.151  0.00  0.00    +0.000 A 
ATOM     34  C   UNL     1       1.865   1.912  19.151  0.00  0.00    +0.000 A 
ATOM     35  C   UNL     1       1.034   3.022  19.127  0.00  0.00    +0.000 A 
ATOM     36  C   UNL     1       1.559   4.343  18.971  0.00  0.00    +0.000 A 
ATOM     37  C   UNL     1       2.982   4.624  18.906  0.00  0.00    +0.000 A 
ENDBRANCH  26  27
ENDBRANCH  25  26
ENDBRANCH   4  25
TORSDOF 7
ENDMDL
MODEL 8
REMARK VINA RESULT:      -8.9      2.741      5.191
REMARK  Name = 
REMARK  9 active torsions:
REMARK  status: ('A' for Active; 'I' for Inactive)
REMARK    1  A    between atoms: C_1  and  C_2
REMARK    2  A    between atoms: C_6  and  N_7
REMARK    3  A    between atoms: C_8  and  C_10
REMARK    4  A    between atoms: C_13  and  O_14
REMARK    5  A    between atoms: O_14  and  C_15
REMARK    6  A    between atoms: C_15  and  C_16
REMARK    7  A    between atoms: C_18  and  C_19
REMARK    8  A    between atoms: C_29  and  C_30
REMARK    9  A    between atoms: N_32  and  O_33
REMARK                            x       y       z     vdW  Elec       q    Type
REMARK                         _______ _______ _______ _____ _____    ______ ____
ROOT
ATOM      1  C   UNL     1      -0.158  10.957  20.794  0.00  0.00    +0.000 A 
ATOM      2  C   UNL     1       0.461  10.591  19.597  0.00  0.00    +0.000 A 
ATOM      3  C   UNL     1       1.214   9.356  19.495  0.00  0.00    +0.000 A 
ATOM      4  C   UNL     1       1.386   8.450  20.576  0.00  0.00    +0.000 A 
ATOM      5  C   UNL     1       0.724   8.790  21.739  0.00  0.00    +0.000 A 
ATOM      6  C   UNL     1      -0.021  10.013  21.844  0.00  0.00    +0.000 A 
ENDROOT
BRANCH   1   8
ATOM      7  N   UNL     1      -0.932  12.872  22.362  0.00  0.00    +0.000 N 
ATOM      8  C   UNL     1      -0.916  12.280  21.088  0.00  0.00    +0.000 C 
ATOM      9  O   UNL     1      -1.537  12.811  20.167  0.00  0.00    +0.000 OA
ATOM     10  H   UNL     1      -0.330  12.504  23.094  0.00  0.00    +0.000 HD
BRANCH   7  16
ATOM     11  C   UNL     1      -1.201  17.514  25.470  0.00  0.00    +0.000 C 
ATOM     12  C   UNL     1      -2.495  16.887  25.054  0.00  0.00    +0.000 C 
ATOM     13  O   UNL     1      -3.572  17.414  25.345  0.00  0.00    +0.000 OA
ATOM     14  N   UNL     1      -2.426  15.732  24.306  0.00  0.00    +0.000 N 
ATOM     15  C   UNL     1      -1.266  14.896  23.967  0.00  0.00    +0.000 C 
ATOM     16  C   UNL     1      -1.713  14.111  22.708  0.00  0.00    +0.000 C 
ATOM     17  C   UNL     1      -3.247  13.935  22.965  0.00  0.00    +0.000 C 
ATOM     18  C   UNL     1      -3.652  15.119  23.862  0.00  0.00    +0.000 C 
BRANCH  17  19
ATOM     19  C   UNL     1      -3.646  12.637  23.637  0.00  0.00    +0.000 C 
ATOM     20  O   UNL     1      -2.972  11.606  23.615  0.00  0.00    +0.000 OA
ATOM     21  N   UNL     1      -4.880  12.652  24.250  0.00  0.00    +0.000 N 
ATOM     22  H   UNL     1      -5.349  13.498  24.566  0.00  0.00    +0.000 HD
BRANCH  21  23
ATOM     23  O   UNL     1      -5.225  11.472  24.949  0.00  0.00    +0.000 OA
ATOM     24  H   UNL     1      -5.289  10.806  24.230  0.00  0.00    +0.000 HD
ENDBRANCH  21  23
ENDBRANCH  17  19
ENDBRANCH   7  16
ENDBRANCH   1   8
BRANCH   4  25
ATOM     25  O   UNL     1       2.201   7.351  20.402  0.00  0.00    +0.000 OA
BRANCH  25  26
ATOM     26  C   UNL     1       1.784   5.919  20.259  0.00  0.00    +0.000 C 
BRANCH  26  27
ATOM     27  C   UNL     1       2.115   5.249  18.876  0.00  0.00    +0.000 A 
ATOM     28  C   UNL     1       1.552   3.980  18.835  0.00  0.00    +0.000 A 
ATOM     29  C   UNL     1       2.478   2.997  18.620  0.00  0.00    +0.000 A 
ATOM     30  C   UNL     1       3.417   2.633  19.762  0.00  0.00    +0.000 C 
ATOM     31  N   UNL     1       3.172   3.070  17.490  0.00  0.00    +0.000 NA
ATOM     32  C   UNL     1       3.688   4.273  17.243  0.00  0.00    +0.000 A 
ATOM     33  C   UNL     1       4.784   4.192  16.403  0.00  0.00    +0.000 A 
ATOM     34  C   UNL     1       5.496   5.316  16.014  0.00  0.00    +0.000 A 
ATOM     35  C   UNL     1       5.039   6.540  16.480  0.00  0.00    +0.000 A 
ATOM     36  C   UNL     1       3.971   6.626  17.427  0.00  0.00    +0.000 A 
ATOM     37  C   UNL     1       3.243   5.464  17.903  0.00  0.00    +0.000 A 
ENDBRANCH  26  27
ENDBRANCH  25  26
ENDBRANCH   4  25
TORSDOF 7
ENDMDL
MODEL 9
REMARK VINA RESULT:      -8.9      1.715      2.435
REMARK  Name = 
REMARK  9 active torsions:
REMARK  status: ('A' for Active; 'I' for Inactive)
REMARK    1  A    between atoms: C_1  and  C_2
REMARK    2  A    between atoms: C_6  and  N_7
REMARK    3  A    between atoms: C_8  and  C_10
REMARK    4  A    between atoms: C_13  and  O_14
REMARK    5  A    between atoms: O_14  and  C_15
REMARK    6  A    between atoms: C_15  and  C_16
REMARK    7  A    between atoms: C_18  and  C_19
REMARK    8  A    between atoms: C_29  and  C_30
REMARK    9  A    between atoms: N_32  and  O_33
REMARK                            x       y       z     vdW  Elec       q    Type
REMARK                         _______ _______ _______ _____ _____    ______ ____
ROOT
ATOM      1  C   UNL     1       1.187   9.536  19.554  0.00  0.00    +0.000 A 
ATOM      2  C   UNL     1       1.708   9.236  18.294  0.00  0.00    +0.000 A 
ATOM      3  C   UNL     1       2.349   7.961  18.036  0.00  0.00    +0.000 A 
ATOM      4  C   UNL     1       2.504   6.947  19.020  0.00  0.00    +0.000 A 
ATOM      5  C   UNL     1       1.936   7.228  20.247  0.00  0.00    +0.000 A 
ATOM      6  C   UNL     1       1.303   8.490  20.506  0.00  0.00    +0.000 A 
ENDROOT
BRANCH   1   8
ATOM      7  N   UNL     1      -0.651  10.944  20.721  0.00  0.00    +0.000 N 
ATOM      8  C   UNL     1       0.559  10.881  20.011  0.00  0.00    +0.000 C 
ATOM      9  O   UNL     1       1.144  11.924  19.717  0.00  0.00    +0.000 OA
ATOM     10  H   UNL     1      -1.077  10.088  21.065  0.00  0.00    +0.000 HD
BRANCH   7  16
ATOM     11  C   UNL     1      -3.704  13.623  24.565  0.00  0.00    +0.000 C 
ATOM     12  C   UNL     1      -3.863  14.050  23.139  0.00  0.00    +0.000 C 
ATOM     13  O   UNL     1      -4.600  14.994  22.843  0.00  0.00    +0.000 OA
ATOM     14  N   UNL     1      -3.125  13.374  22.192  0.00  0.00    +0.000 N 
ATOM     15  C   UNL     1      -2.301  12.165  22.325  0.00  0.00    +0.000 C 
ATOM     16  C   UNL     1      -1.331  12.227  21.117  0.00  0.00    +0.000 C 
ATOM     17  C   UNL     1      -2.213  12.929  20.031  0.00  0.00    +0.000 C 
ATOM     18  C   UNL     1      -3.229  13.779  20.812  0.00  0.00    +0.000 C 
BRANCH  17  19
ATOM     19  C   UNL     1      -2.955  11.994  19.097  0.00  0.00    +0.000 C 
ATOM     20  O   UNL     1      -2.423  11.090  18.451  0.00  0.00    +0.000 OA
ATOM     21  N   UNL     1      -4.300  12.255  18.956  0.00  0.00    +0.000 N 
ATOM     22  H   UNL     1      -4.858  12.759  19.642  0.00  0.00    +0.000 HD
BRANCH  21  23
ATOM     23  O   UNL     1      -5.016  11.339  18.151  0.00  0.00    +0.000 OA
ATOM     24  H   UNL     1      -4.300  10.795  17.755  0.00  0.00    +0.000 HD
ENDBRANCH  21  23
ENDBRANCH  17  19
ENDBRANCH   7  16
ENDBRANCH   1   8
BRANCH   4  25
ATOM     25  O   UNL     1       3.215   5.810  18.699  0.00  0.00    +0.000 OA
BRANCH  25  26
ATOM     26  C   UNL     1       4.447   5.285  19.370  0.00  0.00    +0.000 C 
BRANCH  26  27
ATOM     27  C   UNL     1       5.504   4.611  18.422  0.00  0.00    +0.000 A 
ATOM     28  C   UNL     1       6.728   4.541  19.075  0.00  0.00    +0.000 A 
ATOM     29  C   UNL     1       7.726   5.185  18.399  0.00  0.00    +0.000 A 
ATOM     30  C   UNL     1       7.723   6.707  18.395  0.00  0.00    +0.000 C 
ATOM     31  N   UNL     1       7.997   4.745  17.175  0.00  0.00    +0.000 NA
ATOM     32  C   UNL     1       6.924   4.587  16.402  0.00  0.00    +0.000 A 
ATOM     33  C   UNL     1       7.252   4.648  15.061  0.00  0.00    +0.000 A 
ATOM     34  C   UNL     1       6.297   4.523  14.064  0.00  0.00    +0.000 A 
ATOM     35  C   UNL     1       4.991   4.297  14.472  0.00  0.00    +0.000 A 
ATOM     36  C   UNL     1       4.625   4.332  15.854  0.00  0.00    +0.000 A 
ATOM     37  C   UNL     1       5.590   4.521  16.922  0.00  0.00    +0.000 A 
ENDBRANCH  26  27
ENDBRANCH  25  26
ENDBRANCH   4  25
TORSDOF 7
ENDMDL
