MODEL 1
REMARK VINA RESULT:      -7.1      0.000      0.000
REMARK  Name = 
REMARK  3 active torsions:
REMARK  status: ('A' for Active; 'I' for Inactive)
REMARK    1  A    between atoms: C_1  and  C_2
REMARK    2  A    between atoms: C_7  and  C_8
REMARK    3  A    between atoms: C_8  and  C_9
REMARK                            x       y       z     vdW  Elec       q    Type
REMARK                         _______ _______ _______ _____ _____    ______ ____
ROOT
ATOM      1  C   UNL     1       5.521   5.205  18.953  0.00  0.00    +0.000 C 
ATOM      2  O   UNL     1       6.282   4.702  19.785  0.00  0.00    +0.000 OA
ATOM      3  N   UNL     1       5.923   5.437  17.647  0.00  0.00    +0.000 N 
ATOM      4  C   UNL     1       7.255   4.997  17.222  0.00  0.00    +0.000 C 
ATOM      5  C   UNL     1       7.231   4.485  15.769  0.00  0.00    +0.000 C 
ATOM      6  N   UNL     1       6.650   5.459  14.826  0.00  0.00    +0.000 NA
ATOM      7  C   UNL     1       5.312   5.873  15.282  0.00  0.00    +0.000 C 
ATOM      8  C   UNL     1       5.300   6.397  16.731  0.00  0.00    +0.000 C 
ATOM      9  H   UNL     1       6.571   5.024  13.906  0.00  0.00    +0.000 HD
ENDROOT
BRANCH   1  10
ATOM     10  C   UNL     1       4.071   5.497  19.329  0.00  0.00    +0.000 C 
BRANCH  10  17
ATOM     11  C   UNL     1       1.483   5.453  20.857  0.00  0.00    +0.000 C 
ATOM     12  C   UNL     1       1.847   4.368  19.880  0.00  0.00    +0.000 A 
ATOM     13  C   UNL     1       0.914   3.339  19.655  0.00  0.00    +0.000 A 
ATOM     14  C   UNL     1       1.176   2.322  18.740  0.00  0.00    +0.000 A 
ATOM     15  C   UNL     1       2.375   2.318  18.039  0.00  0.00    +0.000 A 
ATOM     16  C   UNL     1       3.314   3.328  18.254  0.00  0.00    +0.000 A 
ATOM     17  C   UNL     1       3.080   4.357  19.184  0.00  0.00    +0.000 A 
ENDBRANCH  10  17
ENDBRANCH   1  10
TORSDOF 2
ENDMDL
MODEL 2
REMARK VINA RESULT:      -7.0      0.855      1.692
REMARK  Name = 
REMARK  3 active torsions:
REMARK  status: ('A' for Active; 'I' for Inactive)
REMARK    1  A    between atoms: C_1  and  C_2
REMARK    2  A    between atoms: C_7  and  C_8
REMARK    3  A    between atoms: C_8  and  C_9
REMARK                            x       y       z     vdW  Elec       q    Type
REMARK                         _______ _______ _______ _____ _____    ______ ____
ROOT
ATOM      1  C   UNL     1       5.210   5.300  18.989  0.00  0.00    +0.000 C 
ATOM      2  O   UNL     1       5.851   4.715  19.868  0.00  0.00    +0.000 OA
ATOM      3  N   UNL     1       5.728   5.489  17.717  0.00  0.00    +0.000 N 
ATOM      4  C   UNL     1       7.031   4.906  17.384  0.00  0.00    +0.000 C 
ATOM      5  C   UNL     1       7.056   4.402  15.927  0.00  0.00    +0.000 C 
ATOM      6  N   UNL     1       6.654   5.435  14.955  0.00  0.00    +0.000 NA
ATOM      7  C   UNL     1       5.340   5.993  15.318  0.00  0.00    +0.000 C 
ATOM      8  C   UNL     1       5.281   6.513  16.768  0.00  0.00    +0.000 C 
ATOM      9  H   UNL     1       6.594   5.014  14.028  0.00  0.00    +0.000 HD
ENDROOT
BRANCH   1  10
ATOM     10  C   UNL     1       3.778   5.748  19.264  0.00  0.00    +0.000 C 
BRANCH  10  17
ATOM     11  C   UNL     1       2.433   3.972  17.248  0.00  0.00    +0.000 C 
ATOM     12  C   UNL     1       2.192   3.819  18.725  0.00  0.00    +0.000 A 
ATOM     13  C   UNL     1       1.348   2.779  19.156  0.00  0.00    +0.000 A 
ATOM     14  C   UNL     1       1.110   2.565  20.511  0.00  0.00    +0.000 A 
ATOM     15  C   UNL     1       1.710   3.388  21.455  0.00  0.00    +0.000 A 
ATOM     16  C   UNL     1       2.546   4.428  21.045  0.00  0.00    +0.000 A 
ATOM     17  C   UNL     1       2.790   4.676  19.682  0.00  0.00    +0.000 A 
ENDBRANCH  10  17
ENDBRANCH   1  10
TORSDOF 2
ENDMDL
MODEL 3
REMARK VINA RESULT:      -7.0      2.360      5.592
REMARK  Name = 
REMARK  3 active torsions:
REMARK  status: ('A' for Active; 'I' for Inactive)
REMARK    1  A    between atoms: C_1  and  C_2
REMARK    2  A    between atoms: C_7  and  C_8
REMARK    3  A    between atoms: C_8  and  C_9
REMARK                            x       y       z     vdW  Elec       q    Type
REMARK                         _______ _______ _______ _____ _____    ______ ____
ROOT
ATOM      1  C   UNL     1       4.541   4.103  19.134  0.00  0.00    +0.000 C 
ATOM      2  O   UNL     1       5.610   3.616  19.515  0.00  0.00    +0.000 OA
ATOM      3  N   UNL     1       3.323   3.647  19.612  0.00  0.00    +0.000 N 
ATOM      4  C   UNL     1       3.307   2.619  20.657  0.00  0.00    +0.000 C 
ATOM      5  C   UNL     1       2.154   2.859  21.651  0.00  0.00    +0.000 C 
ATOM      6  N   UNL     1       0.843   2.988  20.991  0.00  0.00    +0.000 NA
ATOM      7  C   UNL     1       0.895   4.032  19.953  0.00  0.00    +0.000 C 
ATOM      8  C   UNL     1       2.034   3.819  18.936  0.00  0.00    +0.000 C 
ATOM      9  H   UNL     1       0.143   3.244  21.688  0.00  0.00    +0.000 HD
ENDROOT
BRANCH   1  10
ATOM     10  C   UNL     1       4.548   5.300  18.187  0.00  0.00    +0.000 C 
BRANCH  10  17
ATOM     11  C   UNL     1       7.285   6.490  17.837  0.00  0.00    +0.000 C 
ATOM     12  C   UNL     1       6.627   5.681  16.752  0.00  0.00    +0.000 A 
ATOM     13  C   UNL     1       7.350   5.445  15.569  0.00  0.00    +0.000 A 
ATOM     14  C   UNL     1       6.810   4.678  14.540  0.00  0.00    +0.000 A 
ATOM     15  C   UNL     1       5.540   4.134  14.679  0.00  0.00    +0.000 A 
ATOM     16  C   UNL     1       4.806   4.361  15.845  0.00  0.00    +0.000 A 
ATOM     17  C   UNL     1       5.322   5.147  16.891  0.00  0.00    +0.000 A 
ENDBRANCH  10  17
ENDBRANCH   1  10
TORSDOF 2
ENDMDL
MODEL 4
REMARK VINA RESULT:      -6.8      1.813      2.704
REMARK  Name = 
REMARK  3 active torsions:
REMARK  status: ('A' for Active; 'I' for Inactive)
REMARK    1  A    between atoms: C_1  and  C_2
REMARK    2  A    between atoms: C_7  and  C_8
REMARK    3  A    between atoms: C_8  and  C_9
REMARK                            x       y       z     vdW  Elec       q    Type
REMARK                         _______ _______ _______ _____ _____    ______ ____
ROOT
ATOM      1  C   UNL     1       3.418   5.220  17.446  0.00  0.00    +0.000 C 
ATOM      2  O   UNL     1       2.755   6.153  17.910  0.00  0.00    +0.000 OA
ATOM      3  N   UNL     1       4.668   5.425  16.886  0.00  0.00    +0.000 N 
ATOM      4  C   UNL     1       5.254   6.768  16.922  0.00  0.00    +0.000 C 
ATOM      5  C   UNL     1       6.779   6.701  17.142  0.00  0.00    +0.000 C 
ATOM      6  N   UNL     1       7.462   5.833  16.166  0.00  0.00    +0.000 NA
ATOM      7  C   UNL     1       6.851   4.492  16.162  0.00  0.00    +0.000 C 
ATOM      8  C   UNL     1       5.326   4.521  15.938  0.00  0.00    +0.000 C 
ATOM      9  H   UNL     1       8.446   5.751  16.425  0.00  0.00    +0.000 HD
ENDROOT
BRANCH   1  10
ATOM     10  C   UNL     1       2.903   3.789  17.569  0.00  0.00    +0.000 C 
BRANCH  10  17
ATOM     11  C   UNL     1       4.812   2.793  19.666  0.00  0.00    +0.000 C 
ATOM     12  C   UNL     1       3.336   2.915  19.930  0.00  0.00    +0.000 A 
ATOM     13  C   UNL     1       2.864   2.596  21.217  0.00  0.00    +0.000 A 
ATOM     14  C   UNL     1       1.513   2.718  21.535  0.00  0.00    +0.000 A 
ATOM     15  C   UNL     1       0.616   3.160  20.572  0.00  0.00    +0.000 A 
ATOM     16  C   UNL     1       1.065   3.477  19.290  0.00  0.00    +0.000 A 
ATOM     17  C   UNL     1       2.421   3.347  18.938  0.00  0.00    +0.000 A 
ENDBRANCH  10  17
ENDBRANCH   1  10
TORSDOF 2
ENDMDL
MODEL 5
REMARK VINA RESULT:      -6.6      1.750      2.684
REMARK  Name = 
REMARK  3 active torsions:
REMARK  status: ('A' for Active; 'I' for Inactive)
REMARK    1  A    between atoms: C_1  and  C_2
REMARK    2  A    between atoms: C_7  and  C_8
REMARK    3  A    between atoms: C_8  and  C_9
REMARK                            x       y       z     vdW  Elec       q    Type
REMARK                         _______ _______ _______ _____ _____    ______ ____
ROOT
ATOM      1  C   UNL     1       3.505   6.290  17.709  0.00  0.00    +0.000 C 
ATOM      2  O   UNL     1       3.354   7.401  18.227  0.00  0.00    +0.000 OA
ATOM      3  N   UNL     1       4.717   5.903  17.160  0.00  0.00    +0.000 N 
ATOM      4  C   UNL     1       5.870   6.801  17.272  0.00  0.00    +0.000 C 
ATOM      5  C   UNL     1       7.173   6.006  17.485  0.00  0.00    +0.000 C 
ATOM      6  N   UNL     1       7.386   4.967  16.460  0.00  0.00    +0.000 NA
ATOM      7  C   UNL     1       6.212   4.081  16.381  0.00  0.00    +0.000 C 
ATOM      8  C   UNL     1       4.890   4.844  16.161  0.00  0.00    +0.000 C 
ATOM      9  H   UNL     1       8.206   4.414  16.713  0.00  0.00    +0.000 HD
ENDROOT
BRANCH   1  10
ATOM     10  C   UNL     1       2.369   5.272  17.752  0.00  0.00    +0.000 C 
BRANCH  10  17
ATOM     11  C   UNL     1       2.550   2.275  17.641  0.00  0.00    +0.000 C 
ATOM     12  C   UNL     1       2.379   3.012  18.942  0.00  0.00    +0.000 A 
ATOM     13  C   UNL     1       2.355   2.261  20.131  0.00  0.00    +0.000 A 
ATOM     14  C   UNL     1       2.231   2.885  21.370  0.00  0.00    +0.000 A 
ATOM     15  C   UNL     1       2.129   4.269  21.437  0.00  0.00    +0.000 A 
ATOM     16  C   UNL     1       2.147   5.029  20.267  0.00  0.00    +0.000 A 
ATOM     17  C   UNL     1       2.254   4.421  19.002  0.00  0.00    +0.000 A 
ENDBRANCH  10  17
ENDBRANCH   1  10
TORSDOF 2
ENDMDL
MODEL 6
REMARK VINA RESULT:      -6.6      2.325      5.283
REMARK  Name = 
REMARK  3 active torsions:
REMARK  status: ('A' for Active; 'I' for Inactive)
REMARK    1  A    between atoms: C_1  and  C_2
REMARK    2  A    between atoms: C_7  and  C_8
REMARK    3  A    between atoms: C_8  and  C_9
REMARK                            x       y       z     vdW  Elec       q    Type
REMARK                         _______ _______ _______ _____ _____    ______ ____
ROOT
ATOM      1  C   UNL     1       3.377   5.404  19.457  0.00  0.00    +0.000 C 
ATOM      2  O   UNL     1       2.646   6.396  19.535  0.00  0.00    +0.000 OA
ATOM      3  N   UNL     1       2.858   4.119  19.427  0.00  0.00    +0.000 N 
ATOM      4  C   UNL     1       1.404   3.938  19.403  0.00  0.00    +0.000 C 
ATOM      5  C   UNL     1       1.011   2.739  18.517  0.00  0.00    +0.000 C 
ATOM      6  N   UNL     1       1.710   1.496  18.888  0.00  0.00    +0.000 NA
ATOM      7  C   UNL     1       3.167   1.714  18.897  0.00  0.00    +0.000 C 
ATOM      8  C   UNL     1       3.597   2.903  19.779  0.00  0.00    +0.000 C 
ATOM      9  H   UNL     1       1.485   0.771  18.206  0.00  0.00    +0.000 HD
ENDROOT
BRANCH   1  10
ATOM     10  C   UNL     1       4.884   5.582  19.293  0.00  0.00    +0.000 C 
BRANCH  10  17
ATOM     11  C   UNL     1       7.853   5.514  18.839  0.00  0.00    +0.000 C 
ATOM     12  C   UNL     1       6.876   5.176  17.746  0.00  0.00    +0.000 A 
ATOM     13  C   UNL     1       7.388   4.773  16.499  0.00  0.00    +0.000 A 
ATOM     14  C   UNL     1       6.536   4.417  15.457  0.00  0.00    +0.000 A 
ATOM     15  C   UNL     1       5.160   4.459  15.645  0.00  0.00    +0.000 A 
ATOM     16  C   UNL     1       4.635   4.862  16.874  0.00  0.00    +0.000 A 
ATOM     17  C   UNL     1       5.473   5.243  17.938  0.00  0.00    +0.000 A 
ENDBRANCH  10  17
ENDBRANCH   1  10
TORSDOF 2
ENDMDL
MODEL 7
REMARK VINA RESULT:      -6.6      1.468      1.976
REMARK  Name = 
REMARK  3 active torsions:
REMARK  status: ('A' for Active; 'I' for Inactive)
REMARK    1  A    between atoms: C_1  and  C_2
REMARK    2  A    between atoms: C_7  and  C_8
REMARK    3  A    between atoms: C_8  and  C_9
REMARK                            x       y       z     vdW  Elec       q    Type
REMARK                         _______ _______ _______ _____ _____    ______ ____
ROOT
ATOM      1  C   UNL     1       5.202   4.305  18.180  0.00  0.00    +0.000 C 
ATOM      2  O   UNL     1       5.615   4.877  19.193  0.00  0.00    +0.000 OA
ATOM      3  N   UNL     1       5.635   4.666  16.914  0.00  0.00    +0.000 N 
ATOM      4  C   UNL     1       6.671   5.693  16.781  0.00  0.00    +0.000 C 
ATOM      5  C   UNL     1       7.628   5.367  15.617  0.00  0.00    +0.000 C 
ATOM      6  N   UNL     1       6.924   5.133  14.343  0.00  0.00    +0.000 NA
ATOM      7  C   UNL     1       5.896   4.091  14.514  0.00  0.00    +0.000 C 
ATOM      8  C   UNL     1       4.916   4.388  15.667  0.00  0.00    +0.000 C 
ATOM      9  H   UNL     1       7.598   4.825  13.642  0.00  0.00    +0.000 HD
ENDROOT
BRANCH   1  10
ATOM     10  C   UNL     1       4.264   3.108  18.314  0.00  0.00    +0.000 C 
BRANCH  10  17
ATOM     11  C   UNL     1       1.567   4.307  17.752  0.00  0.00    +0.000 C 
ATOM     12  C   UNL     1       1.911   3.724  19.095  0.00  0.00    +0.000 A 
ATOM     13  C   UNL     1       0.912   3.705  20.086  0.00  0.00    +0.000 A 
ATOM     14  C   UNL     1       1.158   3.150  21.339  0.00  0.00    +0.000 A 
ATOM     15  C   UNL     1       2.405   2.607  21.621  0.00  0.00    +0.000 A 
ATOM     16  C   UNL     1       3.409   2.622  20.651  0.00  0.00    +0.000 A 
ATOM     17  C   UNL     1       3.192   3.191  19.383  0.00  0.00    +0.000 A 
ENDBRANCH  10  17
ENDBRANCH   1  10
TORSDOF 2
ENDMDL
MODEL 8
REMARK VINA RESULT:      -6.6      2.266      5.436
REMARK  Name = 
REMARK  3 active torsions:
REMARK  status: ('A' for Active; 'I' for Inactive)
REMARK    1  A    between atoms: C_1  and  C_2
REMARK    2  A    between atoms: C_7  and  C_8
REMARK    3  A    between atoms: C_8  and  C_9
REMARK                            x       y       z     vdW  Elec       q    Type
REMARK                         _______ _______ _______ _____ _____    ______ ____
ROOT
ATOM      1  C   UNL     1       3.761   3.459  17.802  0.00  0.00    +0.000 C 
ATOM      2  O   UNL     1       3.786   2.234  17.961  0.00  0.00    +0.000 OA
ATOM      3  N   UNL     1       3.018   4.283  18.632  0.00  0.00    +0.000 N 
ATOM      4  C   UNL     1       2.315   3.698  19.776  0.00  0.00    +0.000 C 
ATOM      5  C   UNL     1       2.344   4.648  20.989  0.00  0.00    +0.000 C 
ATOM      6  N   UNL     1       1.843   5.998  20.673  0.00  0.00    +0.000 NA
ATOM      7  C   UNL     1       2.575   6.557  19.523  0.00  0.00    +0.000 C 
ATOM      8  C   UNL     1       2.562   5.634  18.289  0.00  0.00    +0.000 C 
ATOM      9  H   UNL     1       1.981   6.603  21.483  0.00  0.00    +0.000 HD
ENDROOT
BRANCH   1  10
ATOM     10  C   UNL     1       4.635   4.103  16.730  0.00  0.00    +0.000 C 
BRANCH  10  17
ATOM     11  C   UNL     1       4.998   6.874  15.627  0.00  0.00    +0.000 C 
ATOM     12  C   UNL     1       5.890   6.328  16.708  0.00  0.00    +0.000 A 
ATOM     13  C   UNL     1       6.884   7.172  17.238  0.00  0.00    +0.000 A 
ATOM     14  C   UNL     1       7.721   6.737  18.262  0.00  0.00    +0.000 A 
ATOM     15  C   UNL     1       7.578   5.453  18.771  0.00  0.00    +0.000 A 
ATOM     16  C   UNL     1       6.600   4.601  18.255  0.00  0.00    +0.000 A 
ATOM     17  C   UNL     1       5.753   5.010  17.209  0.00  0.00    +0.000 A 
ENDBRANCH  10  17
ENDBRANCH   1  10
TORSDOF 2
ENDMDL
MODEL 9
REMARK VINA RESULT:      -6.6      1.005      1.098
REMARK  Name = 
REMARK  3 active torsions:
REMARK  status: ('A' for Active; 'I' for Inactive)
REMARK    1  A    between atoms: C_1  and  C_2
REMARK    2  A    between atoms: C_7  and  C_8
REMARK    3  A    between atoms: C_8  and  C_9
REMARK                            x       y       z     vdW  Elec       q    Type
REMARK                         _______ _______ _______ _____ _____    ______ ____
ROOT
ATOM      1  C   UNL     1       5.857   5.367  19.025  0.00  0.00    +0.000 C 
ATOM      2  O   UNL     1       6.718   4.967  19.815  0.00  0.00    +0.000 OA
ATOM      3  N   UNL     1       6.129   5.532  17.676  0.00  0.00    +0.000 N 
ATOM      4  C   UNL     1       7.443   5.140  17.160  0.00  0.00    +0.000 C 
ATOM      5  C   UNL     1       7.325   4.529  15.750  0.00  0.00    +0.000 C 
ATOM      6  N   UNL     1       6.605   5.401  14.805  0.00  0.00    +0.000 NA
ATOM      7  C   UNL     1       5.288   5.769  15.353  0.00  0.00    +0.000 C 
ATOM      8  C   UNL     1       5.369   6.390  16.762  0.00  0.00    +0.000 C 
ATOM      9  H   UNL     1       6.473   4.901  13.925  0.00  0.00    +0.000 HD
ENDROOT
BRANCH   1  10
ATOM     10  C   UNL     1       4.431   5.602  19.513  0.00  0.00    +0.000 C 
BRANCH  10  17
ATOM     11  C   UNL     1       1.955   6.301  17.960  0.00  0.00    +0.000 C 
ATOM     12  C   UNL     1       2.254   4.888  18.382  0.00  0.00    +0.000 A 
ATOM     13  C   UNL     1       1.362   3.874  17.986  0.00  0.00    +0.000 A 
ATOM     14  C   UNL     1       1.598   2.543  18.318  0.00  0.00    +0.000 A 
ATOM     15  C   UNL     1       2.729   2.205  19.050  0.00  0.00    +0.000 A 
ATOM     16  C   UNL     1       3.622   3.198  19.455  0.00  0.00    +0.000 A 
ATOM     17  C   UNL     1       3.398   4.552  19.147  0.00  0.00    +0.000 A 
ENDBRANCH  10  17
ENDBRANCH   1  10
TORSDOF 2
ENDMDL
