MODEL 1
REMARK VINA RESULT:      -6.7      0.000      0.000
REMARK  Name = 
REMARK  5 active torsions:
REMARK  status: ('A' for Active; 'I' for Inactive)
REMARK    1  A    between atoms: C_1  and  N_2
REMARK    2  A    between atoms: N_2  and  C_3
REMARK    3  A    between atoms: C_8  and  C_9
REMARK    4  A    between atoms: C_14  and  C_16
REMARK    5  A    between atoms: C_16  and  O_17
REMARK                            x       y       z     vdW  Elec       q    Type
REMARK                         _______ _______ _______ _____ _____    ______ ____
ROOT
ATOM      1  C   UNL     1       3.895   3.069  17.095  0.00  0.00    +0.000 C 
ATOM      2  C   UNL     1       2.663   3.907  16.704  0.00  0.00    +0.000 C 
ATOM      3  C   UNL     1       2.158   4.777  17.847  0.00  0.00    +0.000 C 
ATOM      4  C   UNL     1       1.873   3.921  19.070  0.00  0.00    +0.000 C 
ATOM      5  N   UNL     1       3.087   3.246  19.520  0.00  0.00    +0.000 N 
ATOM      6  C   UNL     1       3.274   2.877  20.855  0.00  0.00    +0.000 C 
ATOM      7  O   UNL     1       4.208   2.155  21.216  0.00  0.00    +0.000 OA
ATOM      8  C   UNL     1       3.808   2.460  18.509  0.00  0.00    +0.000 C 
ENDROOT
BRANCH   1  16
ATOM      9  C   UNL     1       7.903   5.426  13.236  0.00  0.00    +0.000 C 
ATOM     10  N   UNL     1       6.719   4.699  13.649  0.00  0.00    +0.000 N 
ATOM     11  C   UNL     1       6.327   3.520  12.899  0.00  0.00    +0.000 C 
ATOM     12  C   UNL     1       6.478   4.635  15.017  0.00  0.00    +0.000 A 
ATOM     13  N   UNL     1       7.227   5.357  15.863  0.00  0.00    +0.000 NA
ATOM     14  C   UNL     1       6.931   5.281  17.176  0.00  0.00    +0.000 A 
ATOM     15  C   UNL     1       5.894   4.538  17.688  0.00  0.00    +0.000 A 
ATOM     16  C   UNL     1       5.156   3.841  16.766  0.00  0.00    +0.000 A 
ATOM     17  N   UNL     1       5.458   3.874  15.445  0.00  0.00    +0.000 NA
ENDBRANCH   1  16
BRANCH   6  18
ATOM     18  C   UNL     1       2.246   3.354  21.890  0.00  0.00    +0.000 C 
BRANCH  18  19
ATOM     19  O   UNL     1       1.366   2.319  22.307  0.00  0.00    +0.000 OA
ATOM     20  H   UNL     1       1.087   2.557  23.216  0.00  0.00    +0.000 HD
ENDBRANCH  18  19
ENDBRANCH   6  18
TORSDOF 3
ENDMDL
MODEL 2
REMARK VINA RESULT:      -6.3      1.519      1.796
REMARK  Name = 
REMARK  5 active torsions:
REMARK  status: ('A' for Active; 'I' for Inactive)
REMARK    1  A    between atoms: C_1  and  N_2
REMARK    2  A    between atoms: N_2  and  C_3
REMARK    3  A    between atoms: C_8  and  C_9
REMARK    4  A    between atoms: C_14  and  C_16
REMARK    5  A    between atoms: C_16  and  O_17
REMARK                            x       y       z     vdW  Elec       q    Type
REMARK                         _______ _______ _______ _____ _____    ______ ____
ROOT
ATOM      1  C   UNL     1       3.107   5.619  17.422  0.00  0.00    +0.000 C 
ATOM      2  C   UNL     1       2.733   6.792  18.347  0.00  0.00    +0.000 C 
ATOM      3  C   UNL     1       2.818   6.427  19.823  0.00  0.00    +0.000 C 
ATOM      4  C   UNL     1       1.959   5.206  20.110  0.00  0.00    +0.000 C 
ATOM      5  N   UNL     1       2.421   4.059  19.335  0.00  0.00    +0.000 N 
ATOM      6  C   UNL     1       2.225   2.746  19.774  0.00  0.00    +0.000 C 
ATOM      7  O   UNL     1       2.449   1.769  19.053  0.00  0.00    +0.000 OA
ATOM      8  C   UNL     1       2.544   4.260  17.884  0.00  0.00    +0.000 C 
ENDROOT
BRANCH   1  16
ATOM      9  C   UNL     1       7.872   4.960  13.765  0.00  0.00    +0.000 C 
ATOM     10  N   UNL     1       6.475   4.938  14.151  0.00  0.00    +0.000 N 
ATOM     11  C   UNL     1       5.624   3.885  13.629  0.00  0.00    +0.000 C 
ATOM     12  C   UNL     1       6.186   5.342  15.449  0.00  0.00    +0.000 A 
ATOM     13  N   UNL     1       7.150   5.873  16.217  0.00  0.00    +0.000 NA
ATOM     14  C   UNL     1       6.807   6.275  17.456  0.00  0.00    +0.000 A 
ATOM     15  C   UNL     1       5.532   6.203  17.963  0.00  0.00    +0.000 A 
ATOM     16  C   UNL     1       4.591   5.670  17.118  0.00  0.00    +0.000 A 
ATOM     17  N   UNL     1       4.920   5.225  15.882  0.00  0.00    +0.000 NA
ENDBRANCH   1  16
BRANCH   6  18
ATOM     18  C   UNL     1       1.667   2.529  21.187  0.00  0.00    +0.000 C 
BRANCH  18  19
ATOM     19  O   UNL     1       2.686   2.460  22.175  0.00  0.00    +0.000 OA
ATOM     20  H   UNL     1       2.858   1.505  22.313  0.00  0.00    +0.000 HD
ENDBRANCH  18  19
ENDBRANCH   6  18
TORSDOF 3
ENDMDL
MODEL 3
REMARK VINA RESULT:      -6.2      4.128      6.486
REMARK  Name = 
REMARK  5 active torsions:
REMARK  status: ('A' for Active; 'I' for Inactive)
REMARK    1  A    between atoms: C_1  and  N_2
REMARK    2  A    between atoms: N_2  and  C_3
REMARK    3  A    between atoms: C_8  and  C_9
REMARK    4  A    between atoms: C_14  and  C_16
REMARK    5  A    between atoms: C_16  and  O_17
REMARK                            x       y       z     vdW  Elec       q    Type
REMARK                         _______ _______ _______ _____ _____    ______ ____
ROOT
ATOM      1  C   UNL     1       3.461   6.463  19.352  0.00  0.00    +0.000 C 
ATOM      2  C   UNL     1       4.267   6.045  18.107  0.00  0.00    +0.000 C 
ATOM      3  C   UNL     1       3.570   4.963  17.293  0.00  0.00    +0.000 C 
ATOM      4  C   UNL     1       3.258   3.764  18.173  0.00  0.00    +0.000 C 
ATOM      5  N   UNL     1       2.371   4.146  19.267  0.00  0.00    +0.000 N 
ATOM      6  C   UNL     1       1.501   3.229  19.865  0.00  0.00    +0.000 C 
ATOM      7  O   UNL     1       0.877   3.489  20.898  0.00  0.00    +0.000 OA
ATOM      8  C   UNL     1       2.806   5.280  20.094  0.00  0.00    +0.000 C 
ENDROOT
BRANCH   1  16
ATOM      9  C   UNL     1      -0.625  10.701  20.713  0.00  0.00    +0.000 C 
ATOM     10  N   UNL     1       0.267   9.584  20.952  0.00  0.00    +0.000 N 
ATOM     11  C   UNL     1      -0.152   8.542  21.872  0.00  0.00    +0.000 C 
ATOM     12  C   UNL     1       1.015   9.146  19.866  0.00  0.00    +0.000 A 
ATOM     13  N   UNL     1       1.010   9.848  18.722  0.00  0.00    +0.000 NA
ATOM     14  C   UNL     1       1.777   9.395  17.711  0.00  0.00    +0.000 A 
ATOM     15  C   UNL     1       2.583   8.284  17.795  0.00  0.00    +0.000 A 
ATOM     16  C   UNL     1       2.557   7.626  18.999  0.00  0.00    +0.000 A 
ATOM     17  N   UNL     1       1.765   8.043  20.016  0.00  0.00    +0.000 NA
ENDBRANCH   1  16
BRANCH   6  18
ATOM     18  C   UNL     1       1.363   1.840  19.229  0.00  0.00    +0.000 C 
BRANCH  18  19
ATOM     19  O   UNL     1       0.292   1.766  18.297  0.00  0.00    +0.000 OA
ATOM     20  H   UNL     1      -0.170   0.923  18.490  0.00  0.00    +0.000 HD
ENDBRANCH  18  19
ENDBRANCH   6  18
TORSDOF 3
ENDMDL
MODEL 4
REMARK VINA RESULT:      -6.1      4.364      6.682
REMARK  Name = 
REMARK  5 active torsions:
REMARK  status: ('A' for Active; 'I' for Inactive)
REMARK    1  A    between atoms: C_1  and  N_2
REMARK    2  A    between atoms: N_2  and  C_3
REMARK    3  A    between atoms: C_8  and  C_9
REMARK    4  A    between atoms: C_14  and  C_16
REMARK    5  A    between atoms: C_16  and  O_17
REMARK                            x       y       z     vdW  Elec       q    Type
REMARK                         _______ _______ _______ _____ _____    ______ ____
ROOT
ATOM      1  C   UNL     1       2.683   5.877  18.202  0.00  0.00    +0.000 C 
ATOM      2  C   UNL     1       2.499   4.452  18.756  0.00  0.00    +0.000 C 
ATOM      3  C   UNL     1       3.717   3.959  19.526  0.00  0.00    +0.000 C 
ATOM      4  C   UNL     1       4.960   4.053  18.656  0.00  0.00    +0.000 C 
ATOM      5  N   UNL     1       5.207   5.436  18.260  0.00  0.00    +0.000 N 
ATOM      6  C   UNL     1       6.492   5.901  17.967  0.00  0.00    +0.000 C 
ATOM      7  O   UNL     1       6.694   7.010  17.465  0.00  0.00    +0.000 OA
ATOM      8  C   UNL     1       4.087   6.141  17.620  0.00  0.00    +0.000 C 
ENDROOT
BRANCH   1  16
ATOM      9  C   UNL     1       0.739  11.365  19.820  0.00  0.00    +0.000 C 
ATOM     10  N   UNL     1       1.238  10.337  18.928  0.00  0.00    +0.000 N 
ATOM     11  C   UNL     1       2.179  10.712  17.889  0.00  0.00    +0.000 C 
ATOM     12  C   UNL     1       1.444   9.081  19.486  0.00  0.00    +0.000 A 
ATOM     13  N   UNL     1       1.037   8.829  20.739  0.00  0.00    +0.000 NA
ATOM     14  C   UNL     1       1.235   7.585  21.220  0.00  0.00    +0.000 A 
ATOM     15  C   UNL     1       1.795   6.561  20.494  0.00  0.00    +0.000 A 
ATOM     16  C   UNL     1       2.170   6.882  19.214  0.00  0.00    +0.000 A 
ATOM     17  N   UNL     1       2.014   8.135  18.723  0.00  0.00    +0.000 NA
ENDBRANCH   1  16
BRANCH   6  18
ATOM     18  C   UNL     1       7.680   4.969  18.241  0.00  0.00    +0.000 C 
BRANCH  18  19
ATOM     19  O   UNL     1       8.026   4.174  17.115  0.00  0.00    +0.000 OA
ATOM     20  H   UNL     1       7.795   4.711  16.329  0.00  0.00    +0.000 HD
ENDBRANCH  18  19
ENDBRANCH   6  18
TORSDOF 3
ENDMDL
MODEL 5
REMARK VINA RESULT:      -5.7      4.736      6.933
REMARK  Name = 
REMARK  5 active torsions:
REMARK  status: ('A' for Active; 'I' for Inactive)
REMARK    1  A    between atoms: C_1  and  N_2
REMARK    2  A    between atoms: N_2  and  C_3
REMARK    3  A    between atoms: C_8  and  C_9
REMARK    4  A    between atoms: C_14  and  C_16
REMARK    5  A    between atoms: C_16  and  O_17
REMARK                            x       y       z     vdW  Elec       q    Type
REMARK                         _______ _______ _______ _____ _____    ______ ____
ROOT
ATOM      1  C   UNL     1       2.582   6.959  19.972  0.00  0.00    +0.000 C 
ATOM      2  C   UNL     1       2.855   7.135  18.467  0.00  0.00    +0.000 C 
ATOM      3  C   UNL     1       1.954   6.266  17.601  0.00  0.00    +0.000 C 
ATOM      4  C   UNL     1       2.078   4.809  18.014  0.00  0.00    +0.000 C 
ATOM      5  N   UNL     1       1.673   4.632  19.405  0.00  0.00    +0.000 N 
ATOM      6  C   UNL     1       1.159   3.420  19.875  0.00  0.00    +0.000 C 
ATOM      7  O   UNL     1       0.978   3.201  21.076  0.00  0.00    +0.000 OA
ATOM      8  C   UNL     1       2.336   5.496  20.392  0.00  0.00    +0.000 C 
ENDROOT
BRANCH   1  16
ATOM      9  C   UNL     1      -0.479  12.135  19.375  0.00  0.00    +0.000 C 
ATOM     10  N   UNL     1       0.487  11.110  19.031  0.00  0.00    +0.000 N 
ATOM     11  C   UNL     1       1.756  11.514  18.454  0.00  0.00    +0.000 C 
ATOM     12  C   UNL     1       0.545  10.007  19.875  0.00  0.00    +0.000 A 
ATOM     13  N   UNL     1      -0.369   9.857  20.845  0.00  0.00    +0.000 NA
ATOM     14  C   UNL     1      -0.282   8.754  21.615  0.00  0.00    +0.000 A 
ATOM     15  C   UNL     1       0.660   7.768  21.443  0.00  0.00    +0.000 A 
ATOM     16  C   UNL     1       1.550   7.975  20.420  0.00  0.00    +0.000 A 
ATOM     17  N   UNL     1       1.505   9.094  19.657  0.00  0.00    +0.000 NA
ENDBRANCH   1  16
BRANCH   6  18
ATOM     18  C   UNL     1       0.858   2.315  18.853  0.00  0.00    +0.000 C 
BRANCH  18  19
ATOM     19  O   UNL     1       1.932   1.396  18.705  0.00  0.00    +0.000 OA
ATOM     20  H   UNL     1       2.690   1.794  19.182  0.00  0.00    +0.000 HD
ENDBRANCH  18  19
ENDBRANCH   6  18
TORSDOF 3
ENDMDL
MODEL 6
REMARK VINA RESULT:      -5.7      4.623      7.180
REMARK  Name = 
REMARK  5 active torsions:
REMARK  status: ('A' for Active; 'I' for Inactive)
REMARK    1  A    between atoms: C_1  and  N_2
REMARK    2  A    between atoms: N_2  and  C_3
REMARK    3  A    between atoms: C_8  and  C_9
REMARK    4  A    between atoms: C_14  and  C_16
REMARK    5  A    between atoms: C_16  and  O_17
REMARK                            x       y       z     vdW  Elec       q    Type
REMARK                         _______ _______ _______ _____ _____    ______ ____
ROOT
ATOM      1  C   UNL     1       2.510   6.538  17.954  0.00  0.00    +0.000 C 
ATOM      2  C   UNL     1       2.256   5.609  19.156  0.00  0.00    +0.000 C 
ATOM      3  C   UNL     1       3.459   5.508  20.084  0.00  0.00    +0.000 C 
ATOM      4  C   UNL     1       4.688   5.072  19.304  0.00  0.00    +0.000 C 
ATOM      5  N   UNL     1       5.005   6.041  18.260  0.00  0.00    +0.000 N 
ATOM      6  C   UNL     1       6.309   6.215  17.787  0.00  0.00    +0.000 C 
ATOM      7  O   UNL     1       6.564   6.898  16.790  0.00  0.00    +0.000 OA
ATOM      8  C   UNL     1       3.915   6.384  17.336  0.00  0.00    +0.000 C 
ENDROOT
BRANCH   1  16
ATOM      9  C   UNL     1       0.127  10.659  21.675  0.00  0.00    +0.000 C 
ATOM     10  N   UNL     1       0.570   9.347  21.248  0.00  0.00    +0.000 N 
ATOM     11  C   UNL     1      -0.203   8.186  21.649  0.00  0.00    +0.000 C 
ATOM     12  C   UNL     1       1.141   9.268  19.983  0.00  0.00    +0.000 A 
ATOM     13  N   UNL     1       1.403  10.390  19.295  0.00  0.00    +0.000 NA
ATOM     14  C   UNL     1       1.984  10.256  18.086  0.00  0.00    +0.000 A 
ATOM     15  C   UNL     1       2.351   9.051  17.539  0.00  0.00    +0.000 A 
ATOM     16  C   UNL     1       2.074   7.946  18.304  0.00  0.00    +0.000 A 
ATOM     17  N   UNL     1       1.457   8.054  19.505  0.00  0.00    +0.000 NA
ENDBRANCH   1  16
BRANCH   6  18
ATOM     18  C   UNL     1       7.447   5.486  18.513  0.00  0.00    +0.000 C 
BRANCH  18  19
ATOM     19  O   UNL     1       7.789   4.251  17.898  0.00  0.00    +0.000 OA
ATOM     20  H   UNL     1       7.661   4.388  16.937  0.00  0.00    +0.000 HD
ENDBRANCH  18  19
ENDBRANCH   6  18
TORSDOF 3
ENDMDL
MODEL 7
REMARK VINA RESULT:      -5.6      3.669      6.879
REMARK  Name = 
REMARK  5 active torsions:
REMARK  status: ('A' for Active; 'I' for Inactive)
REMARK    1  A    between atoms: C_1  and  N_2
REMARK    2  A    between atoms: N_2  and  C_3
REMARK    3  A    between atoms: C_8  and  C_9
REMARK    4  A    between atoms: C_14  and  C_16
REMARK    5  A    between atoms: C_16  and  O_17
REMARK                            x       y       z     vdW  Elec       q    Type
REMARK                         _______ _______ _______ _____ _____    ______ ____
ROOT
ATOM      1  C   UNL     1       4.970   4.466  17.670  0.00  0.00    +0.000 C 
ATOM      2  C   UNL     1       6.333   4.693  18.351  0.00  0.00    +0.000 C 
ATOM      3  C   UNL     1       7.342   5.369  17.433  0.00  0.00    +0.000 C 
ATOM      4  C   UNL     1       7.497   4.573  16.148  0.00  0.00    +0.000 C 
ATOM      5  N   UNL     1       6.225   4.492  15.437  0.00  0.00    +0.000 N 
ATOM      6  C   UNL     1       6.165   4.340  14.048  0.00  0.00    +0.000 C 
ATOM      7  O   UNL     1       5.110   4.095  13.456  0.00  0.00    +0.000 OA
ATOM      8  C   UNL     1       5.078   3.991  16.207  0.00  0.00    +0.000 C 
ENDROOT
BRANCH   1  16
ATOM      9  C   UNL     1       0.955   7.552  20.967  0.00  0.00    +0.000 C 
ATOM     10  N   UNL     1       1.839   6.455  20.628  0.00  0.00    +0.000 N 
ATOM     11  C   UNL     1       1.428   5.101  20.953  0.00  0.00    +0.000 C 
ATOM     12  C   UNL     1       2.563   6.585  19.448  0.00  0.00    +0.000 A 
ATOM     13  N   UNL     1       2.543   7.745  18.775  0.00  0.00    +0.000 NA
ATOM     14  C   UNL     1       3.286   7.825  17.653  0.00  0.00    +0.000 A 
ATOM     15  C   UNL     1       4.081   6.808  17.183  0.00  0.00    +0.000 A 
ATOM     16  C   UNL     1       4.071   5.658  17.931  0.00  0.00    +0.000 A 
ATOM     17  N   UNL     1       3.303   5.542  19.041  0.00  0.00    +0.000 NA
ENDBRANCH   1  16
BRANCH   6  18
ATOM     18  C   UNL     1       7.473   4.437  13.251  0.00  0.00    +0.000 C 
BRANCH  18  19
ATOM     19  O   UNL     1       7.941   5.773  13.124  0.00  0.00    +0.000 OA
ATOM     20  H   UNL     1       8.348   5.828  12.235  0.00  0.00    +0.000 HD
ENDBRANCH  18  19
ENDBRANCH   6  18
TORSDOF 3
ENDMDL
MODEL 8
REMARK VINA RESULT:      -5.6     10.020     12.790
REMARK  Name = 
REMARK  5 active torsions:
REMARK  status: ('A' for Active; 'I' for Inactive)
REMARK    1  A    between atoms: C_1  and  N_2
REMARK    2  A    between atoms: N_2  and  C_3
REMARK    3  A    between atoms: C_8  and  C_9
REMARK    4  A    between atoms: C_14  and  C_16
REMARK    5  A    between atoms: C_16  and  O_17
REMARK                            x       y       z     vdW  Elec       q    Type
REMARK                         _______ _______ _______ _____ _____    ______ ____
ROOT
ATOM      1  C   UNL     1      -2.179  12.674  20.177  0.00  0.00    +0.000 C 
ATOM      2  C   UNL     1      -1.912  12.076  18.783  0.00  0.00    +0.000 C 
ATOM      3  C   UNL     1      -1.560  10.595  18.836  0.00  0.00    +0.000 C 
ATOM      4  C   UNL     1      -0.378  10.371  19.765  0.00  0.00    +0.000 C 
ATOM      5  N   UNL     1      -0.699  10.807  21.120  0.00  0.00    +0.000 N 
ATOM      6  C   UNL     1      -0.082  10.243  22.241  0.00  0.00    +0.000 C 
ATOM      7  O   UNL     1      -0.211  10.718  23.373  0.00  0.00    +0.000 OA
ATOM      8  C   UNL     1      -1.199  12.181  21.261  0.00  0.00    +0.000 C 
ENDROOT
BRANCH   1  16
ATOM      9  C   UNL     1      -6.893  12.917  23.949  0.00  0.00    +0.000 C 
ATOM     10  N   UNL     1      -5.503  12.994  23.547  0.00  0.00    +0.000 N 
ATOM     11  C   UNL     1      -4.484  12.520  24.465  0.00  0.00    +0.000 C 
ATOM     12  C   UNL     1      -5.235  12.770  22.201  0.00  0.00    +0.000 A 
ATOM     13  N   UNL     1      -6.246  12.658  21.326  0.00  0.00    +0.000 NA
ATOM     14  C   UNL     1      -5.928  12.471  20.030  0.00  0.00    +0.000 A 
ATOM     15  C   UNL     1      -4.640  12.422  19.553  0.00  0.00    +0.000 A 
ATOM     16  C   UNL     1      -3.656  12.565  20.498  0.00  0.00    +0.000 A 
ATOM     17  N   UNL     1      -3.951  12.717  21.811  0.00  0.00    +0.000 NA
ENDBRANCH   1  16
BRANCH   6  18
ATOM     18  C   UNL     1       0.822   9.021  22.034  0.00  0.00    +0.000 C 
BRANCH  18  19
ATOM     19  O   UNL     1       2.090   9.164  22.658  0.00  0.00    +0.000 OA
ATOM     20  H   UNL     1       2.247   8.324  23.137  0.00  0.00    +0.000 HD
ENDBRANCH  18  19
ENDBRANCH   6  18
TORSDOF 3
ENDMDL
MODEL 9
REMARK VINA RESULT:      -5.5      1.654      1.996
REMARK  Name = 
REMARK  5 active torsions:
REMARK  status: ('A' for Active; 'I' for Inactive)
REMARK    1  A    between atoms: C_1  and  N_2
REMARK    2  A    between atoms: N_2  and  C_3
REMARK    3  A    between atoms: C_8  and  C_9
REMARK    4  A    between atoms: C_14  and  C_16
REMARK    5  A    between atoms: C_16  and  O_17
REMARK                            x       y       z     vdW  Elec       q    Type
REMARK                         _______ _______ _______ _____ _____    ______ ____
ROOT
ATOM      1  C   UNL     1       4.032   4.818  16.796  0.00  0.00    +0.000 C 
ATOM      2  C   UNL     1       3.933   6.029  17.742  0.00  0.00    +0.000 C 
ATOM      3  C   UNL     1       4.474   5.732  19.134  0.00  0.00    +0.000 C 
ATOM      4  C   UNL     1       3.772   4.518  19.721  0.00  0.00    +0.000 C 
ATOM      5  N   UNL     1       3.998   3.341  18.889  0.00  0.00    +0.000 N 
ATOM      6  C   UNL     1       3.976   2.048  19.419  0.00  0.00    +0.000 C 
ATOM      7  O   UNL     1       3.990   1.041  18.705  0.00  0.00    +0.000 OA
ATOM      8  C   UNL     1       3.667   3.477  17.463  0.00  0.00    +0.000 C 
ENDROOT
BRANCH   1  16
ATOM      9  C   UNL     1       7.434   4.166  11.845  0.00  0.00    +0.000 C 
ATOM     10  N   UNL     1       6.225   4.144  12.643  0.00  0.00    +0.000 N 
ATOM     11  C   UNL     1       5.251   3.095  12.406  0.00  0.00    +0.000 C 
ATOM     12  C   UNL     1       6.351   4.544  13.969  0.00  0.00    +0.000 A 
ATOM     13  N   UNL     1       7.506   5.070  14.403  0.00  0.00    +0.000 NA
ATOM     14  C   UNL     1       7.564   5.468  15.689  0.00  0.00    +0.000 A 
ATOM     15  C   UNL     1       6.506   5.396  16.564  0.00  0.00    +0.000 A 
ATOM     16  C   UNL     1       5.349   4.868  16.049  0.00  0.00    +0.000 A 
ATOM     17  N   UNL     1       5.280   4.428  14.770  0.00  0.00    +0.000 NA
ENDBRANCH   1  16
BRANCH   6  18
ATOM     18  C   UNL     1       3.882   1.890  20.943  0.00  0.00    +0.000 C 
BRANCH  18  19
ATOM     19  O   UNL     1       5.125   1.539  21.536  0.00  0.00    +0.000 OA
ATOM     20  H   UNL     1       5.481   0.805  20.993  0.00  0.00    +0.000 HD
ENDBRANCH  18  19
ENDBRANCH   6  18
TORSDOF 3
ENDMDL
