MODEL 1
REMARK VINA RESULT:      -8.1      0.000      0.000
REMARK  Name = 
REMARK  12 active torsions:
REMARK  status: ('A' for Active; 'I' for Inactive)
REMARK    1  A    between atoms: C_1  and  C_2
REMARK    2  A    between atoms: C_2  and  O_3
REMARK    3  A    between atoms: O_3  and  C_4
REMARK    4  A    between atoms: C_4  and  C_6
REMARK    5  A    between atoms: C_7  and  C_8
REMARK    6  A    between atoms: C_10  and  C_11
REMARK    7  A    between atoms: C_12  and  C_13
REMARK    8  A    between atoms: C_13  and  O_15
REMARK    9  A    between atoms: O_15  and  C_16
REMARK   10  A    between atoms: C_16  and  C_17
REMARK   11  A    between atoms: C_18  and  C_19
REMARK   12  A    between atoms: C_23  and  N_24
REMARK                            x       y       z     vdW  Elec       q    Type
REMARK                         _______ _______ _______ _____ _____    ______ ____
ROOT
ATOM      1  C   UNL     1       2.795   6.216  19.041  0.00  0.00    +0.000 C 
ATOM      2  C   UNL     1       2.111   6.380  20.194  0.00  0.00    +0.000 C 
ATOM      3  C   UNL     1       1.516   7.645  20.751  0.00  0.00    +0.000 C 
ATOM      4  O   UNL     1       1.865   5.317  21.050  0.00  0.00    +0.000 OA
ATOM      5  C   UNL     1       2.444   4.079  20.840  0.00  0.00    +0.000 C 
ATOM      6  C   UNL     1       2.193   3.143  21.990  0.00  0.00    +0.000 C 
ATOM      7  C   UNL     1       3.139   3.794  19.717  0.00  0.00    +0.000 C 
ATOM      8  C   UNL     1       3.341   4.845  18.634  0.00  0.00    +0.000 C 
ENDROOT
BRANCH   8   9
ATOM      9  C   UNL     1       4.809   4.949  18.211  0.00  0.00    +0.000 A 
ATOM     10  C   UNL     1       5.806   5.345  19.115  0.00  0.00    +0.000 A 
ATOM     11  C   UNL     1       7.126   5.498  18.693  0.00  0.00    +0.000 A 
ATOM     12  C   UNL     1       7.471   5.262  17.361  0.00  0.00    +0.000 A 
ATOM     13  C   UNL     1       6.488   4.855  16.456  0.00  0.00    +0.000 A 
ATOM     14  C   UNL     1       5.163   4.689  16.873  0.00  0.00    +0.000 A 
BRANCH  13  15
ATOM     15  N   UNL     1       6.830   4.644  15.044  0.00  0.00    +0.000 N 
ATOM     16  O   UNL     1       6.257   3.727  14.444  0.00  0.00    +0.000 OA
ATOM     17  O   UNL     1       7.679   5.393  14.536  0.00  0.00    +0.000 OA
ENDBRANCH  13  15
ENDBRANCH   8   9
BRANCH   1  18
ATOM     18  C   UNL     1       3.104   7.397  18.183  0.00  0.00    +0.000 C 
ATOM     19  O   UNL     1       4.233   7.804  17.955  0.00  0.00    +0.000 OA
BRANCH  18  20
ATOM     20  O   UNL     1       1.970   7.932  17.662  0.00  0.00    +0.000 OA
BRANCH  20  22
ATOM     21  C   UNL     1       0.467   9.838  18.080  0.00  0.00    +0.000 C 
ATOM     22  C   UNL     1       1.872   9.366  17.733  0.00  0.00    +0.000 C 
ENDBRANCH  20  22
ENDBRANCH  18  20
ENDBRANCH   1  18
BRANCH   7  23
ATOM     23  C   UNL     1       3.768   2.450  19.588  0.00  0.00    +0.000 C 
ATOM     24  O   UNL     1       4.875   2.169  20.029  0.00  0.00    +0.000 OA
BRANCH  23  25
ATOM     25  O   UNL     1       2.980   1.583  18.902  0.00  0.00    +0.000 OA
BRANCH  25  26
ATOM     26  C   UNL     1       2.014   2.212  18.034  0.00  0.00    +0.000 C 
ATOM     27  C   UNL     1       0.607   2.108  18.602  0.00  0.00    +0.000 C 
ENDBRANCH  25  26
ENDBRANCH  23  25
ENDBRANCH   7  23
TORSDOF 8
ENDMDL
MODEL 2
REMARK VINA RESULT:      -7.9      0.887      1.622
REMARK  Name = 
REMARK  12 active torsions:
REMARK  status: ('A' for Active; 'I' for Inactive)
REMARK    1  A    between atoms: C_1  and  C_2
REMARK    2  A    between atoms: C_2  and  O_3
REMARK    3  A    between atoms: O_3  and  C_4
REMARK    4  A    between atoms: C_4  and  C_6
REMARK    5  A    between atoms: C_7  and  C_8
REMARK    6  A    between atoms: C_10  and  C_11
REMARK    7  A    between atoms: C_12  and  C_13
REMARK    8  A    between atoms: C_13  and  O_15
REMARK    9  A    between atoms: O_15  and  C_16
REMARK   10  A    between atoms: C_16  and  C_17
REMARK   11  A    between atoms: C_18  and  C_19
REMARK   12  A    between atoms: C_23  and  N_24
REMARK                            x       y       z     vdW  Elec       q    Type
REMARK                         _______ _______ _______ _____ _____    ______ ____
ROOT
ATOM      1  C   UNL     1       2.815   5.968  18.993  0.00  0.00    +0.000 C 
ATOM      2  C   UNL     1       2.135   6.081  20.155  0.00  0.00    +0.000 C 
ATOM      3  C   UNL     1       1.532   7.319  20.762  0.00  0.00    +0.000 C 
ATOM      4  O   UNL     1       1.902   4.984  20.971  0.00  0.00    +0.000 OA
ATOM      5  C   UNL     1       2.491   3.760  20.711  0.00  0.00    +0.000 C 
ATOM      6  C   UNL     1       2.254   2.779  21.825  0.00  0.00    +0.000 C 
ATOM      7  C   UNL     1       3.184   3.524  19.575  0.00  0.00    +0.000 C 
ATOM      8  C   UNL     1       3.371   4.618  18.532  0.00  0.00    +0.000 C 
ENDROOT
BRANCH   8   9
ATOM      9  C   UNL     1       4.837   4.751  18.108  0.00  0.00    +0.000 A 
ATOM     10  C   UNL     1       5.836   5.116  19.023  0.00  0.00    +0.000 A 
ATOM     11  C   UNL     1       7.152   5.297  18.602  0.00  0.00    +0.000 A 
ATOM     12  C   UNL     1       7.493   5.121  17.259  0.00  0.00    +0.000 A 
ATOM     13  C   UNL     1       6.508   4.744  16.342  0.00  0.00    +0.000 A 
ATOM     14  C   UNL     1       5.186   4.551  16.758  0.00  0.00    +0.000 A 
BRANCH  13  15
ATOM     15  N   UNL     1       6.845   4.596  14.921  0.00  0.00    +0.000 N 
ATOM     16  O   UNL     1       6.245   3.728  14.276  0.00  0.00    +0.000 OA
ATOM     17  O   UNL     1       7.717   5.345  14.452  0.00  0.00    +0.000 OA
ENDBRANCH  13  15
ENDBRANCH   8   9
BRANCH   1  18
ATOM     18  C   UNL     1       3.111   7.183  18.180  0.00  0.00    +0.000 C 
ATOM     19  O   UNL     1       4.235   7.597  17.947  0.00  0.00    +0.000 OA
BRANCH  18  20
ATOM     20  O   UNL     1       1.968   7.742  17.706  0.00  0.00    +0.000 OA
BRANCH  20  22
ATOM     21  C   UNL     1       0.574   9.727  18.131  0.00  0.00    +0.000 C 
ATOM     22  C   UNL     1       1.932   9.181  17.713  0.00  0.00    +0.000 C 
ENDBRANCH  20  22
ENDBRANCH  18  20
ENDBRANCH   1  18
BRANCH   7  23
ATOM     23  C   UNL     1       3.824   2.192  19.391  0.00  0.00    +0.000 C 
ATOM     24  O   UNL     1       3.416   1.340  18.611  0.00  0.00    +0.000 OA
BRANCH  23  25
ATOM     25  O   UNL     1       4.894   2.024  20.209  0.00  0.00    +0.000 OA
BRANCH  25  26
ATOM     26  C   UNL     1       5.196   0.649  20.523  0.00  0.00    +0.000 C 
ATOM     27  C   UNL     1       5.802   0.517  21.912  0.00  0.00    +0.000 C 
ENDBRANCH  25  26
ENDBRANCH  23  25
ENDBRANCH   7  23
TORSDOF 8
ENDMDL
MODEL 3
REMARK VINA RESULT:      -7.8      1.732      2.088
REMARK  Name = 
REMARK  12 active torsions:
REMARK  status: ('A' for Active; 'I' for Inactive)
REMARK    1  A    between atoms: C_1  and  C_2
REMARK    2  A    between atoms: C_2  and  O_3
REMARK    3  A    between atoms: O_3  and  C_4
REMARK    4  A    between atoms: C_4  and  C_6
REMARK    5  A    between atoms: C_7  and  C_8
REMARK    6  A    between atoms: C_10  and  C_11
REMARK    7  A    between atoms: C_12  and  C_13
REMARK    8  A    between atoms: C_13  and  O_15
REMARK    9  A    between atoms: O_15  and  C_16
REMARK   10  A    between atoms: C_16  and  C_17
REMARK   11  A    between atoms: C_18  and  C_19
REMARK   12  A    between atoms: C_23  and  N_24
REMARK                            x       y       z     vdW  Elec       q    Type
REMARK                         _______ _______ _______ _____ _____    ______ ____
ROOT
ATOM      1  C   UNL     1       2.502   6.671  18.914  0.00  0.00    +0.000 C 
ATOM      2  C   UNL     1       1.990   6.772  20.160  0.00  0.00    +0.000 C 
ATOM      3  C   UNL     1       1.447   7.996  20.847  0.00  0.00    +0.000 C 
ATOM      4  O   UNL     1       1.901   5.672  21.000  0.00  0.00    +0.000 OA
ATOM      5  C   UNL     1       2.478   4.461  20.659  0.00  0.00    +0.000 C 
ATOM      6  C   UNL     1       2.424   3.478  21.795  0.00  0.00    +0.000 C 
ATOM      7  C   UNL     1       3.009   4.239  19.437  0.00  0.00    +0.000 C 
ATOM      8  C   UNL     1       3.021   5.334  18.378  0.00  0.00    +0.000 C 
ENDROOT
BRANCH   8   9
ATOM      9  C   UNL     1       4.408   5.501  17.752  0.00  0.00    +0.000 A 
ATOM     10  C   UNL     1       4.628   5.278  16.384  0.00  0.00    +0.000 A 
ATOM     11  C   UNL     1       5.910   5.370  15.847  0.00  0.00    +0.000 A 
ATOM     12  C   UNL     1       6.997   5.682  16.667  0.00  0.00    +0.000 A 
ATOM     13  C   UNL     1       6.788   5.919  18.028  0.00  0.00    +0.000 A 
ATOM     14  C   UNL     1       5.501   5.838  18.574  0.00  0.00    +0.000 A 
BRANCH  13  15
ATOM     15  N   UNL     1       7.926   6.207  18.909  0.00  0.00    +0.000 N 
ATOM     16  O   UNL     1       8.464   7.316  18.809  0.00  0.00    +0.000 OA
ATOM     17  O   UNL     1       8.287   5.318  19.696  0.00  0.00    +0.000 OA
ENDBRANCH  13  15
ENDBRANCH   8   9
BRANCH   1  18
ATOM     18  C   UNL     1       2.650   7.891  18.068  0.00  0.00    +0.000 C 
ATOM     19  O   UNL     1       3.722   8.378  17.745  0.00  0.00    +0.000 OA
BRANCH  18  20
ATOM     20  O   UNL     1       1.438   8.362  17.676  0.00  0.00    +0.000 OA
BRANCH  20  22
ATOM     21  C   UNL     1      -0.204  10.100  18.264  0.00  0.00    +0.000 C 
ATOM     22  C   UNL     1       1.229   9.773  17.871  0.00  0.00    +0.000 C 
ENDBRANCH  20  22
ENDBRANCH  18  20
ENDBRANCH   1  18
BRANCH   7  23
ATOM     23  C   UNL     1       3.650   2.923  19.165  0.00  0.00    +0.000 C 
ATOM     24  O   UNL     1       4.695   2.552  19.684  0.00  0.00    +0.000 OA
BRANCH  23  25
ATOM     25  O   UNL     1       2.953   2.195  18.255  0.00  0.00    +0.000 OA
BRANCH  25  26
ATOM     26  C   UNL     1       1.825   1.479  18.801  0.00  0.00    +0.000 C 
ATOM     27  C   UNL     1       0.541   2.285  18.673  0.00  0.00    +0.000 C 
ENDBRANCH  25  26
ENDBRANCH  23  25
ENDBRANCH   7  23
TORSDOF 8
ENDMDL
MODEL 4
REMARK VINA RESULT:      -7.5      1.799      2.415
REMARK  Name = 
REMARK  12 active torsions:
REMARK  status: ('A' for Active; 'I' for Inactive)
REMARK    1  A    between atoms: C_1  and  C_2
REMARK    2  A    between atoms: C_2  and  O_3
REMARK    3  A    between atoms: O_3  and  C_4
REMARK    4  A    between atoms: C_4  and  C_6
REMARK    5  A    between atoms: C_7  and  C_8
REMARK    6  A    between atoms: C_10  and  C_11
REMARK    7  A    between atoms: C_12  and  C_13
REMARK    8  A    between atoms: C_13  and  O_15
REMARK    9  A    between atoms: O_15  and  C_16
REMARK   10  A    between atoms: C_16  and  C_17
REMARK   11  A    between atoms: C_18  and  C_19
REMARK   12  A    between atoms: C_23  and  N_24
REMARK                            x       y       z     vdW  Elec       q    Type
REMARK                         _______ _______ _______ _____ _____    ______ ____
ROOT
ATOM      1  C   UNL     1       2.488   6.457  18.909  0.00  0.00    +0.000 C 
ATOM      2  C   UNL     1       1.980   6.565  20.156  0.00  0.00    +0.000 C 
ATOM      3  C   UNL     1       1.524   7.808  20.870  0.00  0.00    +0.000 C 
ATOM      4  O   UNL     1       1.811   5.455  20.970  0.00  0.00    +0.000 OA
ATOM      5  C   UNL     1       2.301   4.215  20.602  0.00  0.00    +0.000 C 
ATOM      6  C   UNL     1       2.174   3.212  21.715  0.00  0.00    +0.000 C 
ATOM      7  C   UNL     1       2.819   3.984  19.376  0.00  0.00    +0.000 C 
ATOM      8  C   UNL     1       2.912   5.099  18.343  0.00  0.00    +0.000 C 
ENDROOT
BRANCH   8   9
ATOM      9  C   UNL     1       4.309   5.182  17.723  0.00  0.00    +0.000 A 
ATOM     10  C   UNL     1       4.547   4.799  16.394  0.00  0.00    +0.000 A 
ATOM     11  C   UNL     1       5.837   4.817  15.869  0.00  0.00    +0.000 A 
ATOM     12  C   UNL     1       6.915   5.215  16.664  0.00  0.00    +0.000 A 
ATOM     13  C   UNL     1       6.688   5.610  17.985  0.00  0.00    +0.000 A 
ATOM     14  C   UNL     1       5.394   5.604  18.517  0.00  0.00    +0.000 A 
BRANCH  13  15
ATOM     15  N   UNL     1       7.817   5.990  18.843  0.00  0.00    +0.000 N 
ATOM     16  O   UNL     1       8.217   5.160  19.668  0.00  0.00    +0.000 OA
ATOM     17  O   UNL     1       8.299   7.124  18.696  0.00  0.00    +0.000 OA
ENDBRANCH  13  15
ENDBRANCH   8   9
BRANCH   1  18
ATOM     18  C   UNL     1       2.725   7.682  18.092  0.00  0.00    +0.000 C 
ATOM     19  O   UNL     1       3.829   8.134  17.833  0.00  0.00    +0.000 OA
BRANCH  18  20
ATOM     20  O   UNL     1       1.553   8.204  17.645  0.00  0.00    +0.000 OA
BRANCH  20  22
ATOM     21  C   UNL     1       0.025  10.027  18.283  0.00  0.00    +0.000 C 
ATOM     22  C   UNL     1       1.412   9.629  17.797  0.00  0.00    +0.000 C 
ENDBRANCH  20  22
ENDBRANCH  18  20
ENDBRANCH   1  18
BRANCH   7  23
ATOM     23  C   UNL     1       3.365   2.632  19.074  0.00  0.00    +0.000 C 
ATOM     24  O   UNL     1       2.765   1.782  18.428  0.00  0.00    +0.000 OA
BRANCH  23  25
ATOM     25  O   UNL     1       4.593   2.445  19.621  0.00  0.00    +0.000 OA
BRANCH  25  26
ATOM     26  C   UNL     1       4.868   1.086  20.022  0.00  0.00    +0.000 C 
ATOM     27  C   UNL     1       5.351   1.020  21.463  0.00  0.00    +0.000 C 
ENDBRANCH  25  26
ENDBRANCH  23  25
ENDBRANCH   7  23
TORSDOF 8
ENDMDL
MODEL 5
REMARK VINA RESULT:      -7.4      1.036      1.704
REMARK  Name = 
REMARK  12 active torsions:
REMARK  status: ('A' for Active; 'I' for Inactive)
REMARK    1  A    between atoms: C_1  and  C_2
REMARK    2  A    between atoms: C_2  and  O_3
REMARK    3  A    between atoms: O_3  and  C_4
REMARK    4  A    between atoms: C_4  and  C_6
REMARK    5  A    between atoms: C_7  and  C_8
REMARK    6  A    between atoms: C_10  and  C_11
REMARK    7  A    between atoms: C_12  and  C_13
REMARK    8  A    between atoms: C_13  and  O_15
REMARK    9  A    between atoms: O_15  and  C_16
REMARK   10  A    between atoms: C_16  and  C_17
REMARK   11  A    between atoms: C_18  and  C_19
REMARK   12  A    between atoms: C_23  and  N_24
REMARK                            x       y       z     vdW  Elec       q    Type
REMARK                         _______ _______ _______ _____ _____    ______ ____
ROOT
ATOM      1  C   UNL     1       2.662   6.386  18.550  0.00  0.00    +0.000 C 
ATOM      2  C   UNL     1       1.996   6.479  19.721  0.00  0.00    +0.000 C 
ATOM      3  C   UNL     1       1.756   7.705  20.559  0.00  0.00    +0.000 C 
ATOM      4  O   UNL     1       1.419   5.368  20.319  0.00  0.00    +0.000 OA
ATOM      5  C   UNL     1       1.635   4.094  19.824  0.00  0.00    +0.000 C 
ATOM      6  C   UNL     1       1.074   3.039  20.737  0.00  0.00    +0.000 C 
ATOM      7  C   UNL     1       2.276   3.879  18.654  0.00  0.00    +0.000 C 
ATOM      8  C   UNL     1       2.818   5.041  17.834  0.00  0.00    +0.000 C 
ENDROOT
BRANCH   8   9
ATOM      9  C   UNL     1       4.275   4.812  17.421  0.00  0.00    +0.000 A 
ATOM     10  C   UNL     1       5.304   4.737  18.372  0.00  0.00    +0.000 A 
ATOM     11  C   UNL     1       6.631   4.595  17.972  0.00  0.00    +0.000 A 
ATOM     12  C   UNL     1       6.955   4.530  16.615  0.00  0.00    +0.000 A 
ATOM     13  C   UNL     1       5.937   4.590  15.660  0.00  0.00    +0.000 A 
ATOM     14  C   UNL     1       4.600   4.723  16.053  0.00  0.00    +0.000 A 
BRANCH  13  15
ATOM     15  N   UNL     1       6.266   4.564  14.230  0.00  0.00    +0.000 N 
ATOM     16  O   UNL     1       7.244   5.221  13.853  0.00  0.00    +0.000 OA
ATOM     17  O   UNL     1       5.540   3.891  13.481  0.00  0.00    +0.000 OA
ENDBRANCH  13  15
ENDBRANCH   8   9
BRANCH   1  18
ATOM     18  C   UNL     1       3.334   7.588  17.976  0.00  0.00    +0.000 C 
ATOM     19  O   UNL     1       4.518   7.847  18.119  0.00  0.00    +0.000 OA
BRANCH  18  20
ATOM     20  O   UNL     1       2.463   8.330  17.245  0.00  0.00    +0.000 OA
BRANCH  20  22
ATOM     21  C   UNL     1       0.604   9.773  17.971  0.00  0.00    +0.000 C 
ATOM     22  C   UNL     1       2.109   9.605  17.812  0.00  0.00    +0.000 C 
ENDBRANCH  20  22
ENDBRANCH  18  20
ENDBRANCH   1  18
BRANCH   7  23
ATOM     23  C   UNL     1       2.505   2.475  18.214  0.00  0.00    +0.000 C 
ATOM     24  O   UNL     1       2.318   2.079  17.070  0.00  0.00    +0.000 OA
BRANCH  23  25
ATOM     25  O   UNL     1       2.921   1.682  19.235  0.00  0.00    +0.000 OA
BRANCH  25  26
ATOM     26  C   UNL     1       4.349   1.492  19.300  0.00  0.00    +0.000 C 
ATOM     27  C   UNL     1       4.897   1.866  20.669  0.00  0.00    +0.000 C 
ENDBRANCH  25  26
ENDBRANCH  23  25
ENDBRANCH   7  23
TORSDOF 8
ENDMDL
MODEL 6
REMARK VINA RESULT:      -7.2      2.418      6.201
REMARK  Name = 
REMARK  12 active torsions:
REMARK  status: ('A' for Active; 'I' for Inactive)
REMARK    1  A    between atoms: C_1  and  C_2
REMARK    2  A    between atoms: C_2  and  O_3
REMARK    3  A    between atoms: O_3  and  C_4
REMARK    4  A    between atoms: C_4  and  C_6
REMARK    5  A    between atoms: C_7  and  C_8
REMARK    6  A    between atoms: C_10  and  C_11
REMARK    7  A    between atoms: C_12  and  C_13
REMARK    8  A    between atoms: C_13  and  O_15
REMARK    9  A    between atoms: O_15  and  C_16
REMARK   10  A    between atoms: C_16  and  C_17
REMARK   11  A    between atoms: C_18  and  C_19
REMARK   12  A    between atoms: C_23  and  N_24
REMARK                            x       y       z     vdW  Elec       q    Type
REMARK                         _______ _______ _______ _____ _____    ______ ____
ROOT
ATOM      1  C   UNL     1       2.883   3.904  17.883  0.00  0.00    +0.000 C 
ATOM      2  C   UNL     1       3.783   2.900  17.960  0.00  0.00    +0.000 C 
ATOM      3  C   UNL     1       3.576   1.504  18.481  0.00  0.00    +0.000 C 
ATOM      4  O   UNL     1       5.092   3.063  17.533  0.00  0.00    +0.000 OA
ATOM      5  C   UNL     1       5.575   4.304  17.158  0.00  0.00    +0.000 C 
ATOM      6  C   UNL     1       7.059   4.277  16.920  0.00  0.00    +0.000 C 
ATOM      7  C   UNL     1       4.766   5.379  17.032  0.00  0.00    +0.000 C 
ATOM      8  C   UNL     1       3.276   5.276  17.328  0.00  0.00    +0.000 C 
ENDROOT
BRANCH   8   9
ATOM      9  C   UNL     1       2.805   6.395  18.261  0.00  0.00    +0.000 A 
ATOM     10  C   UNL     1       2.807   6.236  19.656  0.00  0.00    +0.000 A 
ATOM     11  C   UNL     1       2.311   7.240  20.485  0.00  0.00    +0.000 A 
ATOM     12  C   UNL     1       1.801   8.419  19.936  0.00  0.00    +0.000 A 
ATOM     13  C   UNL     1       1.807   8.593  18.550  0.00  0.00    +0.000 A 
ATOM     14  C   UNL     1       2.312   7.593  17.710  0.00  0.00    +0.000 A 
BRANCH  13  15
ATOM     15  N   UNL     1       1.237   9.809  17.958  0.00  0.00    +0.000 N 
ATOM     16  O   UNL     1       2.022  10.673  17.550  0.00  0.00    +0.000 OA
ATOM     17  O   UNL     1      -0.000   9.903  17.909  0.00  0.00    +0.000 OA
ENDBRANCH  13  15
ENDBRANCH   8   9
BRANCH   1  18
ATOM     18  C   UNL     1       1.505   3.714  18.421  0.00  0.00    +0.000 C 
ATOM     19  O   UNL     1       0.551   3.346  17.755  0.00  0.00    +0.000 OA
BRANCH  18  20
ATOM     20  O   UNL     1       1.464   3.969  19.755  0.00  0.00    +0.000 OA
BRANCH  20  22
ATOM     21  C   UNL     1       1.979   2.630  21.757  0.00  0.00    +0.000 C 
ATOM     22  C   UNL     1       1.040   2.870  20.582  0.00  0.00    +0.000 C 
ENDBRANCH  20  22
ENDBRANCH  18  20
ENDBRANCH   1  18
BRANCH   7  23
ATOM     23  C   UNL     1       5.372   6.690  16.665  0.00  0.00    +0.000 C 
ATOM     24  O   UNL     1       5.272   7.201  15.557  0.00  0.00    +0.000 OA
BRANCH  23  25
ATOM     25  O   UNL     1       6.067   7.235  17.695  0.00  0.00    +0.000 OA
BRANCH  25  26
ATOM     26  C   UNL     1       7.462   7.473  17.414  0.00  0.00    +0.000 C 
ATOM     27  C   UNL     1       7.876   8.881  17.817  0.00  0.00    +0.000 C 
ENDBRANCH  25  26
ENDBRANCH  23  25
ENDBRANCH   7  23
TORSDOF 8
ENDMDL
MODEL 7
REMARK VINA RESULT:      -7.1      2.575      5.640
REMARK  Name = 
REMARK  12 active torsions:
REMARK  status: ('A' for Active; 'I' for Inactive)
REMARK    1  A    between atoms: C_1  and  C_2
REMARK    2  A    between atoms: C_2  and  O_3
REMARK    3  A    between atoms: O_3  and  C_4
REMARK    4  A    between atoms: C_4  and  C_6
REMARK    5  A    between atoms: C_7  and  C_8
REMARK    6  A    between atoms: C_10  and  C_11
REMARK    7  A    between atoms: C_12  and  C_13
REMARK    8  A    between atoms: C_13  and  O_15
REMARK    9  A    between atoms: O_15  and  C_16
REMARK   10  A    between atoms: C_16  and  C_17
REMARK   11  A    between atoms: C_18  and  C_19
REMARK   12  A    between atoms: C_23  and  N_24
REMARK                            x       y       z     vdW  Elec       q    Type
REMARK                         _______ _______ _______ _____ _____    ______ ____
ROOT
ATOM      1  C   UNL     1       4.632   5.561  17.352  0.00  0.00    +0.000 C 
ATOM      2  C   UNL     1       4.692   4.469  16.560  0.00  0.00    +0.000 C 
ATOM      3  C   UNL     1       5.461   4.291  15.279  0.00  0.00    +0.000 C 
ATOM      4  O   UNL     1       3.999   3.308  16.868  0.00  0.00    +0.000 OA
ATOM      5  C   UNL     1       3.093   3.270  17.913  0.00  0.00    +0.000 C 
ATOM      6  C   UNL     1       2.326   1.977  17.940  0.00  0.00    +0.000 C 
ATOM      7  C   UNL     1       2.955   4.297  18.780  0.00  0.00    +0.000 C 
ATOM      8  C   UNL     1       3.782   5.567  18.626  0.00  0.00    +0.000 C 
ENDROOT
BRANCH   8   9
ATOM      9  C   UNL     1       2.908   6.823  18.690  0.00  0.00    +0.000 A 
ATOM     10  C   UNL     1       2.700   7.631  17.562  0.00  0.00    +0.000 A 
ATOM     11  C   UNL     1       1.957   8.805  17.657  0.00  0.00    +0.000 A 
ATOM     12  C   UNL     1       1.411   9.196  18.882  0.00  0.00    +0.000 A 
ATOM     13  C   UNL     1       1.601   8.393  20.009  0.00  0.00    +0.000 A 
ATOM     14  C   UNL     1       2.338   7.206  19.920  0.00  0.00    +0.000 A 
BRANCH  13  15
ATOM     15  N   UNL     1       1.069   8.813  21.311  0.00  0.00    +0.000 N 
ATOM     16  O   UNL     1       1.838   9.391  22.087  0.00  0.00    +0.000 OA
ATOM     17  O   UNL     1      -0.120   8.556  21.559  0.00  0.00    +0.000 OA
ENDBRANCH  13  15
ENDBRANCH   8   9
BRANCH   1  18
ATOM     18  C   UNL     1       5.330   6.816  16.948  0.00  0.00    +0.000 C 
ATOM     19  O   UNL     1       5.126   7.409  15.901  0.00  0.00    +0.000 OA
BRANCH  18  20
ATOM     20  O   UNL     1       6.190   7.227  17.914  0.00  0.00    +0.000 OA
BRANCH  20  22
ATOM     21  C   UNL     1       7.776   5.832  19.182  0.00  0.00    +0.000 C 
ATOM     22  C   UNL     1       7.486   6.599  17.899  0.00  0.00    +0.000 C 
ENDBRANCH  20  22
ENDBRANCH  18  20
ENDBRANCH   1  18
BRANCH   7  23
ATOM     23  C   UNL     1       1.927   4.194  19.852  0.00  0.00    +0.000 C 
ATOM     24  O   UNL     1       0.720   4.215  19.644  0.00  0.00    +0.000 OA
BRANCH  23  25
ATOM     25  O   UNL     1       2.484   4.101  21.086  0.00  0.00    +0.000 OA
BRANCH  25  26
ATOM     26  C   UNL     1       2.626   2.751  21.576  0.00  0.00    +0.000 C 
ATOM     27  C   UNL     1       1.315   2.225  22.140  0.00  0.00    +0.000 C 
ENDBRANCH  25  26
ENDBRANCH  23  25
ENDBRANCH   7  23
TORSDOF 8
ENDMDL
MODEL 8
REMARK VINA RESULT:      -7.0      2.327      5.176
REMARK  Name = 
REMARK  12 active torsions:
REMARK  status: ('A' for Active; 'I' for Inactive)
REMARK    1  A    between atoms: C_1  and  C_2
REMARK    2  A    between atoms: C_2  and  O_3
REMARK    3  A    between atoms: O_3  and  C_4
REMARK    4  A    between atoms: C_4  and  C_6
REMARK    5  A    between atoms: C_7  and  C_8
REMARK    6  A    between atoms: C_10  and  C_11
REMARK    7  A    between atoms: C_12  and  C_13
REMARK    8  A    between atoms: C_13  and  O_15
REMARK    9  A    between atoms: O_15  and  C_16
REMARK   10  A    between atoms: C_16  and  C_17
REMARK   11  A    between atoms: C_18  and  C_19
REMARK   12  A    between atoms: C_23  and  N_24
REMARK                            x       y       z     vdW  Elec       q    Type
REMARK                         _______ _______ _______ _____ _____    ______ ____
ROOT
ATOM      1  C   UNL     1       2.268   7.507  19.630  0.00  0.00    +0.000 C 
ATOM      2  C   UNL     1       2.202   8.321  18.555  0.00  0.00    +0.000 C 
ATOM      3  C   UNL     1       1.230   9.439  18.294  0.00  0.00    +0.000 C 
ATOM      4  O   UNL     1       3.093   8.204  17.499  0.00  0.00    +0.000 OA
ATOM      5  C   UNL     1       3.986   7.149  17.427  0.00  0.00    +0.000 C 
ATOM      6  C   UNL     1       4.712   7.121  16.111  0.00  0.00    +0.000 C 
ATOM      7  C   UNL     1       4.149   6.278  18.447  0.00  0.00    +0.000 C 
ATOM      8  C   UNL     1       3.328   6.406  19.724  0.00  0.00    +0.000 C 
ENDROOT
BRANCH   8   9
ATOM      9  C   UNL     1       2.692   5.072  20.123  0.00  0.00    +0.000 A 
ATOM     10  C   UNL     1       2.666   4.641  21.458  0.00  0.00    +0.000 A 
ATOM     11  C   UNL     1       2.143   3.393  21.792  0.00  0.00    +0.000 A 
ATOM     12  C   UNL     1       1.640   2.552  20.797  0.00  0.00    +0.000 A 
ATOM     13  C   UNL     1       1.650   2.976  19.466  0.00  0.00    +0.000 A 
ATOM     14  C   UNL     1       2.164   4.231  19.123  0.00  0.00    +0.000 A 
BRANCH  13  15
ATOM     15  N   UNL     1       1.163   2.084  18.407  0.00  0.00    +0.000 N 
ATOM     16  O   UNL     1       1.961   1.751  17.523  0.00  0.00    +0.000 OA
ATOM     17  O   UNL     1      -0.024   1.723  18.455  0.00  0.00    +0.000 OA
ENDBRANCH  13  15
ENDBRANCH   8   9
BRANCH   1  18
ATOM     18  C   UNL     1       1.246   7.614  20.711  0.00  0.00    +0.000 C 
ATOM     19  O   UNL     1       0.212   6.967  20.746  0.00  0.00    +0.000 OA
BRANCH  18  20
ATOM     20  O   UNL     1       1.638   8.497  21.666  0.00  0.00    +0.000 OA
BRANCH  20  22
ATOM     21  C   UNL     1      -0.029   9.483  23.188  0.00  0.00    +0.000 C 
ATOM     22  C   UNL     1       0.748   9.607  21.885  0.00  0.00    +0.000 C 
ENDBRANCH  20  22
ENDBRANCH  18  20
ENDBRANCH   1  18
BRANCH   7  23
ATOM     23  C   UNL     1       5.099   5.145  18.273  0.00  0.00    +0.000 C 
ATOM     24  O   UNL     1       4.936   4.235  17.469  0.00  0.00    +0.000 OA
BRANCH  23  25
ATOM     25  O   UNL     1       6.150   5.226  19.127  0.00  0.00    +0.000 OA
BRANCH  25  26
ATOM     26  C   UNL     1       7.435   5.352  18.483  0.00  0.00    +0.000 C 
ATOM     27  C   UNL     1       7.758   6.805  18.168  0.00  0.00    +0.000 C 
ENDBRANCH  25  26
ENDBRANCH  23  25
ENDBRANCH   7  23
TORSDOF 8
ENDMDL
MODEL 9
REMARK VINA RESULT:      -6.9      2.442      5.487
REMARK  Name = 
REMARK  12 active torsions:
REMARK  status: ('A' for Active; 'I' for Inactive)
REMARK    1  A    between atoms: C_1  and  C_2
REMARK    2  A    between atoms: C_2  and  O_3
REMARK    3  A    between atoms: O_3  and  C_4
REMARK    4  A    between atoms: C_4  and  C_6
REMARK    5  A    between atoms: C_7  and  C_8
REMARK    6  A    between atoms: C_10  and  C_11
REMARK    7  A    between atoms: C_12  and  C_13
REMARK    8  A    between atoms: C_13  and  O_15
REMARK    9  A    between atoms: O_15  and  C_16
REMARK   10  A    between atoms: C_16  and  C_17
REMARK   11  A    between atoms: C_18  and  C_19
REMARK   12  A    between atoms: C_23  and  N_24
REMARK                            x       y       z     vdW  Elec       q    Type
REMARK                         _______ _______ _______ _____ _____    ______ ____
ROOT
ATOM      1  C   UNL     1       2.774   7.176  18.921  0.00  0.00    +0.000 C 
ATOM      2  C   UNL     1       2.864   8.109  17.949  0.00  0.00    +0.000 C 
ATOM      3  C   UNL     1       2.096   9.397  17.822  0.00  0.00    +0.000 C 
ATOM      4  O   UNL     1       3.743   7.969  16.886  0.00  0.00    +0.000 OA
ATOM      5  C   UNL     1       4.449   6.796  16.689  0.00  0.00    +0.000 C 
ATOM      6  C   UNL     1       5.186   6.801  15.379  0.00  0.00    +0.000 C 
ATOM      7  C   UNL     1       4.447   5.797  17.599  0.00  0.00    +0.000 C 
ATOM      8  C   UNL     1       3.635   5.910  18.883  0.00  0.00    +0.000 C 
ENDROOT
BRANCH   8   9
ATOM      9  C   UNL     1       2.778   4.663  19.122  0.00  0.00    +0.000 A 
ATOM     10  C   UNL     1       1.859   4.209  18.164  0.00  0.00    +0.000 A 
ATOM     11  C   UNL     1       1.041   3.112  18.430  0.00  0.00    +0.000 A 
ATOM     12  C   UNL     1       1.124   2.453  19.658  0.00  0.00    +0.000 A 
ATOM     13  C   UNL     1       2.044   2.889  20.614  0.00  0.00    +0.000 A 
ATOM     14  C   UNL     1       2.877   3.983  20.352  0.00  0.00    +0.000 A 
BRANCH  13  15
ATOM     15  N   UNL     1       2.112   2.231  21.924  0.00  0.00    +0.000 N 
ATOM     16  O   UNL     1       3.199   1.755  22.273  0.00  0.00    +0.000 OA
ATOM     17  O   UNL     1       1.074   2.184  22.602  0.00  0.00    +0.000 OA
ENDBRANCH  13  15
ENDBRANCH   8   9
BRANCH   1  18
ATOM     18  C   UNL     1       1.763   7.325  20.008  0.00  0.00    +0.000 C 
ATOM     19  O   UNL     1       0.873   6.521  20.235  0.00  0.00    +0.000 OA
BRANCH  18  20
ATOM     20  O   UNL     1       1.989   8.452  20.731  0.00  0.00    +0.000 OA
BRANCH  20  22
ATOM     21  C   UNL     1       0.505  10.254  21.518  0.00  0.00    +0.000 C 
ATOM     22  C   UNL     1       0.953   8.806  21.666  0.00  0.00    +0.000 C 
ENDBRANCH  20  22
ENDBRANCH  18  20
ENDBRANCH   1  18
BRANCH   7  23
ATOM     23  C   UNL     1       5.198   4.549  17.292  0.00  0.00    +0.000 C 
ATOM     24  O   UNL     1       4.957   3.825  16.333  0.00  0.00    +0.000 OA
BRANCH  23  25
ATOM     25  O   UNL     1       6.163   4.295  18.213  0.00  0.00    +0.000 OA
BRANCH  25  26
ATOM     26  C   UNL     1       7.409   4.982  17.976  0.00  0.00    +0.000 C 
ATOM     27  C   UNL     1       7.850   5.769  19.201  0.00  0.00    +0.000 C 
ENDBRANCH  25  26
ENDBRANCH  23  25
ENDBRANCH   7  23
TORSDOF 8
ENDMDL
