MODEL 1
REMARK VINA RESULT:      -7.5      0.000      0.000
REMARK  Name = 
REMARK  6 active torsions:
REMARK  status: ('A' for Active; 'I' for Inactive)
REMARK    1  A    between atoms: C_1  and  O_2
REMARK    2  A    between atoms: O_2  and  C_3
REMARK    3  A    between atoms: C_3  and  C_5
REMARK    4  A    between atoms: C_6  and  C_7
REMARK    5  A    between atoms: C_7  and  N_8
REMARK    6  A    between atoms: C_22  and  C_23
REMARK                            x       y       z     vdW  Elec       q    Type
REMARK                         _______ _______ _______ _____ _____    ______ ____
ROOT
ATOM      1  C   UNL     1       4.652   5.224  17.520  0.00  0.00    +0.000 A 
ATOM      2  C   UNL     1       3.814   4.275  16.909  0.00  0.00    +0.000 A 
ATOM      3  N   UNL     1       4.145   3.682  15.732  0.00  0.00    +0.000 NA
ATOM      4  C   UNL     1       5.252   4.057  15.073  0.00  0.00    +0.000 A 
ATOM      5  C   UNL     1       5.460   3.493  13.817  0.00  0.00    +0.000 A 
ATOM      6  C   UNL     1       6.488   3.898  12.962  0.00  0.00    +0.000 A 
ATOM      7  C   UNL     1       7.405   4.819  13.410  0.00  0.00    +0.000 A 
ATOM      8  C   UNL     1       7.285   5.293  14.716  0.00  0.00    +0.000 A 
ATOM      9  C   UNL     1       6.169   5.005  15.567  0.00  0.00    +0.000 A 
ATOM     10  C   UNL     1       5.872   5.600  16.869  0.00  0.00    +0.000 A 
ENDROOT
BRANCH  10  11
ATOM     11  C   UNL     1       6.835   6.573  17.490  0.00  0.00    +0.000 A 
ATOM     12  C   UNL     1       7.722   6.201  18.515  0.00  0.00    +0.000 A 
ATOM     13  C   UNL     1       8.523   7.127  19.181  0.00  0.00    +0.000 A 
ATOM     14  C   UNL     1       8.593   8.430  18.715  0.00  0.00    +0.000 A 
ATOM     15  C   UNL     1       7.811   8.813  17.633  0.00  0.00    +0.000 A 
ATOM     16  C   UNL     1       6.896   7.917  17.079  0.00  0.00    +0.000 A 
ENDBRANCH  10  11
BRANCH   1  17
ATOM     17  C   UNL     1       4.176   5.890  18.766  0.00  0.00    +0.000 C 
ATOM     18  O   UNL     1       4.387   5.467  19.905  0.00  0.00    +0.000 OA
BRANCH  17  20
ATOM     19  C   UNL     1       2.327   7.218  19.364  0.00  0.00    +0.000 C 
ATOM     20  O   UNL     1       3.423   6.978  18.479  0.00  0.00    +0.000 OA
ENDBRANCH  17  20
ENDBRANCH   1  17
BRANCH   2  21
ATOM     21  C   UNL     1       2.439   3.878  17.458  0.00  0.00    +0.000 C 
BRANCH  21  22
ATOM     22  N   UNL     1       2.345   2.486  17.942  0.00  0.00    +0.000 NA
ATOM     23  C   UNL     1       3.631   1.888  18.333  0.00  0.00    +0.000 C 
ATOM     24  C   UNL     1       4.173   2.439  19.655  0.00  0.00    +0.000 C 
ATOM     25  N   UNL     1       3.188   2.370  20.708  0.00  0.00    +0.000 N 
ATOM     26  C   UNL     1       1.852   2.543  20.462  0.00  0.00    +0.000 C 
ATOM     27  O   UNL     1       1.087   2.758  21.399  0.00  0.00    +0.000 OA
ATOM     28  C   UNL     1       1.340   2.338  19.026  0.00  0.00    +0.000 C 
ATOM     29  H   UNL     1       3.464   2.539  21.667  0.00  0.00    +0.000 HD
ENDBRANCH  21  22
ENDBRANCH   2  21
TORSDOF 5
ENDMDL
MODEL 2
REMARK VINA RESULT:      -7.3      7.891     10.847
REMARK  Name = 
REMARK  6 active torsions:
REMARK  status: ('A' for Active; 'I' for Inactive)
REMARK    1  A    between atoms: C_1  and  O_2
REMARK    2  A    between atoms: O_2  and  C_3
REMARK    3  A    between atoms: C_3  and  C_5
REMARK    4  A    between atoms: C_6  and  C_7
REMARK    5  A    between atoms: C_7  and  N_8
REMARK    6  A    between atoms: C_22  and  C_23
REMARK                            x       y       z     vdW  Elec       q    Type
REMARK                         _______ _______ _______ _____ _____    ______ ____
ROOT
ATOM      1  C   UNL     1      -1.056  11.652  20.553  0.00  0.00    +0.000 A 
ATOM      2  C   UNL     1      -2.178  12.498  20.594  0.00  0.00    +0.000 A 
ATOM      3  N   UNL     1      -3.164  12.423  19.661  0.00  0.00    +0.000 NA
ATOM      4  C   UNL     1      -3.045  11.589  18.617  0.00  0.00    +0.000 A 
ATOM      5  C   UNL     1      -4.036  11.656  17.641  0.00  0.00    +0.000 A 
ATOM      6  C   UNL     1      -3.965  10.954  16.435  0.00  0.00    +0.000 A 
ATOM      7  C   UNL     1      -2.928  10.073  16.236  0.00  0.00    +0.000 A 
ATOM      8  C   UNL     1      -2.001   9.897  17.262  0.00  0.00    +0.000 A 
ATOM      9  C   UNL     1      -1.967  10.699  18.449  0.00  0.00    +0.000 A 
ATOM     10  C   UNL     1      -0.932  10.708  19.481  0.00  0.00    +0.000 A 
ENDROOT
BRANCH  10  11
ATOM     11  C   UNL     1       0.218   9.743  19.404  0.00  0.00    +0.000 A 
ATOM     12  C   UNL     1       1.109   9.722  18.317  0.00  0.00    +0.000 A 
ATOM     13  C   UNL     1       2.096   8.747  18.181  0.00  0.00    +0.000 A 
ATOM     14  C   UNL     1       2.338   7.869  19.225  0.00  0.00    +0.000 A 
ATOM     15  C   UNL     1       1.548   7.926  20.365  0.00  0.00    +0.000 A 
ATOM     16  C   UNL     1       0.462   8.801  20.421  0.00  0.00    +0.000 A 
ENDBRANCH  10  11
BRANCH   1  17
ATOM     17  C   UNL     1       0.021  11.856  21.563  0.00  0.00    +0.000 C 
ATOM     18  O   UNL     1       1.192  12.129  21.287  0.00  0.00    +0.000 OA
BRANCH  17  20
ATOM     19  C   UNL     1      -0.785  10.273  23.107  0.00  0.00    +0.000 C 
ATOM     20  O   UNL     1      -0.438  11.628  22.817  0.00  0.00    +0.000 OA
ENDBRANCH  17  20
ENDBRANCH   1  17
BRANCH   2  21
ATOM     21  C   UNL     1      -2.362  13.614  21.627  0.00  0.00    +0.000 C 
BRANCH  21  22
ATOM     22  N   UNL     1      -3.759  13.839  22.053  0.00  0.00    +0.000 NA
ATOM     23  C   UNL     1      -4.362  12.712  22.781  0.00  0.00    +0.000 C 
ATOM     24  C   UNL     1      -3.824  12.559  24.207  0.00  0.00    +0.000 C 
ATOM     25  N   UNL     1      -3.900  13.799  24.943  0.00  0.00    +0.000 N 
ATOM     26  C   UNL     1      -3.723  15.013  24.338  0.00  0.00    +0.000 C 
ATOM     27  O   UNL     1      -3.515  16.009  25.027  0.00  0.00    +0.000 OA
ATOM     28  C   UNL     1      -3.914  15.105  22.814  0.00  0.00    +0.000 C 
ATOM     29  H   UNL     1      -3.740  13.800  25.943  0.00  0.00    +0.000 HD
ENDBRANCH  21  22
ENDBRANCH   2  21
TORSDOF 5
ENDMDL
MODEL 3
REMARK VINA RESULT:      -7.3      7.487     10.406
REMARK  Name = 
REMARK  6 active torsions:
REMARK  status: ('A' for Active; 'I' for Inactive)
REMARK    1  A    between atoms: C_1  and  O_2
REMARK    2  A    between atoms: O_2  and  C_3
REMARK    3  A    between atoms: C_3  and  C_5
REMARK    4  A    between atoms: C_6  and  C_7
REMARK    5  A    between atoms: C_7  and  N_8
REMARK    6  A    between atoms: C_22  and  C_23
REMARK                            x       y       z     vdW  Elec       q    Type
REMARK                         _______ _______ _______ _____ _____    ______ ____
ROOT
ATOM      1  C   UNL     1      -0.758  11.545  20.389  0.00  0.00    +0.000 A 
ATOM      2  C   UNL     1      -1.881  12.377  20.533  0.00  0.00    +0.000 A 
ATOM      3  N   UNL     1      -2.933  12.313  19.676  0.00  0.00    +0.000 NA
ATOM      4  C   UNL     1      -2.886  11.504  18.606  0.00  0.00    +0.000 A 
ATOM      5  C   UNL     1      -3.947  11.583  17.708  0.00  0.00    +0.000 A 
ATOM      6  C   UNL     1      -3.961  10.910  16.485  0.00  0.00    +0.000 A 
ATOM      7  C   UNL     1      -2.935  10.044  16.189  0.00  0.00    +0.000 A 
ATOM      8  C   UNL     1      -1.931   9.854  17.139  0.00  0.00    +0.000 A 
ATOM      9  C   UNL     1      -1.815  10.630  18.338  0.00  0.00    +0.000 A 
ATOM     10  C   UNL     1      -0.707  10.626  19.290  0.00  0.00    +0.000 A 
ENDROOT
BRANCH  10  11
ATOM     11  C   UNL     1       0.442   9.675  19.105  0.00  0.00    +0.000 A 
ATOM     12  C   UNL     1       1.276   9.715  17.974  0.00  0.00    +0.000 A 
ATOM     13  C   UNL     1       2.259   8.755  17.738  0.00  0.00    +0.000 A 
ATOM     14  C   UNL     1       2.560   7.828  18.722  0.00  0.00    +0.000 A 
ATOM     15  C   UNL     1       1.830   7.823  19.904  0.00  0.00    +0.000 A 
ATOM     16  C   UNL     1       0.745   8.686  20.059  0.00  0.00    +0.000 A 
ENDBRANCH  10  11
BRANCH   1  17
ATOM     17  C   UNL     1       0.389  11.736  21.321  0.00  0.00    +0.000 C 
ATOM     18  O   UNL     1       0.680  10.962  22.236  0.00  0.00    +0.000 OA
BRANCH  17  20
ATOM     19  C   UNL     1       2.034  12.860  20.066  0.00  0.00    +0.000 C 
ATOM     20  O   UNL     1       1.024  12.907  21.077  0.00  0.00    +0.000 OA
ENDBRANCH  17  20
ENDBRANCH   1  17
BRANCH   2  21
ATOM     21  C   UNL     1      -1.997  13.468  21.603  0.00  0.00    +0.000 C 
BRANCH  21  22
ATOM     22  N   UNL     1      -1.795  13.000  22.990  0.00  0.00    +0.000 NA
ATOM     23  C   UNL     1      -1.579  14.075  23.970  0.00  0.00    +0.000 C 
ATOM     24  C   UNL     1      -2.852  14.860  24.294  0.00  0.00    +0.000 C 
ATOM     25  N   UNL     1      -3.942  13.986  24.661  0.00  0.00    +0.000 N 
ATOM     26  C   UNL     1      -4.099  12.749  24.098  0.00  0.00    +0.000 C 
ATOM     27  O   UNL     1      -5.171  12.161  24.218  0.00  0.00    +0.000 OA
ATOM     28  C   UNL     1      -2.879  12.086  23.435  0.00  0.00    +0.000 C 
ATOM     29  H   UNL     1      -4.786  14.376  25.062  0.00  0.00    +0.000 HD
ENDBRANCH  21  22
ENDBRANCH   2  21
TORSDOF 5
ENDMDL
MODEL 4
REMARK VINA RESULT:      -7.2      8.066     11.008
REMARK  Name = 
REMARK  6 active torsions:
REMARK  status: ('A' for Active; 'I' for Inactive)
REMARK    1  A    between atoms: C_1  and  O_2
REMARK    2  A    between atoms: O_2  and  C_3
REMARK    3  A    between atoms: C_3  and  C_5
REMARK    4  A    between atoms: C_6  and  C_7
REMARK    5  A    between atoms: C_7  and  N_8
REMARK    6  A    between atoms: C_22  and  C_23
REMARK                            x       y       z     vdW  Elec       q    Type
REMARK                         _______ _______ _______ _____ _____    ______ ____
ROOT
ATOM      1  C   UNL     1      -1.279  11.806  20.512  0.00  0.00    +0.000 A 
ATOM      2  C   UNL     1      -2.411  12.638  20.488  0.00  0.00    +0.000 A 
ATOM      3  N   UNL     1      -3.374  12.508  19.538  0.00  0.00    +0.000 NA
ATOM      4  C   UNL     1      -3.222  11.628  18.536  0.00  0.00    +0.000 A 
ATOM      5  C   UNL     1      -4.190  11.637  17.536  0.00  0.00    +0.000 A 
ATOM      6  C   UNL     1      -4.083  10.881  16.366  0.00  0.00    +0.000 A 
ATOM      7  C   UNL     1      -3.032  10.005  16.232  0.00  0.00    +0.000 A 
ATOM      8  C   UNL     1      -2.127   9.888  17.286  0.00  0.00    +0.000 A 
ATOM      9  C   UNL     1      -2.129  10.745  18.435  0.00  0.00    +0.000 A 
ATOM     10  C   UNL     1      -1.120  10.814  19.489  0.00  0.00    +0.000 A 
ENDROOT
BRANCH  10  11
ATOM     11  C   UNL     1       0.043   9.862  19.483  0.00  0.00    +0.000 A 
ATOM     12  C   UNL     1       0.935   9.772  18.400  0.00  0.00    +0.000 A 
ATOM     13  C   UNL     1       1.934   8.802  18.336  0.00  0.00    +0.000 A 
ATOM     14  C   UNL     1       2.187   8.006  19.442  0.00  0.00    +0.000 A 
ATOM     15  C   UNL     1       1.396   8.138  20.575  0.00  0.00    +0.000 A 
ATOM     16  C   UNL     1       0.299   9.001  20.566  0.00  0.00    +0.000 A 
ENDBRANCH  10  11
BRANCH   1  17
ATOM     17  C   UNL     1      -0.228  12.069  21.536  0.00  0.00    +0.000 C 
ATOM     18  O   UNL     1      -0.297  11.708  22.713  0.00  0.00    +0.000 OA
BRANCH  17  20
ATOM     19  C   UNL     1       0.966  14.095  21.635  0.00  0.00    +0.000 C 
ATOM     20  O   UNL     1       0.775  12.818  21.021  0.00  0.00    +0.000 OA
ENDBRANCH  17  20
ENDBRANCH   1  17
BRANCH   2  21
ATOM     21  C   UNL     1      -2.632  13.799  21.464  0.00  0.00    +0.000 C 
BRANCH  21  22
ATOM     22  N   UNL     1      -4.006  13.907  21.995  0.00  0.00    +0.000 NA
ATOM     23  C   UNL     1      -4.460  12.732  22.754  0.00  0.00    +0.000 C 
ATOM     24  C   UNL     1      -3.806  12.617  24.134  0.00  0.00    +0.000 C 
ATOM     25  N   UNL     1      -3.926  13.843  24.887  0.00  0.00    +0.000 N 
ATOM     26  C   UNL     1      -3.894  15.070  24.283  0.00  0.00    +0.000 C 
ATOM     27  O   UNL     1      -3.715  16.076  24.965  0.00  0.00    +0.000 OA
ATOM     28  C   UNL     1      -4.206  15.154  22.779  0.00  0.00    +0.000 C 
ATOM     29  H   UNL     1      -3.691  13.853  25.872  0.00  0.00    +0.000 HD
ENDBRANCH  21  22
ENDBRANCH   2  21
TORSDOF 5
ENDMDL
MODEL 5
REMARK VINA RESULT:      -7.1      7.691     10.588
REMARK  Name = 
REMARK  6 active torsions:
REMARK  status: ('A' for Active; 'I' for Inactive)
REMARK    1  A    between atoms: C_1  and  O_2
REMARK    2  A    between atoms: O_2  and  C_3
REMARK    3  A    between atoms: C_3  and  C_5
REMARK    4  A    between atoms: C_6  and  C_7
REMARK    5  A    between atoms: C_7  and  N_8
REMARK    6  A    between atoms: C_22  and  C_23
REMARK                            x       y       z     vdW  Elec       q    Type
REMARK                         _______ _______ _______ _____ _____    ______ ____
ROOT
ATOM      1  C   UNL     1      -0.793  11.774  20.078  0.00  0.00    +0.000 A 
ATOM      2  C   UNL     1      -1.897  12.643  20.106  0.00  0.00    +0.000 A 
ATOM      3  N   UNL     1      -2.938  12.505  19.244  0.00  0.00    +0.000 NA
ATOM      4  C   UNL     1      -2.896  11.578  18.275  0.00  0.00    +0.000 A 
ATOM      5  C   UNL     1      -3.942  11.577  17.356  0.00  0.00    +0.000 A 
ATOM      6  C   UNL     1      -3.954  10.768  16.218  0.00  0.00    +0.000 A 
ATOM      7  C   UNL     1      -2.946   9.850  16.041  0.00  0.00    +0.000 A 
ATOM      8  C   UNL     1      -1.961   9.748  17.023  0.00  0.00    +0.000 A 
ATOM      9  C   UNL     1      -1.843  10.654  18.127  0.00  0.00    +0.000 A 
ATOM     10  C   UNL     1      -0.749  10.734  19.092  0.00  0.00    +0.000 A 
ENDROOT
BRANCH  10  11
ATOM     11  C   UNL     1       0.379   9.742  19.037  0.00  0.00    +0.000 A 
ATOM     12  C   UNL     1       1.230   9.633  17.923  0.00  0.00    +0.000 A 
ATOM     13  C   UNL     1       2.192   8.630  17.816  0.00  0.00    +0.000 A 
ATOM     14  C   UNL     1       2.456   7.815  18.904  0.00  0.00    +0.000 A 
ATOM     15  C   UNL     1       1.709   7.962  20.066  0.00  0.00    +0.000 A 
ATOM     16  C   UNL     1       0.643   8.862  20.103  0.00  0.00    +0.000 A 
ENDBRANCH  10  11
BRANCH   1  17
ATOM     17  C   UNL     1       0.346  12.045  21.001  0.00  0.00    +0.000 C 
ATOM     18  O   UNL     1       0.383  11.694  22.182  0.00  0.00    +0.000 OA
BRANCH  17  20
ATOM     19  C   UNL     1       1.652  14.002  21.062  0.00  0.00    +0.000 C 
ATOM     20  O   UNL     1       1.299  12.791  20.392  0.00  0.00    +0.000 OA
ENDBRANCH  17  20
ENDBRANCH   1  17
BRANCH   2  21
ATOM     21  C   UNL     1      -2.001  13.853  21.042  0.00  0.00    +0.000 C 
BRANCH  21  22
ATOM     22  N   UNL     1      -2.426  13.534  22.420  0.00  0.00    +0.000 NA
ATOM     23  C   UNL     1      -2.837  14.701  23.216  0.00  0.00    +0.000 C 
ATOM     24  C   UNL     1      -4.198  15.265  22.798  0.00  0.00    +0.000 C 
ATOM     25  N   UNL     1      -5.213  14.239  22.755  0.00  0.00    +0.000 N 
ATOM     26  C   UNL     1      -4.929  12.955  22.376  0.00  0.00    +0.000 C 
ATOM     27  O   UNL     1      -5.847  12.194  22.081  0.00  0.00    +0.000 OA
ATOM     28  C   UNL     1      -3.469  12.476  22.453  0.00  0.00    +0.000 C 
ATOM     29  H   UNL     1      -6.187  14.499  22.661  0.00  0.00    +0.000 HD
ENDBRANCH  21  22
ENDBRANCH   2  21
TORSDOF 5
ENDMDL
MODEL 6
REMARK VINA RESULT:      -6.9      7.823     11.145
REMARK  Name = 
REMARK  6 active torsions:
REMARK  status: ('A' for Active; 'I' for Inactive)
REMARK    1  A    between atoms: C_1  and  O_2
REMARK    2  A    between atoms: O_2  and  C_3
REMARK    3  A    between atoms: C_3  and  C_5
REMARK    4  A    between atoms: C_6  and  C_7
REMARK    5  A    between atoms: C_7  and  N_8
REMARK    6  A    between atoms: C_22  and  C_23
REMARK                            x       y       z     vdW  Elec       q    Type
REMARK                         _______ _______ _______ _____ _____    ______ ____
ROOT
ATOM      1  C   UNL     1       0.154  12.226  19.802  0.00  0.00    +0.000 A 
ATOM      2  C   UNL     1      -0.787  13.260  19.939  0.00  0.00    +0.000 A 
ATOM      3  N   UNL     1      -2.083  13.102  19.562  0.00  0.00    +0.000 NA
ATOM      4  C   UNL     1      -2.480  11.970  18.961  0.00  0.00    +0.000 A 
ATOM      5  C   UNL     1      -3.791  11.929  18.494  0.00  0.00    +0.000 A 
ATOM      6  C   UNL     1      -4.292  10.877  17.724  0.00  0.00    +0.000 A 
ATOM      7  C   UNL     1      -3.498   9.777  17.501  0.00  0.00    +0.000 A 
ATOM      8  C   UNL     1      -2.228   9.747  18.076  0.00  0.00    +0.000 A 
ATOM      9  C   UNL     1      -1.635  10.863  18.750  0.00  0.00    +0.000 A 
ATOM     10  C   UNL     1      -0.256  10.982  19.219  0.00  0.00    +0.000 A 
ENDROOT
BRANCH  10  11
ATOM     11  C   UNL     1       0.689   9.820  19.086  0.00  0.00    +0.000 A 
ATOM     12  C   UNL     1       0.915   8.913  20.136  0.00  0.00    +0.000 A 
ATOM     13  C   UNL     1       1.884   7.913  20.061  0.00  0.00    +0.000 A 
ATOM     14  C   UNL     1       2.531   7.676  18.859  0.00  0.00    +0.000 A 
ATOM     15  C   UNL     1       2.257   8.484  17.763  0.00  0.00    +0.000 A 
ATOM     16  C   UNL     1       1.404   9.580  17.898  0.00  0.00    +0.000 A 
ENDBRANCH  10  11
BRANCH   1  17
ATOM     17  C   UNL     1       1.573  12.508  20.160  0.00  0.00    +0.000 C 
ATOM     18  O   UNL     1       2.033  12.424  21.302  0.00  0.00    +0.000 OA
BRANCH  17  20
ATOM     19  C   UNL     1       3.129  14.058  19.313  0.00  0.00    +0.000 C 
ATOM     20  O   UNL     1       2.271  12.939  19.082  0.00  0.00    +0.000 OA
ENDBRANCH  17  20
ENDBRANCH   1  17
BRANCH   2  21
ATOM     21  C   UNL     1      -0.439  14.663  20.448  0.00  0.00    +0.000 C 
BRANCH  21  22
ATOM     22  N   UNL     1      -0.885  15.767  19.572  0.00  0.00    +0.000 NA
ATOM     23  C   UNL     1      -1.513  16.891  20.282  0.00  0.00    +0.000 C 
ATOM     24  C   UNL     1      -0.510  17.750  21.057  0.00  0.00    +0.000 C 
ATOM     25  N   UNL     1       0.593  18.168  20.225  0.00  0.00    +0.000 N 
ATOM     26  C   UNL     1       1.093  17.371  19.231  0.00  0.00    +0.000 C 
ATOM     27  O   UNL     1       2.189  17.630  18.741  0.00  0.00    +0.000 OA
ATOM     28  C   UNL     1       0.202  16.245  18.679  0.00  0.00    +0.000 C 
ATOM     29  H   UNL     1       1.235  18.876  20.559  0.00  0.00    +0.000 HD
ENDBRANCH  21  22
ENDBRANCH   2  21
TORSDOF 5
ENDMDL
MODEL 7
REMARK VINA RESULT:      -6.8      7.410     10.359
REMARK  Name = 
REMARK  6 active torsions:
REMARK  status: ('A' for Active; 'I' for Inactive)
REMARK    1  A    between atoms: C_1  and  O_2
REMARK    2  A    between atoms: O_2  and  C_3
REMARK    3  A    between atoms: C_3  and  C_5
REMARK    4  A    between atoms: C_6  and  C_7
REMARK    5  A    between atoms: C_7  and  N_8
REMARK    6  A    between atoms: C_22  and  C_23
REMARK                            x       y       z     vdW  Elec       q    Type
REMARK                         _______ _______ _______ _____ _____    ______ ____
ROOT
ATOM      1  C   UNL     1      -0.406  11.558  20.294  0.00  0.00    +0.000 A 
ATOM      2  C   UNL     1      -1.488  12.441  20.446  0.00  0.00    +0.000 A 
ATOM      3  N   UNL     1      -2.577  12.384  19.634  0.00  0.00    +0.000 NA
ATOM      4  C   UNL     1      -2.606  11.529  18.601  0.00  0.00    +0.000 A 
ATOM      5  C   UNL     1      -3.700  11.612  17.744  0.00  0.00    +0.000 A 
ATOM      6  C   UNL     1      -3.791  10.888  16.553  0.00  0.00    +0.000 A 
ATOM      7  C   UNL     1      -2.813   9.968  16.255  0.00  0.00    +0.000 A 
ATOM      8  C   UNL     1      -1.779   9.779  17.172  0.00  0.00    +0.000 A 
ATOM      9  C   UNL     1      -1.583  10.600  18.330  0.00  0.00    +0.000 A 
ATOM     10  C   UNL     1      -0.437  10.591  19.236  0.00  0.00    +0.000 A 
ENDROOT
BRANCH  10  11
ATOM     11  C   UNL     1       0.665   9.587  19.048  0.00  0.00    +0.000 A 
ATOM     12  C   UNL     1       1.551   9.639  17.958  0.00  0.00    +0.000 A 
ATOM     13  C   UNL     1       2.490   8.638  17.711  0.00  0.00    +0.000 A 
ATOM     14  C   UNL     1       2.693   7.643  18.654  0.00  0.00    +0.000 A 
ATOM     15  C   UNL     1       1.910   7.617  19.801  0.00  0.00    +0.000 A 
ATOM     16  C   UNL     1       0.868   8.532  19.957  0.00  0.00    +0.000 A 
ENDBRANCH  10  11
BRANCH   1  17
ATOM     17  C   UNL     1       0.786  11.742  21.170  0.00  0.00    +0.000 C 
ATOM     18  O   UNL     1       1.569  12.692  21.090  0.00  0.00    +0.000 OA
BRANCH  17  20
ATOM     19  C   UNL     1      -0.216  10.360  22.790  0.00  0.00    +0.000 C 
ATOM     20  O   UNL     1       0.936  10.694  22.014  0.00  0.00    +0.000 OA
ENDBRANCH  17  20
ENDBRANCH   1  17
BRANCH   2  21
ATOM     21  C   UNL     1      -1.517  13.582  21.469  0.00  0.00    +0.000 C 
BRANCH  21  22
ATOM     22  N   UNL     1      -2.002  13.197  22.811  0.00  0.00    +0.000 NA
ATOM     23  C   UNL     1      -2.246  14.329  23.718  0.00  0.00    +0.000 C 
ATOM     24  C   UNL     1      -3.502  15.128  23.360  0.00  0.00    +0.000 C 
ATOM     25  N   UNL     1      -4.657  14.273  23.217  0.00  0.00    +0.000 N 
ATOM     26  C   UNL     1      -4.562  13.004  22.714  0.00  0.00    +0.000 C 
ATOM     27  O   UNL     1      -5.578  12.420  22.347  0.00  0.00    +0.000 OA
ATOM     28  C   UNL     1      -3.190  12.308  22.741  0.00  0.00    +0.000 C 
ATOM     29  H   UNL     1      -5.581  14.683  23.151  0.00  0.00    +0.000 HD
ENDBRANCH  21  22
ENDBRANCH   2  21
TORSDOF 5
ENDMDL
MODEL 8
REMARK VINA RESULT:      -6.8      7.748     10.615
REMARK  Name = 
REMARK  6 active torsions:
REMARK  status: ('A' for Active; 'I' for Inactive)
REMARK    1  A    between atoms: C_1  and  O_2
REMARK    2  A    between atoms: O_2  and  C_3
REMARK    3  A    between atoms: C_3  and  C_5
REMARK    4  A    between atoms: C_6  and  C_7
REMARK    5  A    between atoms: C_7  and  N_8
REMARK    6  A    between atoms: C_22  and  C_23
REMARK                            x       y       z     vdW  Elec       q    Type
REMARK                         _______ _______ _______ _____ _____    ______ ____
ROOT
ATOM      1  C   UNL     1      -0.797  11.544  20.209  0.00  0.00    +0.000 A 
ATOM      2  C   UNL     1      -1.903  12.407  20.273  0.00  0.00    +0.000 A 
ATOM      3  N   UNL     1      -2.930  12.320  19.388  0.00  0.00    +0.000 NA
ATOM      4  C   UNL     1      -2.871  11.453  18.365  0.00  0.00    +0.000 A 
ATOM      5  C   UNL     1      -3.902  11.506  17.432  0.00  0.00    +0.000 A 
ATOM      6  C   UNL     1      -3.895  10.767  16.246  0.00  0.00    +0.000 A 
ATOM      7  C   UNL     1      -2.881   9.864  16.030  0.00  0.00    +0.000 A 
ATOM      8  C   UNL     1      -1.911   9.705  17.019  0.00  0.00    +0.000 A 
ATOM      9  C   UNL     1      -1.813  10.542  18.178  0.00  0.00    +0.000 A 
ATOM     10  C   UNL     1      -0.734  10.566  19.163  0.00  0.00    +0.000 A 
ENDROOT
BRANCH  10  11
ATOM     11  C   UNL     1       0.398   9.581  19.066  0.00  0.00    +0.000 A 
ATOM     12  C   UNL     1       0.697   8.676  20.099  0.00  0.00    +0.000 A 
ATOM     13  C   UNL     1       1.822   7.852  20.066  0.00  0.00    +0.000 A 
ATOM     14  C   UNL     1       2.583   7.781  18.911  0.00  0.00    +0.000 A 
ATOM     15  C   UNL     1       2.257   8.582  17.825  0.00  0.00    +0.000 A 
ATOM     16  C   UNL     1       1.226   9.516  17.930  0.00  0.00    +0.000 A 
ENDBRANCH  10  11
BRANCH   1  17
ATOM     17  C   UNL     1       0.327  11.761  21.165  0.00  0.00    +0.000 C 
ATOM     18  O   UNL     1       0.333  11.366  22.333  0.00  0.00    +0.000 OA
BRANCH  17  20
ATOM     19  C   UNL     1       1.517  13.791  21.200  0.00  0.00    +0.000 C 
ATOM     20  O   UNL     1       1.305  12.510  20.603  0.00  0.00    +0.000 OA
ENDBRANCH  17  20
ENDBRANCH   1  17
BRANCH   2  21
ATOM     21  C   UNL     1      -2.026  13.557  21.279  0.00  0.00    +0.000 C 
BRANCH  21  22
ATOM     22  N   UNL     1      -2.477  13.155  22.627  0.00  0.00    +0.000 NA
ATOM     23  C   UNL     1      -1.944  13.983  23.719  0.00  0.00    +0.000 C 
ATOM     24  C   UNL     1      -2.583  15.373  23.788  0.00  0.00    +0.000 C 
ATOM     25  N   UNL     1      -4.024  15.300  23.802  0.00  0.00    +0.000 N 
ATOM     26  C   UNL     1      -4.707  14.334  23.113  0.00  0.00    +0.000 C 
ATOM     27  O   UNL     1      -5.912  14.468  22.917  0.00  0.00    +0.000 OA
ATOM     28  C   UNL     1      -3.957  13.052  22.713  0.00  0.00    +0.000 C 
ATOM     29  H   UNL     1      -4.568  16.127  24.016  0.00  0.00    +0.000 HD
ENDBRANCH  21  22
ENDBRANCH   2  21
TORSDOF 5
ENDMDL
MODEL 9
REMARK VINA RESULT:      -6.8      7.794     10.736
REMARK  Name = 
REMARK  6 active torsions:
REMARK  status: ('A' for Active; 'I' for Inactive)
REMARK    1  A    between atoms: C_1  and  O_2
REMARK    2  A    between atoms: O_2  and  C_3
REMARK    3  A    between atoms: C_3  and  C_5
REMARK    4  A    between atoms: C_6  and  C_7
REMARK    5  A    between atoms: C_7  and  N_8
REMARK    6  A    between atoms: C_22  and  C_23
REMARK                            x       y       z     vdW  Elec       q    Type
REMARK                         _______ _______ _______ _____ _____    ______ ____
ROOT
ATOM      1  C   UNL     1      -0.636  11.766  19.975  0.00  0.00    +0.000 A 
ATOM      2  C   UNL     1      -1.731  12.644  20.016  0.00  0.00    +0.000 A 
ATOM      3  N   UNL     1      -2.794  12.501  19.182  0.00  0.00    +0.000 NA
ATOM      4  C   UNL     1      -2.783  11.558  18.227  0.00  0.00    +0.000 A 
ATOM      5  C   UNL     1      -3.851  11.550  17.335  0.00  0.00    +0.000 A 
ATOM      6  C   UNL     1      -3.898  10.723  16.210  0.00  0.00    +0.000 A 
ATOM      7  C   UNL     1      -2.902   9.794  16.024  0.00  0.00    +0.000 A 
ATOM      8  C   UNL     1      -1.894   9.700  16.983  0.00  0.00    +0.000 A 
ATOM      9  C   UNL     1      -1.742  10.623  18.069  0.00  0.00    +0.000 A 
ATOM     10  C   UNL     1      -0.624  10.710  19.006  0.00  0.00    +0.000 A 
ENDROOT
BRANCH  10  11
ATOM     11  C   UNL     1       0.495   9.708  18.939  0.00  0.00    +0.000 A 
ATOM     12  C   UNL     1       1.350   9.609  17.828  0.00  0.00    +0.000 A 
ATOM     13  C   UNL     1       2.304   8.599  17.708  0.00  0.00    +0.000 A 
ATOM     14  C   UNL     1       2.554   7.763  18.784  0.00  0.00    +0.000 A 
ATOM     15  C   UNL     1       1.802   7.898  19.944  0.00  0.00    +0.000 A 
ATOM     16  C   UNL     1       0.745   8.807  19.991  0.00  0.00    +0.000 A 
ENDBRANCH  10  11
BRANCH   1  17
ATOM     17  C   UNL     1       0.528  12.043  20.865  0.00  0.00    +0.000 C 
ATOM     18  O   UNL     1       0.624  11.646  22.029  0.00  0.00    +0.000 OA
BRANCH  17  20
ATOM     19  C   UNL     1       1.988  13.878  21.069  0.00  0.00    +0.000 C 
ATOM     20  O   UNL     1       1.429  12.847  20.252  0.00  0.00    +0.000 OA
ENDBRANCH  17  20
ENDBRANCH   1  17
BRANCH   2  21
ATOM     21  C   UNL     1      -1.803  13.870  20.934  0.00  0.00    +0.000 C 
BRANCH  21  22
ATOM     22  N   UNL     1      -2.673  13.706  22.116  0.00  0.00    +0.000 NA
ATOM     23  C   UNL     1      -1.951  13.479  23.377  0.00  0.00    +0.000 C 
ATOM     24  C   UNL     1      -1.258  14.737  23.910  0.00  0.00    +0.000 C 
ATOM     25  N   UNL     1      -2.166  15.856  23.986  0.00  0.00    +0.000 N 
ATOM     26  C   UNL     1      -3.171  16.037  23.075  0.00  0.00    +0.000 C 
ATOM     27  O   UNL     1      -3.734  17.127  23.003  0.00  0.00    +0.000 OA
ATOM     28  C   UNL     1      -3.643  14.824  22.255  0.00  0.00    +0.000 C 
ATOM     29  H   UNL     1      -1.888  16.697  24.478  0.00  0.00    +0.000 HD
ENDBRANCH  21  22
ENDBRANCH   2  21
TORSDOF 5
ENDMDL
