MODEL 1
REMARK VINA RESULT:      -9.0      0.000      0.000
REMARK  Name = 
REMARK  8 active torsions:
REMARK  status: ('A' for Active; 'I' for Inactive)
REMARK    1  A    between atoms: C_1  and  C_2
REMARK    2  A    between atoms: C_4  and  O_5
REMARK    3  A    between atoms: O_5  and  C_6
REMARK    4  A    between atoms: C_6  and  C_7
REMARK    5  A    between atoms: C_7  and  N_8
REMARK    6  A    between atoms: C_16  and  C_17
REMARK    7  A    between atoms: C_24  and  O_25
REMARK    8  A    between atoms: C_32  and  O_33
REMARK                            x       y       z     vdW  Elec       q    Type
REMARK                         _______ _______ _______ _____ _____    ______ ____
ROOT
ATOM      1  C   UNL     1       0.442   9.857  19.363  0.00  0.00    +0.000 C 
ATOM      2  C   UNL     1       0.663  10.816  20.281  0.00  0.00    +0.000 C 
ATOM      3  C   UNL     1      -0.081  12.117  19.949  0.00  0.00    +0.000 C 
ATOM      4  C   UNL     1      -0.599  12.950  21.134  0.00  0.00    +0.000 C 
ATOM      5  C   UNL     1       0.647  13.646  21.731  0.00  0.00    +0.000 C 
ATOM      6  C   UNL     1       1.521  13.798  20.519  0.00  0.00    +0.000 A 
ATOM      7  C   UNL     1       2.762  14.407  20.419  0.00  0.00    +0.000 A 
ATOM      8  C   UNL     1       3.445  14.298  19.204  0.00  0.00    +0.000 A 
ATOM      9  C   UNL     1       2.883  13.660  18.094  0.00  0.00    +0.000 A 
ATOM     10  C   UNL     1       1.646  13.032  18.208  0.00  0.00    +0.000 A 
ATOM     11  C   UNL     1       1.004  13.063  19.441  0.00  0.00    +0.000 A 
ATOM     12  C   UNL     1      -1.054  11.621  18.915  0.00  0.00    +0.000 A 
ATOM     13  C   UNL     1      -2.138  12.240  18.315  0.00  0.00    +0.000 A 
ATOM     14  C   UNL     1      -2.813  11.553  17.297  0.00  0.00    +0.000 A 
ATOM     15  C   UNL     1      -2.385  10.277  16.898  0.00  0.00    +0.000 A 
ATOM     16  C   UNL     1      -1.320   9.644  17.519  0.00  0.00    +0.000 A 
ATOM     17  C   UNL     1      -0.674  10.320  18.538  0.00  0.00    +0.000 A 
ENDROOT
BRANCH   1  24
ATOM     18  C   UNL     1       0.996   7.601  21.273  0.00  0.00    +0.000 C 
ATOM     19  C   UNL     1       1.733   7.764  19.974  0.00  0.00    +0.000 A 
ATOM     20  C   UNL     1       2.730   6.828  19.613  0.00  0.00    +0.000 A 
ATOM     21  C   UNL     1       3.417   6.932  18.400  0.00  0.00    +0.000 A 
ATOM     22  C   UNL     1       3.074   7.942  17.505  0.00  0.00    +0.000 A 
ATOM     23  C   UNL     1       2.095   8.875  17.855  0.00  0.00    +0.000 A 
ATOM     24  C   UNL     1       1.427   8.803  19.091  0.00  0.00    +0.000 A 
BRANCH  21  25
ATOM     25  O   UNL     1       4.380   5.981  18.158  0.00  0.00    +0.000 OA
BRANCH  25  26
ATOM     26  C   UNL     1       3.943   4.921  17.296  0.00  0.00    +0.000 C 
BRANCH  26  27
ATOM     27  C   UNL     1       4.311   3.553  17.901  0.00  0.00    +0.000 C 
BRANCH  27  28
ATOM     28  N   UNL     1       3.266   3.007  18.799  0.00  0.00    +0.000 NA
ATOM     29  C   UNL     1       3.492   3.386  20.203  0.00  0.00    +0.000 C 
ATOM     30  C   UNL     1       2.437   2.778  21.126  0.00  0.00    +0.000 C 
ATOM     31  C   UNL     1       1.033   3.175  20.697  0.00  0.00    +0.000 C 
ATOM     32  C   UNL     1       0.822   2.845  19.225  0.00  0.00    +0.000 C 
ATOM     33  C   UNL     1       1.930   3.439  18.351  0.00  0.00    +0.000 C 
ENDBRANCH  27  28
ENDBRANCH  26  27
ENDBRANCH  25  26
ENDBRANCH  21  25
ENDBRANCH   1  24
BRANCH   8  34
ATOM     34  O   UNL     1       4.719  14.771  19.067  0.00  0.00    +0.000 OA
ATOM     35  H   UNL     1       4.802  15.165  18.184  0.00  0.00    +0.000 HD
ENDBRANCH   8  34
BRANCH  15  36
ATOM     36  O   UNL     1      -3.004   9.608  15.883  0.00  0.00    +0.000 OA
ATOM     37  H   UNL     1      -2.747  10.013  15.040  0.00  0.00    +0.000 HD
ENDBRANCH  15  36
TORSDOF 7
ENDMDL
MODEL 2
REMARK VINA RESULT:      -8.9      3.175      8.373
REMARK  Name = 
REMARK  8 active torsions:
REMARK  status: ('A' for Active; 'I' for Inactive)
REMARK    1  A    between atoms: C_1  and  C_2
REMARK    2  A    between atoms: C_4  and  O_5
REMARK    3  A    between atoms: O_5  and  C_6
REMARK    4  A    between atoms: C_6  and  C_7
REMARK    5  A    between atoms: C_7  and  N_8
REMARK    6  A    between atoms: C_16  and  C_17
REMARK    7  A    between atoms: C_24  and  O_25
REMARK    8  A    between atoms: C_32  and  O_33
REMARK                            x       y       z     vdW  Elec       q    Type
REMARK                         _______ _______ _______ _____ _____    ______ ____
ROOT
ATOM      1  C   UNL     1       2.520   6.149  17.769  0.00  0.00    +0.000 C 
ATOM      2  C   UNL     1       3.584   6.174  16.945  0.00  0.00    +0.000 C 
ATOM      3  C   UNL     1       4.286   4.811  16.869  0.00  0.00    +0.000 C 
ATOM      4  C   UNL     1       4.916   4.421  15.521  0.00  0.00    +0.000 C 
ATOM      5  C   UNL     1       6.213   5.257  15.410  0.00  0.00    +0.000 C 
ATOM      6  C   UNL     1       6.600   5.413  16.853  0.00  0.00    +0.000 A 
ATOM      7  C   UNL     1       7.719   6.032  17.386  0.00  0.00    +0.000 A 
ATOM      8  C   UNL     1       7.788   6.169  18.775  0.00  0.00    +0.000 A 
ATOM      9  C   UNL     1       6.804   5.647  19.620  0.00  0.00    +0.000 A 
ATOM     10  C   UNL     1       5.672   5.046  19.077  0.00  0.00    +0.000 A 
ATOM     11  C   UNL     1       5.559   4.986  17.693  0.00  0.00    +0.000 A 
ATOM     12  C   UNL     1       3.232   3.923  17.474  0.00  0.00    +0.000 A 
ATOM     13  C   UNL     1       3.143   2.544  17.559  0.00  0.00    +0.000 A 
ATOM     14  C   UNL     1       2.075   1.993  18.279  0.00  0.00    +0.000 A 
ATOM     15  C   UNL     1       1.133   2.827  18.901  0.00  0.00    +0.000 A 
ATOM     16  C   UNL     1       1.204   4.207  18.790  0.00  0.00    +0.000 A 
ATOM     17  C   UNL     1       2.249   4.741  18.060  0.00  0.00    +0.000 A 
ENDROOT
BRANCH   1  24
ATOM     18  C   UNL     1       2.253   6.286  20.762  0.00  0.00    +0.000 C 
ATOM     19  C   UNL     1       1.892   7.433  19.862  0.00  0.00    +0.000 A 
ATOM     20  C   UNL     1       1.408   8.637  20.424  0.00  0.00    +0.000 A 
ATOM     21  C   UNL     1       1.088   9.735  19.621  0.00  0.00    +0.000 A 
ATOM     22  C   UNL     1       1.304   9.662  18.247  0.00  0.00    +0.000 A 
ATOM     23  C   UNL     1       1.775   8.475  17.682  0.00  0.00    +0.000 A 
ATOM     24  C   UNL     1       2.061   7.351  18.477  0.00  0.00    +0.000 A 
BRANCH  21  25
ATOM     25  O   UNL     1       0.606  10.848  20.268  0.00  0.00    +0.000 OA
BRANCH  25  26
ATOM     26  C   UNL     1      -0.797  10.782  20.566  0.00  0.00    +0.000 C 
BRANCH  26  27
ATOM     27  C   UNL     1      -1.577  11.777  19.686  0.00  0.00    +0.000 C 
BRANCH  27  28
ATOM     28  N   UNL     1      -2.489  11.118  18.721  0.00  0.00    +0.000 NA
ATOM     29  C   UNL     1      -3.743  11.867  18.548  0.00  0.00    +0.000 C 
ATOM     30  C   UNL     1      -4.697  11.154  17.589  0.00  0.00    +0.000 C 
ATOM     31  C   UNL     1      -4.041  10.913  16.237  0.00  0.00    +0.000 C 
ATOM     32  C   UNL     1      -2.709  10.197  16.422  0.00  0.00    +0.000 C 
ATOM     33  C   UNL     1      -1.812  10.928  17.426  0.00  0.00    +0.000 C 
ENDBRANCH  27  28
ENDBRANCH  26  27
ENDBRANCH  25  26
ENDBRANCH  21  25
ENDBRANCH   1  24
BRANCH   8  34
ATOM     34  O   UNL     1       8.802   6.870  19.365  0.00  0.00    +0.000 OA
ATOM     35  H   UNL     1       8.414   7.620  19.842  0.00  0.00    +0.000 HD
ENDBRANCH   8  34
BRANCH  15  36
ATOM     36  O   UNL     1       0.108   2.311  19.639  0.00  0.00    +0.000 OA
ATOM     37  H   UNL     1      -0.250   1.537  19.176  0.00  0.00    +0.000 HD
ENDBRANCH  15  36
TORSDOF 7
ENDMDL
MODEL 3
REMARK VINA RESULT:      -8.4      3.169      8.589
REMARK  Name = 
REMARK  8 active torsions:
REMARK  status: ('A' for Active; 'I' for Inactive)
REMARK    1  A    between atoms: C_1  and  C_2
REMARK    2  A    between atoms: C_4  and  O_5
REMARK    3  A    between atoms: O_5  and  C_6
REMARK    4  A    between atoms: C_6  and  C_7
REMARK    5  A    between atoms: C_7  and  N_8
REMARK    6  A    between atoms: C_16  and  C_17
REMARK    7  A    between atoms: C_24  and  O_25
REMARK    8  A    between atoms: C_32  and  O_33
REMARK                            x       y       z     vdW  Elec       q    Type
REMARK                         _______ _______ _______ _____ _____    ______ ____
ROOT
ATOM      1  C   UNL     1       2.501   6.107  17.839  0.00  0.00    +0.000 C 
ATOM      2  C   UNL     1       3.553   6.175  17.002  0.00  0.00    +0.000 C 
ATOM      3  C   UNL     1       4.266   4.823  16.859  0.00  0.00    +0.000 C 
ATOM      4  C   UNL     1       4.879   4.496  15.486  0.00  0.00    +0.000 C 
ATOM      5  C   UNL     1       6.167   5.349  15.391  0.00  0.00    +0.000 C 
ATOM      6  C   UNL     1       6.574   5.448  16.834  0.00  0.00    +0.000 A 
ATOM      7  C   UNL     1       7.695   6.056  17.375  0.00  0.00    +0.000 A 
ATOM      8  C   UNL     1       7.784   6.137  18.767  0.00  0.00    +0.000 A 
ATOM      9  C   UNL     1       6.817   5.571  19.604  0.00  0.00    +0.000 A 
ATOM     10  C   UNL     1       5.682   4.982  19.054  0.00  0.00    +0.000 A 
ATOM     11  C   UNL     1       5.550   4.977  17.670  0.00  0.00    +0.000 A 
ATOM     12  C   UNL     1       3.230   3.902  17.442  0.00  0.00    +0.000 A 
ATOM     13  C   UNL     1       3.154   2.519  17.471  0.00  0.00    +0.000 A 
ATOM     14  C   UNL     1       2.102   1.929  18.183  0.00  0.00    +0.000 A 
ATOM     15  C   UNL     1       1.163   2.727  18.853  0.00  0.00    +0.000 A 
ATOM     16  C   UNL     1       1.219   4.111  18.798  0.00  0.00    +0.000 A 
ATOM     17  C   UNL     1       2.247   4.685  18.075  0.00  0.00    +0.000 A 
ENDROOT
BRANCH   1  24
ATOM     18  C   UNL     1       2.306   6.126  20.840  0.00  0.00    +0.000 C 
ATOM     19  C   UNL     1       1.906   7.300  19.994  0.00  0.00    +0.000 A 
ATOM     20  C   UNL     1       1.418   8.475  20.612  0.00  0.00    +0.000 A 
ATOM     21  C   UNL     1       1.062   9.597  19.859  0.00  0.00    +0.000 A 
ATOM     22  C   UNL     1       1.245   9.579  18.479  0.00  0.00    +0.000 A 
ATOM     23  C   UNL     1       1.720   8.422  17.858  0.00  0.00    +0.000 A 
ATOM     24  C   UNL     1       2.042   7.273  18.603  0.00  0.00    +0.000 A 
BRANCH  21  25
ATOM     25  O   UNL     1       0.579  10.678  20.559  0.00  0.00    +0.000 OA
BRANCH  25  26
ATOM     26  C   UNL     1       0.438  11.865  19.765  0.00  0.00    +0.000 C 
BRANCH  26  27
ATOM     27  C   UNL     1      -0.277  12.965  20.571  0.00  0.00    +0.000 C 
BRANCH  27  28
ATOM     28  N   UNL     1      -1.515  12.495  21.238  0.00  0.00    +0.000 NA
ATOM     29  C   UNL     1      -1.413  12.569  22.704  0.00  0.00    +0.000 C 
ATOM     30  C   UNL     1      -2.675  12.036  23.382  0.00  0.00    +0.000 C 
ATOM     31  C   UNL     1      -3.914  12.780  22.906  0.00  0.00    +0.000 C 
ATOM     32  C   UNL     1      -3.983  12.761  21.384  0.00  0.00    +0.000 C 
ATOM     33  C   UNL     1      -2.678  13.261  20.756  0.00  0.00    +0.000 C 
ENDBRANCH  27  28
ENDBRANCH  26  27
ENDBRANCH  25  26
ENDBRANCH  21  25
ENDBRANCH   1  24
BRANCH   8  34
ATOM     34  O   UNL     1       8.799   6.822  19.371  0.00  0.00    +0.000 OA
ATOM     35  H   UNL     1       9.361   6.183  19.837  0.00  0.00    +0.000 HD
ENDBRANCH   8  34
BRANCH  15  36
ATOM     36  O   UNL     1       0.153   2.170  19.584  0.00  0.00    +0.000 OA
ATOM     37  H   UNL     1      -0.621   2.752  19.537  0.00  0.00    +0.000 HD
ENDBRANCH  15  36
TORSDOF 7
ENDMDL
MODEL 4
REMARK VINA RESULT:      -8.4      3.485      8.645
REMARK  Name = 
REMARK  8 active torsions:
REMARK  status: ('A' for Active; 'I' for Inactive)
REMARK    1  A    between atoms: C_1  and  C_2
REMARK    2  A    between atoms: C_4  and  O_5
REMARK    3  A    between atoms: O_5  and  C_6
REMARK    4  A    between atoms: C_6  and  C_7
REMARK    5  A    between atoms: C_7  and  N_8
REMARK    6  A    between atoms: C_16  and  C_17
REMARK    7  A    between atoms: C_24  and  O_25
REMARK    8  A    between atoms: C_32  and  O_33
REMARK                            x       y       z     vdW  Elec       q    Type
REMARK                         _______ _______ _______ _____ _____    ______ ____
ROOT
ATOM      1  C   UNL     1       2.496   6.193  17.829  0.00  0.00    +0.000 C 
ATOM      2  C   UNL     1       3.549   6.241  16.992  0.00  0.00    +0.000 C 
ATOM      3  C   UNL     1       4.251   4.881  16.870  0.00  0.00    +0.000 C 
ATOM      4  C   UNL     1       4.863   4.529  15.503  0.00  0.00    +0.000 C 
ATOM      5  C   UNL     1       6.158   5.369  15.398  0.00  0.00    +0.000 C 
ATOM      6  C   UNL     1       6.565   5.487  16.839  0.00  0.00    +0.000 A 
ATOM      7  C   UNL     1       7.690   6.093  17.374  0.00  0.00    +0.000 A 
ATOM      8  C   UNL     1       7.777   6.193  18.764  0.00  0.00    +0.000 A 
ATOM      9  C   UNL     1       6.805   5.647  19.608  0.00  0.00    +0.000 A 
ATOM     10  C   UNL     1       5.666   5.059  19.065  0.00  0.00    +0.000 A 
ATOM     11  C   UNL     1       5.535   5.036  17.681  0.00  0.00    +0.000 A 
ATOM     12  C   UNL     1       3.207   3.977  17.465  0.00  0.00    +0.000 A 
ATOM     13  C   UNL     1       3.120   2.596  17.513  0.00  0.00    +0.000 A 
ATOM     14  C   UNL     1       2.062   2.024  18.233  0.00  0.00    +0.000 A 
ATOM     15  C   UNL     1       1.128   2.840  18.889  0.00  0.00    +0.000 A 
ATOM     16  C   UNL     1       1.196   4.222  18.815  0.00  0.00    +0.000 A 
ATOM     17  C   UNL     1       2.230   4.778  18.085  0.00  0.00    +0.000 A 
ENDROOT
BRANCH   1  24
ATOM     18  C   UNL     1       2.316   6.264  20.831  0.00  0.00    +0.000 C 
ATOM     19  C   UNL     1       1.916   7.426  19.966  0.00  0.00    +0.000 A 
ATOM     20  C   UNL     1       1.436   8.613  20.567  0.00  0.00    +0.000 A 
ATOM     21  C   UNL     1       1.082   9.724  19.797  0.00  0.00    +0.000 A 
ATOM     22  C   UNL     1       1.258   9.681  18.416  0.00  0.00    +0.000 A 
ATOM     23  C   UNL     1       1.725   8.512  17.813  0.00  0.00    +0.000 A 
ATOM     24  C   UNL     1       2.046   7.375  18.575  0.00  0.00    +0.000 A 
BRANCH  21  25
ATOM     25  O   UNL     1       0.607  10.818  20.481  0.00  0.00    +0.000 OA
BRANCH  25  26
ATOM     26  C   UNL     1      -0.489  10.520  21.359  0.00  0.00    +0.000 C 
BRANCH  26  27
ATOM     27  C   UNL     1      -0.614  11.606  22.445  0.00  0.00    +0.000 C 
BRANCH  27  28
ATOM     28  N   UNL     1      -1.828  12.444  22.300  0.00  0.00    +0.000 NA
ATOM     29  C   UNL     1      -2.382  12.380  20.938  0.00  0.00    +0.000 C 
ATOM     30  C   UNL     1      -3.605  13.285  20.786  0.00  0.00    +0.000 C 
ATOM     31  C   UNL     1      -4.680  12.937  21.805  0.00  0.00    +0.000 C 
ATOM     32  C   UNL     1      -4.089  12.936  23.210  0.00  0.00    +0.000 C 
ATOM     33  C   UNL     1      -2.842  12.051  23.294  0.00  0.00    +0.000 C 
ENDBRANCH  27  28
ENDBRANCH  26  27
ENDBRANCH  25  26
ENDBRANCH  21  25
ENDBRANCH   1  24
BRANCH   8  34
ATOM     34  O   UNL     1       8.798   6.878  19.360  0.00  0.00    +0.000 OA
ATOM     35  H   UNL     1       9.230   7.425  18.685  0.00  0.00    +0.000 HD
ENDBRANCH   8  34
BRANCH  15  36
ATOM     36  O   UNL     1       0.113   2.302  19.627  0.00  0.00    +0.000 OA
ATOM     37  H   UNL     1      -0.612   2.062  19.030  0.00  0.00    +0.000 HD
ENDBRANCH  15  36
TORSDOF 7
ENDMDL
MODEL 5
REMARK VINA RESULT:      -8.4      3.096      8.906
REMARK  Name = 
REMARK  8 active torsions:
REMARK  status: ('A' for Active; 'I' for Inactive)
REMARK    1  A    between atoms: C_1  and  C_2
REMARK    2  A    between atoms: C_4  and  O_5
REMARK    3  A    between atoms: O_5  and  C_6
REMARK    4  A    between atoms: C_6  and  C_7
REMARK    5  A    between atoms: C_7  and  N_8
REMARK    6  A    between atoms: C_16  and  C_17
REMARK    7  A    between atoms: C_24  and  O_25
REMARK    8  A    between atoms: C_32  and  O_33
REMARK                            x       y       z     vdW  Elec       q    Type
REMARK                         _______ _______ _______ _____ _____    ______ ____
ROOT
ATOM      1  C   UNL     1       2.493   6.157  17.815  0.00  0.00    +0.000 C 
ATOM      2  C   UNL     1       3.548   6.189  16.980  0.00  0.00    +0.000 C 
ATOM      3  C   UNL     1       4.249   4.827  16.881  0.00  0.00    +0.000 C 
ATOM      4  C   UNL     1       4.863   4.452  15.521  0.00  0.00    +0.000 C 
ATOM      5  C   UNL     1       6.159   5.288  15.405  0.00  0.00    +0.000 C 
ATOM      6  C   UNL     1       6.563   5.428  16.845  0.00  0.00    +0.000 A 
ATOM      7  C   UNL     1       7.688   6.040  17.373  0.00  0.00    +0.000 A 
ATOM      8  C   UNL     1       7.772   6.162  18.762  0.00  0.00    +0.000 A 
ATOM      9  C   UNL     1       6.797   5.631  19.612  0.00  0.00    +0.000 A 
ATOM     10  C   UNL     1       5.659   5.037  19.075  0.00  0.00    +0.000 A 
ATOM     11  C   UNL     1       5.531   4.993  17.692  0.00  0.00    +0.000 A 
ATOM     12  C   UNL     1       3.201   3.934  17.487  0.00  0.00    +0.000 A 
ATOM     13  C   UNL     1       3.111   2.554  17.557  0.00  0.00    +0.000 A 
ATOM     14  C   UNL     1       2.051   1.996  18.283  0.00  0.00    +0.000 A 
ATOM     15  C   UNL     1       1.117   2.823  18.925  0.00  0.00    +0.000 A 
ATOM     16  C   UNL     1       1.187   4.204  18.829  0.00  0.00    +0.000 A 
ATOM     17  C   UNL     1       2.224   4.746  18.093  0.00  0.00    +0.000 A 
ENDROOT
BRANCH   1  24
ATOM     18  C   UNL     1       2.285   6.269  20.813  0.00  0.00    +0.000 C 
ATOM     19  C   UNL     1       1.901   7.421  19.930  0.00  0.00    +0.000 A 
ATOM     20  C   UNL     1       1.423   8.619  20.511  0.00  0.00    +0.000 A 
ATOM     21  C   UNL     1       1.083   9.722  19.722  0.00  0.00    +0.000 A 
ATOM     22  C   UNL     1       1.272   9.660  18.344  0.00  0.00    +0.000 A 
ATOM     23  C   UNL     1       1.737   8.480  17.760  0.00  0.00    +0.000 A 
ATOM     24  C   UNL     1       2.044   7.351  18.541  0.00  0.00    +0.000 A 
BRANCH  21  25
ATOM     25  O   UNL     1       0.608  10.828  20.388  0.00  0.00    +0.000 OA
BRANCH  25  26
ATOM     26  C   UNL     1       0.554  12.011  19.577  0.00  0.00    +0.000 C 
BRANCH  26  27
ATOM     27  C   UNL     1       1.726  12.949  19.921  0.00  0.00    +0.000 C 
BRANCH  27  28
ATOM     28  N   UNL     1       1.881  14.071  18.965  0.00  0.00    +0.000 NA
ATOM     29  C   UNL     1       1.336  15.329  19.499  0.00  0.00    +0.000 C 
ATOM     30  C   UNL     1       1.456  16.468  18.486  0.00  0.00    +0.000 C 
ATOM     31  C   UNL     1       2.900  16.668  18.049  0.00  0.00    +0.000 C 
ATOM     32  C   UNL     1       3.486  15.349  17.560  0.00  0.00    +0.000 C 
ATOM     33  C   UNL     1       3.297  14.233  18.592  0.00  0.00    +0.000 C 
ENDBRANCH  27  28
ENDBRANCH  26  27
ENDBRANCH  25  26
ENDBRANCH  21  25
ENDBRANCH   1  24
BRANCH   8  34
ATOM     34  O   UNL     1       8.793   6.855  19.349  0.00  0.00    +0.000 OA
ATOM     35  H   UNL     1       9.326   6.230  19.864  0.00  0.00    +0.000 HD
ENDBRANCH   8  34
BRANCH  15  36
ATOM     36  O   UNL     1       0.099   2.299  19.668  0.00  0.00    +0.000 OA
ATOM     37  H   UNL     1      -0.553   1.905  19.069  0.00  0.00    +0.000 HD
ENDBRANCH  15  36
TORSDOF 7
ENDMDL
MODEL 6
REMARK VINA RESULT:      -8.3      3.479      8.751
REMARK  Name = 
REMARK  8 active torsions:
REMARK  status: ('A' for Active; 'I' for Inactive)
REMARK    1  A    between atoms: C_1  and  C_2
REMARK    2  A    between atoms: C_4  and  O_5
REMARK    3  A    between atoms: O_5  and  C_6
REMARK    4  A    between atoms: C_6  and  C_7
REMARK    5  A    between atoms: C_7  and  N_8
REMARK    6  A    between atoms: C_16  and  C_17
REMARK    7  A    between atoms: C_24  and  O_25
REMARK    8  A    between atoms: C_32  and  O_33
REMARK                            x       y       z     vdW  Elec       q    Type
REMARK                         _______ _______ _______ _____ _____    ______ ____
ROOT
ATOM      1  C   UNL     1       2.477   6.198  17.847  0.00  0.00    +0.000 C 
ATOM      2  C   UNL     1       3.526   6.234  17.004  0.00  0.00    +0.000 C 
ATOM      3  C   UNL     1       4.219   4.869  16.887  0.00  0.00    +0.000 C 
ATOM      4  C   UNL     1       4.820   4.504  15.519  0.00  0.00    +0.000 C 
ATOM      5  C   UNL     1       6.120   5.335  15.400  0.00  0.00    +0.000 C 
ATOM      6  C   UNL     1       6.535   5.459  16.838  0.00  0.00    +0.000 A 
ATOM      7  C   UNL     1       7.668   6.062  17.363  0.00  0.00    +0.000 A 
ATOM      8  C   UNL     1       7.764   6.170  18.752  0.00  0.00    +0.000 A 
ATOM      9  C   UNL     1       6.792   5.636  19.605  0.00  0.00    +0.000 A 
ATOM     10  C   UNL     1       5.647   5.052  19.072  0.00  0.00    +0.000 A 
ATOM     11  C   UNL     1       5.508   5.021  17.689  0.00  0.00    +0.000 A 
ATOM     12  C   UNL     1       3.172   3.975  17.493  0.00  0.00    +0.000 A 
ATOM     13  C   UNL     1       3.076   2.595  17.551  0.00  0.00    +0.000 A 
ATOM     14  C   UNL     1       2.019   2.034  18.280  0.00  0.00    +0.000 A 
ATOM     15  C   UNL     1       1.094   2.860  18.937  0.00  0.00    +0.000 A 
ATOM     16  C   UNL     1       1.170   4.242  18.853  0.00  0.00    +0.000 A 
ATOM     17  C   UNL     1       2.204   4.786  18.114  0.00  0.00    +0.000 A 
ENDROOT
BRANCH   1  24
ATOM     18  C   UNL     1       2.263   6.273  20.846  0.00  0.00    +0.000 C 
ATOM     19  C   UNL     1       1.894   7.440  19.978  0.00  0.00    +0.000 A 
ATOM     20  C   UNL     1       1.428   8.636  20.573  0.00  0.00    +0.000 A 
ATOM     21  C   UNL     1       1.101   9.753  19.799  0.00  0.00    +0.000 A 
ATOM     22  C   UNL     1       1.292   9.707  18.420  0.00  0.00    +0.000 A 
ATOM     23  C   UNL     1       1.746   8.530  17.822  0.00  0.00    +0.000 A 
ATOM     24  C   UNL     1       2.039   7.387  18.588  0.00  0.00    +0.000 A 
BRANCH  21  25
ATOM     25  O   UNL     1       0.637  10.855  20.478  0.00  0.00    +0.000 OA
BRANCH  25  26
ATOM     26  C   UNL     1      -0.739  10.753  20.874  0.00  0.00    +0.000 C 
BRANCH  26  27
ATOM     27  C   UNL     1      -0.896  11.124  22.361  0.00  0.00    +0.000 C 
BRANCH  27  28
ATOM     28  N   UNL     1      -1.805  12.273  22.587  0.00  0.00    +0.000 NA
ATOM     29  C   UNL     1      -2.875  11.948  23.543  0.00  0.00    +0.000 C 
ATOM     30  C   UNL     1      -3.836  13.122  23.732  0.00  0.00    +0.000 C 
ATOM     31  C   UNL     1      -3.096  14.374  24.181  0.00  0.00    +0.000 C 
ATOM     32  C   UNL     1      -1.945  14.671  23.227  0.00  0.00    +0.000 C 
ATOM     33  C   UNL     1      -1.041  13.449  23.039  0.00  0.00    +0.000 C 
ENDBRANCH  27  28
ENDBRANCH  26  27
ENDBRANCH  25  26
ENDBRANCH  21  25
ENDBRANCH   1  24
BRANCH   8  34
ATOM     34  O   UNL     1       8.792   6.853  19.337  0.00  0.00    +0.000 OA
ATOM     35  H   UNL     1       9.003   7.619  18.780  0.00  0.00    +0.000 HD
ENDBRANCH   8  34
BRANCH  15  36
ATOM     36  O   UNL     1       0.080   2.334  19.684  0.00  0.00    +0.000 OA
ATOM     37  H   UNL     1      -0.693   2.914  19.611  0.00  0.00    +0.000 HD
ENDBRANCH  15  36
TORSDOF 7
ENDMDL
MODEL 7
REMARK VINA RESULT:      -8.3      2.963      8.672
REMARK  Name = 
REMARK  8 active torsions:
REMARK  status: ('A' for Active; 'I' for Inactive)
REMARK    1  A    between atoms: C_1  and  C_2
REMARK    2  A    between atoms: C_4  and  O_5
REMARK    3  A    between atoms: O_5  and  C_6
REMARK    4  A    between atoms: C_6  and  C_7
REMARK    5  A    between atoms: C_7  and  N_8
REMARK    6  A    between atoms: C_16  and  C_17
REMARK    7  A    between atoms: C_24  and  O_25
REMARK    8  A    between atoms: C_32  and  O_33
REMARK                            x       y       z     vdW  Elec       q    Type
REMARK                         _______ _______ _______ _____ _____    ______ ____
ROOT
ATOM      1  C   UNL     1       2.485   6.149  17.851  0.00  0.00    +0.000 C 
ATOM      2  C   UNL     1       3.536   6.222  17.014  0.00  0.00    +0.000 C 
ATOM      3  C   UNL     1       4.248   4.871  16.860  0.00  0.00    +0.000 C 
ATOM      4  C   UNL     1       4.860   4.554  15.485  0.00  0.00    +0.000 C 
ATOM      5  C   UNL     1       6.149   5.405  15.396  0.00  0.00    +0.000 C 
ATOM      6  C   UNL     1       6.557   5.493  16.839  0.00  0.00    +0.000 A 
ATOM      7  C   UNL     1       7.679   6.095  17.385  0.00  0.00    +0.000 A 
ATOM      8  C   UNL     1       7.768   6.164  18.778  0.00  0.00    +0.000 A 
ATOM      9  C   UNL     1       6.800   5.593  19.611  0.00  0.00    +0.000 A 
ATOM     10  C   UNL     1       5.665   5.009  19.056  0.00  0.00    +0.000 A 
ATOM     11  C   UNL     1       5.532   5.017  17.672  0.00  0.00    +0.000 A 
ATOM     12  C   UNL     1       3.210   3.946  17.436  0.00  0.00    +0.000 A 
ATOM     13  C   UNL     1       3.133   2.563  17.454  0.00  0.00    +0.000 A 
ATOM     14  C   UNL     1       2.080   1.969  18.161  0.00  0.00    +0.000 A 
ATOM     15  C   UNL     1       1.142   2.762  18.838  0.00  0.00    +0.000 A 
ATOM     16  C   UNL     1       1.200   4.147  18.794  0.00  0.00    +0.000 A 
ATOM     17  C   UNL     1       2.229   4.726  18.076  0.00  0.00    +0.000 A 
ENDROOT
BRANCH   1  24
ATOM     18  C   UNL     1       2.313   6.152  20.854  0.00  0.00    +0.000 C 
ATOM     19  C   UNL     1       1.902   7.329  20.016  0.00  0.00    +0.000 A 
ATOM     20  C   UNL     1       1.415   8.499  20.645  0.00  0.00    +0.000 A 
ATOM     21  C   UNL     1       1.049   9.624  19.900  0.00  0.00    +0.000 A 
ATOM     22  C   UNL     1       1.221   9.613  18.518  0.00  0.00    +0.000 A 
ATOM     23  C   UNL     1       1.696   8.461  17.888  0.00  0.00    +0.000 A 
ATOM     24  C   UNL     1       2.028   7.310  18.624  0.00  0.00    +0.000 A 
BRANCH  21  25
ATOM     25  O   UNL     1       0.568  10.699  20.609  0.00  0.00    +0.000 OA
BRANCH  25  26
ATOM     26  C   UNL     1      -0.720  11.154  20.167  0.00  0.00    +0.000 C 
BRANCH  26  27
ATOM     27  C   UNL     1      -0.706  12.680  19.963  0.00  0.00    +0.000 C 
BRANCH  27  28
ATOM     28  N   UNL     1       0.658  13.242  19.815  0.00  0.00    +0.000 NA
ATOM     29  C   UNL     1       1.065  13.334  18.404  0.00  0.00    +0.000 C 
ATOM     30  C   UNL     1       2.491  13.868  18.265  0.00  0.00    +0.000 C 
ATOM     31  C   UNL     1       2.642  15.221  18.943  0.00  0.00    +0.000 C 
ATOM     32  C   UNL     1       2.156  15.142  20.385  0.00  0.00    +0.000 C 
ATOM     33  C   UNL     1       0.743  14.559  20.470  0.00  0.00    +0.000 C 
ENDBRANCH  27  28
ENDBRANCH  26  27
ENDBRANCH  25  26
ENDBRANCH  21  25
ENDBRANCH   1  24
BRANCH   8  34
ATOM     34  O   UNL     1       8.784   6.843  19.387  0.00  0.00    +0.000 OA
ATOM     35  H   UNL     1       8.746   7.769  19.099  0.00  0.00    +0.000 HD
ENDBRANCH   8  34
BRANCH  15  36
ATOM     36  O   UNL     1       0.132   2.202  19.564  0.00  0.00    +0.000 OA
ATOM     37  H   UNL     1       0.498   1.483  20.102  0.00  0.00    +0.000 HD
ENDBRANCH  15  36
TORSDOF 7
ENDMDL
MODEL 8
REMARK VINA RESULT:      -8.2      3.246      8.946
REMARK  Name = 
REMARK  8 active torsions:
REMARK  status: ('A' for Active; 'I' for Inactive)
REMARK    1  A    between atoms: C_1  and  C_2
REMARK    2  A    between atoms: C_4  and  O_5
REMARK    3  A    between atoms: O_5  and  C_6
REMARK    4  A    between atoms: C_6  and  C_7
REMARK    5  A    between atoms: C_7  and  N_8
REMARK    6  A    between atoms: C_16  and  C_17
REMARK    7  A    between atoms: C_24  and  O_25
REMARK    8  A    between atoms: C_32  and  O_33
REMARK                            x       y       z     vdW  Elec       q    Type
REMARK                         _______ _______ _______ _____ _____    ______ ____
ROOT
ATOM      1  C   UNL     1       2.491   6.143  17.818  0.00  0.00    +0.000 C 
ATOM      2  C   UNL     1       3.548   6.190  16.985  0.00  0.00    +0.000 C 
ATOM      3  C   UNL     1       4.252   4.831  16.869  0.00  0.00    +0.000 C 
ATOM      4  C   UNL     1       4.870   4.475  15.506  0.00  0.00    +0.000 C 
ATOM      5  C   UNL     1       6.164   5.317  15.403  0.00  0.00    +0.000 C 
ATOM      6  C   UNL     1       6.565   5.439  16.845  0.00  0.00    +0.000 A 
ATOM      7  C   UNL     1       7.687   6.048  17.383  0.00  0.00    +0.000 A 
ATOM      8  C   UNL     1       7.769   6.152  18.773  0.00  0.00    +0.000 A 
ATOM      9  C   UNL     1       6.794   5.607  19.615  0.00  0.00    +0.000 A 
ATOM     10  C   UNL     1       5.658   5.017  19.069  0.00  0.00    +0.000 A 
ATOM     11  C   UNL     1       5.532   4.990  17.684  0.00  0.00    +0.000 A 
ATOM     12  C   UNL     1       3.206   3.927  17.462  0.00  0.00    +0.000 A 
ATOM     13  C   UNL     1       3.121   2.545  17.514  0.00  0.00    +0.000 A 
ATOM     14  C   UNL     1       2.060   1.975  18.231  0.00  0.00    +0.000 A 
ATOM     15  C   UNL     1       1.123   2.791  18.882  0.00  0.00    +0.000 A 
ATOM     16  C   UNL     1       1.190   4.173  18.804  0.00  0.00    +0.000 A 
ATOM     17  C   UNL     1       2.226   4.728  18.077  0.00  0.00    +0.000 A 
ENDROOT
BRANCH   1  24
ATOM     18  C   UNL     1       2.313   6.227  20.819  0.00  0.00    +0.000 C 
ATOM     19  C   UNL     1       1.908   7.383  19.949  0.00  0.00    +0.000 A 
ATOM     20  C   UNL     1       1.423   8.571  20.545  0.00  0.00    +0.000 A 
ATOM     21  C   UNL     1       1.064   9.677  19.770  0.00  0.00    +0.000 A 
ATOM     22  C   UNL     1       1.239   9.629  18.389  0.00  0.00    +0.000 A 
ATOM     23  C   UNL     1       1.710   8.458  17.791  0.00  0.00    +0.000 A 
ATOM     24  C   UNL     1       2.037   7.326  18.559  0.00  0.00    +0.000 A 
BRANCH  21  25
ATOM     25  O   UNL     1       0.585  10.772  20.449  0.00  0.00    +0.000 OA
BRANCH  25  26
ATOM     26  C   UNL     1       0.611  11.985  19.683  0.00  0.00    +0.000 C 
BRANCH  26  27
ATOM     27  C   UNL     1       1.432  13.063  20.416  0.00  0.00    +0.000 C 
BRANCH  27  28
ATOM     28  N   UNL     1       0.995  14.445  20.108  0.00  0.00    +0.000 NA
ATOM     29  C   UNL     1       1.608  14.954  18.871  0.00  0.00    +0.000 C 
ATOM     30  C   UNL     1       1.189  16.397  18.589  0.00  0.00    +0.000 C 
ATOM     31  C   UNL     1      -0.324  16.529  18.515  0.00  0.00    +0.000 C 
ATOM     32  C   UNL     1      -0.962  15.940  19.768  0.00  0.00    +0.000 C 
ATOM     33  C   UNL     1      -0.475  14.512  20.028  0.00  0.00    +0.000 C 
ENDBRANCH  27  28
ENDBRANCH  26  27
ENDBRANCH  25  26
ENDBRANCH  21  25
ENDBRANCH   1  24
BRANCH   8  34
ATOM     34  O   UNL     1       8.786   6.840  19.371  0.00  0.00    +0.000 OA
ATOM     35  H   UNL     1       8.678   7.782  19.162  0.00  0.00    +0.000 HD
ENDBRANCH   8  34
BRANCH  15  36
ATOM     36  O   UNL     1       0.106   2.254  19.617  0.00  0.00    +0.000 OA
ATOM     37  H   UNL     1       0.328   2.331  20.558  0.00  0.00    +0.000 HD
ENDBRANCH  15  36
TORSDOF 7
ENDMDL
MODEL 9
REMARK VINA RESULT:      -8.1      0.767      1.395
REMARK  Name = 
REMARK  8 active torsions:
REMARK  status: ('A' for Active; 'I' for Inactive)
REMARK    1  A    between atoms: C_1  and  C_2
REMARK    2  A    between atoms: C_4  and  O_5
REMARK    3  A    between atoms: O_5  and  C_6
REMARK    4  A    between atoms: C_6  and  C_7
REMARK    5  A    between atoms: C_7  and  N_8
REMARK    6  A    between atoms: C_16  and  C_17
REMARK    7  A    between atoms: C_24  and  O_25
REMARK    8  A    between atoms: C_32  and  O_33
REMARK                            x       y       z     vdW  Elec       q    Type
REMARK                         _______ _______ _______ _____ _____    ______ ____
ROOT
ATOM      1  C   UNL     1      -0.034   9.878  19.787  0.00  0.00    +0.000 C 
ATOM      2  C   UNL     1       0.065  10.756  20.803  0.00  0.00    +0.000 C 
ATOM      3  C   UNL     1      -0.791  12.009  20.570  0.00  0.00    +0.000 C 
ATOM      4  C   UNL     1      -1.424  12.666  21.808  0.00  0.00    +0.000 C 
ATOM      5  C   UNL     1      -0.270  13.411  22.520  0.00  0.00    +0.000 C 
ATOM      6  C   UNL     1       0.623  13.766  21.365  0.00  0.00    +0.000 A 
ATOM      7  C   UNL     1       1.802  14.494  21.375  0.00  0.00    +0.000 A 
ATOM      8  C   UNL     1       2.528  14.573  20.185  0.00  0.00    +0.000 A 
ATOM      9  C   UNL     1       2.065  14.001  18.996  0.00  0.00    +0.000 A 
ATOM     10  C   UNL     1       0.892  13.252  18.998  0.00  0.00    +0.000 A 
ATOM     11  C   UNL     1       0.213  13.098  20.201  0.00  0.00    +0.000 A 
ATOM     12  C   UNL     1      -1.679  11.532  19.453  0.00  0.00    +0.000 A 
ATOM     13  C   UNL     1      -2.799  12.104  18.874  0.00  0.00    +0.000 A 
ATOM     14  C   UNL     1      -3.372  11.463  17.767  0.00  0.00    +0.000 A 
ATOM     15  C   UNL     1      -2.811  10.280  17.263  0.00  0.00    +0.000 A 
ATOM     16  C   UNL     1      -1.709   9.689  17.862  0.00  0.00    +0.000 A 
ATOM     17  C   UNL     1      -1.164  10.316  18.967  0.00  0.00    +0.000 A 
ENDROOT
BRANCH   1  24
ATOM     18  C   UNL     1       1.908  10.378  17.546  0.00  0.00    +0.000 C 
ATOM     19  C   UNL     1       1.951   9.141  18.395  0.00  0.00    +0.000 A 
ATOM     20  C   UNL     1       2.939   8.158  18.151  0.00  0.00    +0.000 A 
ATOM     21  C   UNL     1       3.026   7.006  18.938  0.00  0.00    +0.000 A 
ATOM     22  C   UNL     1       2.162   6.850  20.018  0.00  0.00    +0.000 A 
ATOM     23  C   UNL     1       1.179   7.812  20.264  0.00  0.00    +0.000 A 
ATOM     24  C   UNL     1       1.056   8.954  19.453  0.00  0.00    +0.000 A 
BRANCH  21  25
ATOM     25  O   UNL     1       4.010   6.107  18.600  0.00  0.00    +0.000 OA
BRANCH  25  26
ATOM     26  C   UNL     1       3.637   5.213  17.541  0.00  0.00    +0.000 C 
BRANCH  26  27
ATOM     27  C   UNL     1       4.053   3.771  17.886  0.00  0.00    +0.000 C 
BRANCH  27  28
ATOM     28  N   UNL     1       3.136   3.107  18.843  0.00  0.00    +0.000 NA
ATOM     29  C   UNL     1       3.489   3.403  20.240  0.00  0.00    +0.000 C 
ATOM     30  C   UNL     1       2.568   2.675  21.219  0.00  0.00    +0.000 C 
ATOM     31  C   UNL     1       1.108   3.020  20.965  0.00  0.00    +0.000 C 
ATOM     32  C   UNL     1       0.761   2.778  19.501  0.00  0.00    +0.000 C 
ATOM     33  C   UNL     1       1.741   3.492  18.565  0.00  0.00    +0.000 C 
ENDBRANCH  27  28
ENDBRANCH  26  27
ENDBRANCH  25  26
ENDBRANCH  21  25
ENDBRANCH   1  24
BRANCH   8  34
ATOM     34  O   UNL     1       3.754  15.174  20.145  0.00  0.00    +0.000 OA
ATOM     35  H   UNL     1       3.950  15.522  21.029  0.00  0.00    +0.000 HD
ENDBRANCH   8  34
BRANCH  15  36
ATOM     36  O   UNL     1      -3.331   9.662  16.163  0.00  0.00    +0.000 OA
ATOM     37  H   UNL     1      -3.087  10.172  15.375  0.00  0.00    +0.000 HD
ENDBRANCH  15  36
TORSDOF 7
ENDMDL
