MODEL 1
REMARK VINA RESULT:      -6.9      0.000      0.000
REMARK  Name = 
REMARK  5 active torsions:
REMARK  status: ('A' for Active; 'I' for Inactive)
REMARK    1  A    between atoms: C_1  and  N_2
REMARK    2  A    between atoms: N_2  and  C_3
REMARK    3  A    between atoms: N_2  and  C_4
REMARK    4  A    between atoms: C_8  and  C_9
REMARK    5  A    between atoms: C_14  and  O_15
REMARK                            x       y       z     vdW  Elec       q    Type
REMARK                         _______ _______ _______ _____ _____    ______ ____
ROOT
ATOM      1  C   UNL     1       3.759   5.719  18.755  0.00  0.00    +0.000 C 
ATOM      2  O   UNL     1       3.179   6.748  18.406  0.00  0.00    +0.000 OA
ATOM      3  N   UNL     1       3.214   4.819  19.681  0.00  0.00    +0.000 N 
ATOM      4  C   UNL     1       1.969   5.175  20.363  0.00  0.00    +0.000 C 
ATOM      5  C   UNL     1       0.913   4.082  20.207  0.00  0.00    +0.000 C 
ATOM      6  C   UNL     1       1.445   2.699  20.583  0.00  0.00    +0.000 C 
ATOM      7  C   UNL     1       2.755   2.396  19.870  0.00  0.00    +0.000 C 
ATOM      8  C   UNL     1       3.771   3.514  20.046  0.00  0.00    +0.000 C 
ENDROOT
BRANCH   1  13
ATOM      9  C   UNL     1       6.301   4.745  16.097  0.00  0.00    +0.000 A 
ATOM     10  C   UNL     1       7.442   4.644  16.912  0.00  0.00    +0.000 A 
ATOM     11  C   UNL     1       7.430   4.988  18.266  0.00  0.00    +0.000 A 
ATOM     12  C   UNL     1       6.255   5.430  18.857  0.00  0.00    +0.000 A 
ATOM     13  C   UNL     1       5.074   5.428  18.118  0.00  0.00    +0.000 A 
ATOM     14  C   UNL     1       5.114   5.149  16.738  0.00  0.00    +0.000 A 
BRANCH   9  16
ATOM     15  C   UNL     1       7.432   5.018  13.907  0.00  0.00    +0.000 C 
ATOM     16  N   UNL     1       6.360   4.474  14.732  0.00  0.00    +0.000 N 
ATOM     17  C   UNL     1       5.163   4.005  14.041  0.00  0.00    +0.000 C 
ENDBRANCH   9  16
ENDBRANCH   1  13
BRANCH   6  18
ATOM     18  O   UNL     1       1.608   2.579  21.996  0.00  0.00    +0.000 OA
ATOM     19  H   UNL     1       2.418   2.078  22.187  0.00  0.00    +0.000 HD
ENDBRANCH   6  18
TORSDOF 3
ENDMDL
MODEL 2
REMARK VINA RESULT:      -6.6      1.667      2.216
REMARK  Name = 
REMARK  5 active torsions:
REMARK  status: ('A' for Active; 'I' for Inactive)
REMARK    1  A    between atoms: C_1  and  N_2
REMARK    2  A    between atoms: N_2  and  C_3
REMARK    3  A    between atoms: N_2  and  C_4
REMARK    4  A    between atoms: C_8  and  C_9
REMARK    5  A    between atoms: C_14  and  O_15
REMARK                            x       y       z     vdW  Elec       q    Type
REMARK                         _______ _______ _______ _____ _____    ______ ____
ROOT
ATOM      1  C   UNL     1       4.762   3.994  18.653  0.00  0.00    +0.000 C 
ATOM      2  O   UNL     1       5.784   3.705  19.277  0.00  0.00    +0.000 OA
ATOM      3  N   UNL     1       3.482   3.611  19.077  0.00  0.00    +0.000 N 
ATOM      4  C   UNL     1       3.356   2.720  20.230  0.00  0.00    +0.000 C 
ATOM      5  C   UNL     1       2.426   3.306  21.292  0.00  0.00    +0.000 C 
ATOM      6  C   UNL     1       1.084   3.749  20.711  0.00  0.00    +0.000 C 
ATOM      7  C   UNL     1       1.275   4.646  19.496  0.00  0.00    +0.000 C 
ATOM      8  C   UNL     1       2.212   4.027  18.472  0.00  0.00    +0.000 C 
ENDROOT
BRANCH   1  13
ATOM      9  C   UNL     1       5.831   5.005  15.144  0.00  0.00    +0.000 A 
ATOM     10  C   UNL     1       5.476   6.365  15.191  0.00  0.00    +0.000 A 
ATOM     11  C   UNL     1       4.805   6.929  16.280  0.00  0.00    +0.000 A 
ATOM     12  C   UNL     1       4.484   6.143  17.377  0.00  0.00    +0.000 A 
ATOM     13  C   UNL     1       4.924   4.822  17.425  0.00  0.00    +0.000 A 
ATOM     14  C   UNL     1       5.534   4.246  16.293  0.00  0.00    +0.000 A 
BRANCH   9  16
ATOM     15  C   UNL     1       7.643   5.022  13.452  0.00  0.00    +0.000 C 
ATOM     16  N   UNL     1       6.425   4.450  14.014  0.00  0.00    +0.000 N 
ATOM     17  C   UNL     1       5.642   3.573  13.149  0.00  0.00    +0.000 C 
ENDBRANCH   9  16
ENDBRANCH   1  13
BRANCH   6  18
ATOM     18  O   UNL     1       0.273   2.623  20.375  0.00  0.00    +0.000 OA
ATOM     19  H   UNL     1       0.842   1.874  20.134  0.00  0.00    +0.000 HD
ENDBRANCH   6  18
TORSDOF 3
ENDMDL
MODEL 3
REMARK VINA RESULT:      -6.6      2.771      6.082
REMARK  Name = 
REMARK  5 active torsions:
REMARK  status: ('A' for Active; 'I' for Inactive)
REMARK    1  A    between atoms: C_1  and  N_2
REMARK    2  A    between atoms: N_2  and  C_3
REMARK    3  A    between atoms: N_2  and  C_4
REMARK    4  A    between atoms: C_8  and  C_9
REMARK    5  A    between atoms: C_14  and  O_15
REMARK                            x       y       z     vdW  Elec       q    Type
REMARK                         _______ _______ _______ _____ _____    ______ ____
ROOT
ATOM      1  C   UNL     1       3.054   4.506  17.656  0.00  0.00    +0.000 C 
ATOM      2  O   UNL     1       2.277   3.804  17.006  0.00  0.00    +0.000 OA
ATOM      3  N   UNL     1       4.435   4.529  17.418  0.00  0.00    +0.000 N 
ATOM      4  C   UNL     1       5.001   3.587  16.452  0.00  0.00    +0.000 C 
ATOM      5  C   UNL     1       5.831   4.306  15.389  0.00  0.00    +0.000 C 
ATOM      6  C   UNL     1       6.862   5.255  15.999  0.00  0.00    +0.000 C 
ATOM      7  C   UNL     1       6.225   6.188  17.017  0.00  0.00    +0.000 C 
ATOM      8  C   UNL     1       5.404   5.430  18.048  0.00  0.00    +0.000 C 
ENDROOT
BRANCH   1  13
ATOM      9  C   UNL     1       1.857   7.665  19.407  0.00  0.00    +0.000 A 
ATOM     10  C   UNL     1       1.595   7.124  20.678  0.00  0.00    +0.000 A 
ATOM     11  C   UNL     1       1.691   5.756  20.947  0.00  0.00    +0.000 A 
ATOM     12  C   UNL     1       2.076   4.879  19.943  0.00  0.00    +0.000 A 
ATOM     13  C   UNL     1       2.462   5.386  18.703  0.00  0.00    +0.000 A 
ATOM     14  C   UNL     1       2.292   6.755  18.424  0.00  0.00    +0.000 A 
BRANCH   9  16
ATOM     15  C   UNL     1       0.827   9.841  20.003  0.00  0.00    +0.000 C 
ATOM     16  N   UNL     1       1.675   9.020  19.145  0.00  0.00    +0.000 N 
ATOM     17  C   UNL     1       1.978   9.541  17.816  0.00  0.00    +0.000 C 
ENDBRANCH   9  16
ENDBRANCH   1  13
BRANCH   6  18
ATOM     18  O   UNL     1       7.938   4.529  16.594  0.00  0.00    +0.000 OA
ATOM     19  H   UNL     1       8.778   4.976  16.397  0.00  0.00    +0.000 HD
ENDBRANCH   6  18
TORSDOF 3
ENDMDL
MODEL 4
REMARK VINA RESULT:      -6.6      1.567      2.583
REMARK  Name = 
REMARK  5 active torsions:
REMARK  status: ('A' for Active; 'I' for Inactive)
REMARK    1  A    between atoms: C_1  and  N_2
REMARK    2  A    between atoms: N_2  and  C_3
REMARK    3  A    between atoms: N_2  and  C_4
REMARK    4  A    between atoms: C_8  and  C_9
REMARK    5  A    between atoms: C_14  and  O_15
REMARK                            x       y       z     vdW  Elec       q    Type
REMARK                         _______ _______ _______ _____ _____    ______ ____
ROOT
ATOM      1  C   UNL     1       2.864   5.321  18.167  0.00  0.00    +0.000 C 
ATOM      2  O   UNL     1       1.976   5.974  17.617  0.00  0.00    +0.000 OA
ATOM      3  N   UNL     1       2.657   4.611  19.357  0.00  0.00    +0.000 N 
ATOM      4  C   UNL     1       1.377   4.754  20.051  0.00  0.00    +0.000 C 
ATOM      5  C   UNL     1       0.728   3.396  20.317  0.00  0.00    +0.000 C 
ATOM      6  C   UNL     1       1.687   2.416  20.993  0.00  0.00    +0.000 C 
ATOM      7  C   UNL     1       3.011   2.330  20.247  0.00  0.00    +0.000 C 
ATOM      8  C   UNL     1       3.613   3.704  19.999  0.00  0.00    +0.000 C 
ENDROOT
BRANCH   1  13
ATOM      9  C   UNL     1       6.509   6.090  17.390  0.00  0.00    +0.000 A 
ATOM     10  C   UNL     1       6.616   5.418  16.160  0.00  0.00    +0.000 A 
ATOM     11  C   UNL     1       5.581   4.638  15.637  0.00  0.00    +0.000 A 
ATOM     12  C   UNL     1       4.384   4.524  16.329  0.00  0.00    +0.000 A 
ATOM     13  C   UNL     1       4.191   5.270  17.489  0.00  0.00    +0.000 A 
ATOM     14  C   UNL     1       5.265   5.993  18.043  0.00  0.00    +0.000 A 
BRANCH   9  16
ATOM     15  C   UNL     1       8.251   6.328  19.138  0.00  0.00    +0.000 C 
ATOM     16  N   UNL     1       7.584   6.793  17.928  0.00  0.00    +0.000 N 
ATOM     17  C   UNL     1       7.793   8.186  17.546  0.00  0.00    +0.000 C 
ENDBRANCH   9  16
ENDBRANCH   1  13
BRANCH   6  18
ATOM     18  O   UNL     1       1.906   2.771  22.358  0.00  0.00    +0.000 OA
ATOM     19  H   UNL     1       1.345   2.222  22.929  0.00  0.00    +0.000 HD
ENDBRANCH   6  18
TORSDOF 3
ENDMDL
MODEL 5
REMARK VINA RESULT:      -6.5      2.524      6.096
REMARK  Name = 
REMARK  5 active torsions:
REMARK  status: ('A' for Active; 'I' for Inactive)
REMARK    1  A    between atoms: C_1  and  N_2
REMARK    2  A    between atoms: N_2  and  C_3
REMARK    3  A    between atoms: N_2  and  C_4
REMARK    4  A    between atoms: C_8  and  C_9
REMARK    5  A    between atoms: C_14  and  O_15
REMARK                            x       y       z     vdW  Elec       q    Type
REMARK                         _______ _______ _______ _____ _____    ______ ____
ROOT
ATOM      1  C   UNL     1       3.198   3.934  17.497  0.00  0.00    +0.000 C 
ATOM      2  O   UNL     1       2.498   3.456  16.603  0.00  0.00    +0.000 OA
ATOM      3  N   UNL     1       4.596   3.984  17.421  0.00  0.00    +0.000 N 
ATOM      4  C   UNL     1       5.266   3.324  16.300  0.00  0.00    +0.000 C 
ATOM      5  C   UNL     1       6.204   4.281  15.566  0.00  0.00    +0.000 C 
ATOM      6  C   UNL     1       7.161   5.002  16.515  0.00  0.00    +0.000 C 
ATOM      7  C   UNL     1       6.415   5.641  17.677  0.00  0.00    +0.000 C 
ATOM      8  C   UNL     1       5.489   4.654  18.371  0.00  0.00    +0.000 C 
ENDROOT
BRANCH   1  13
ATOM      9  C   UNL     1       1.877   6.528  19.949  0.00  0.00    +0.000 A 
ATOM     10  C   UNL     1       1.415   5.661  20.955  0.00  0.00    +0.000 A 
ATOM     11  C   UNL     1       1.420   4.271  20.811  0.00  0.00    +0.000 A 
ATOM     12  C   UNL     1       1.914   3.699  19.647  0.00  0.00    +0.000 A 
ATOM     13  C   UNL     1       2.494   4.514  18.676  0.00  0.00    +0.000 A 
ATOM     14  C   UNL     1       2.417   5.914  18.801  0.00  0.00    +0.000 A 
BRANCH   9  16
ATOM     15  C   UNL     1       1.271   8.509  21.311  0.00  0.00    +0.000 C 
ATOM     16  N   UNL     1       1.785   7.911  20.085  0.00  0.00    +0.000 N 
ATOM     17  C   UNL     1       1.804   8.752  18.892  0.00  0.00    +0.000 C 
ENDBRANCH   9  16
ENDBRANCH   1  13
BRANCH   6  18
ATOM     18  O   UNL     1       8.168   4.113  17.000  0.00  0.00    +0.000 OA
ATOM     19  H   UNL     1       9.040   4.531  16.907  0.00  0.00    +0.000 HD
ENDBRANCH   6  18
TORSDOF 3
ENDMDL
MODEL 6
REMARK VINA RESULT:      -6.5      3.284      5.829
REMARK  Name = 
REMARK  5 active torsions:
REMARK  status: ('A' for Active; 'I' for Inactive)
REMARK    1  A    between atoms: C_1  and  N_2
REMARK    2  A    between atoms: N_2  and  C_3
REMARK    3  A    between atoms: N_2  and  C_4
REMARK    4  A    between atoms: C_8  and  C_9
REMARK    5  A    between atoms: C_14  and  O_15
REMARK                            x       y       z     vdW  Elec       q    Type
REMARK                         _______ _______ _______ _____ _____    ______ ____
ROOT
ATOM      1  C   UNL     1       3.594   5.855  19.087  0.00  0.00    +0.000 C 
ATOM      2  O   UNL     1       4.788   5.932  19.381  0.00  0.00    +0.000 OA
ATOM      3  N   UNL     1       2.930   4.632  18.929  0.00  0.00    +0.000 N 
ATOM      4  C   UNL     1       3.707   3.393  18.981  0.00  0.00    +0.000 C 
ATOM      5  C   UNL     1       3.135   2.415  20.007  0.00  0.00    +0.000 C 
ATOM      6  C   UNL     1       1.634   2.190  19.822  0.00  0.00    +0.000 C 
ATOM      7  C   UNL     1       0.881   3.510  19.743  0.00  0.00    +0.000 C 
ATOM      8  C   UNL     1       1.490   4.452  18.717  0.00  0.00    +0.000 C 
ENDROOT
BRANCH   1  13
ATOM      9  C   UNL     1       1.297   8.765  19.945  0.00  0.00    +0.000 A 
ATOM     10  C   UNL     1       1.238   9.376  18.680  0.00  0.00    +0.000 A 
ATOM     11  C   UNL     1       2.003   8.937  17.597  0.00  0.00    +0.000 A 
ATOM     12  C   UNL     1       2.847   7.845  17.744  0.00  0.00    +0.000 A 
ATOM     13  C   UNL     1       2.845   7.135  18.943  0.00  0.00    +0.000 A 
ATOM     14  C   UNL     1       2.125   7.630  20.047  0.00  0.00    +0.000 A 
BRANCH   9  16
ATOM     15  C   UNL     1      -0.438  10.294  20.840  0.00  0.00    +0.000 C 
ATOM     16  N   UNL     1       0.586   9.273  21.029  0.00  0.00    +0.000 N 
ATOM     17  C   UNL     1       1.119   9.109  22.377  0.00  0.00    +0.000 C 
ENDBRANCH   9  16
ENDBRANCH   1  13
BRANCH   6  18
ATOM     18  O   UNL     1       1.373   1.397  18.664  0.00  0.00    +0.000 OA
ATOM     19  H   UNL     1       1.110   1.974  17.929  0.00  0.00    +0.000 HD
ENDBRANCH   6  18
TORSDOF 3
ENDMDL
MODEL 7
REMARK VINA RESULT:      -6.3      2.158      6.149
REMARK  Name = 
REMARK  5 active torsions:
REMARK  status: ('A' for Active; 'I' for Inactive)
REMARK    1  A    between atoms: C_1  and  N_2
REMARK    2  A    between atoms: N_2  and  C_3
REMARK    3  A    between atoms: N_2  and  C_4
REMARK    4  A    between atoms: C_8  and  C_9
REMARK    5  A    between atoms: C_14  and  O_15
REMARK                            x       y       z     vdW  Elec       q    Type
REMARK                         _______ _______ _______ _____ _____    ______ ____
ROOT
ATOM      1  C   UNL     1       5.544   5.368  18.986  0.00  0.00    +0.000 C 
ATOM      2  O   UNL     1       6.408   5.219  19.852  0.00  0.00    +0.000 OA
ATOM      3  N   UNL     1       5.846   5.440  17.620  0.00  0.00    +0.000 N 
ATOM      4  C   UNL     1       7.250   5.474  17.207  0.00  0.00    +0.000 C 
ATOM      5  C   UNL     1       7.559   4.383  16.182  0.00  0.00    +0.000 C 
ATOM      6  C   UNL     1       6.576   4.387  15.013  0.00  0.00    +0.000 C 
ATOM      7  C   UNL     1       5.134   4.383  15.500  0.00  0.00    +0.000 C 
ATOM      8  C   UNL     1       4.875   5.478  16.522  0.00  0.00    +0.000 C 
ENDROOT
BRANCH   1  13
ATOM      9  C   UNL     1       2.084   4.201  20.056  0.00  0.00    +0.000 A 
ATOM     10  C   UNL     1       1.426   5.444  20.060  0.00  0.00    +0.000 A 
ATOM     11  C   UNL     1       2.096   6.649  19.834  0.00  0.00    +0.000 A 
ATOM     12  C   UNL     1       3.459   6.645  19.575  0.00  0.00    +0.000 A 
ATOM     13  C   UNL     1       4.126   5.429  19.441  0.00  0.00    +0.000 A 
ATOM     14  C   UNL     1       3.457   4.227  19.741  0.00  0.00    +0.000 A 
BRANCH   9  16
ATOM     15  C   UNL     1       1.475   2.452  21.704  0.00  0.00    +0.000 C 
ATOM     16  N   UNL     1       1.408   3.023  20.364  0.00  0.00    +0.000 N 
ATOM     17  C   UNL     1       0.978   2.140  19.285  0.00  0.00    +0.000 C 
ENDBRANCH   9  16
ENDBRANCH   1  13
BRANCH   6  18
ATOM     18  O   UNL     1       6.807   5.502  14.151  0.00  0.00    +0.000 OA
ATOM     19  H   UNL     1       7.750   5.547  13.926  0.00  0.00    +0.000 HD
ENDBRANCH   6  18
TORSDOF 3
ENDMDL
MODEL 8
REMARK VINA RESULT:      -6.3      2.174      3.268
REMARK  Name = 
REMARK  5 active torsions:
REMARK  status: ('A' for Active; 'I' for Inactive)
REMARK    1  A    between atoms: C_1  and  N_2
REMARK    2  A    between atoms: N_2  and  C_3
REMARK    3  A    between atoms: N_2  and  C_4
REMARK    4  A    between atoms: C_8  and  C_9
REMARK    5  A    between atoms: C_14  and  O_15
REMARK                            x       y       z     vdW  Elec       q    Type
REMARK                         _______ _______ _______ _____ _____    ______ ____
ROOT
ATOM      1  C   UNL     1       3.941   2.898  17.634  0.00  0.00    +0.000 C 
ATOM      2  O   UNL     1       4.144   1.693  17.479  0.00  0.00    +0.000 OA
ATOM      3  N   UNL     1       2.897   3.395  18.425  0.00  0.00    +0.000 N 
ATOM      4  C   UNL     1       1.924   2.455  18.983  0.00  0.00    +0.000 C 
ATOM      5  C   UNL     1       1.793   2.618  20.497  0.00  0.00    +0.000 C 
ATOM      6  C   UNL     1       1.549   4.069  20.908  0.00  0.00    +0.000 C 
ATOM      7  C   UNL     1       2.568   5.005  20.274  0.00  0.00    +0.000 C 
ATOM      8  C   UNL     1       2.670   4.801  18.771  0.00  0.00    +0.000 C 
ENDROOT
BRANCH   1  13
ATOM      9  C   UNL     1       6.620   5.570  17.230  0.00  0.00    +0.000 A 
ATOM     10  C   UNL     1       6.513   5.778  15.843  0.00  0.00    +0.000 A 
ATOM     11  C   UNL     1       5.682   5.004  15.029  0.00  0.00    +0.000 A 
ATOM     12  C   UNL     1       4.907   3.998  15.590  0.00  0.00    +0.000 A 
ATOM     13  C   UNL     1       4.890   3.839  16.974  0.00  0.00    +0.000 A 
ATOM     14  C   UNL     1       5.784   4.575  17.774  0.00  0.00    +0.000 A 
BRANCH   9  16
ATOM     15  C   UNL     1       7.914   5.836  19.328  0.00  0.00    +0.000 C 
ATOM     16  N   UNL     1       7.517   6.301  18.005  0.00  0.00    +0.000 N 
ATOM     17  C   UNL     1       7.748   7.709  17.698  0.00  0.00    +0.000 C 
ENDBRANCH   9  16
ENDBRANCH   1  13
BRANCH   6  18
ATOM     18  O   UNL     1       0.223   4.481  20.576  0.00  0.00    +0.000 OA
ATOM     19  H   UNL     1      -0.257   4.712  21.388  0.00  0.00    +0.000 HD
ENDBRANCH   6  18
TORSDOF 3
ENDMDL
MODEL 9
REMARK VINA RESULT:      -6.3      1.968      2.533
REMARK  Name = 
REMARK  5 active torsions:
REMARK  status: ('A' for Active; 'I' for Inactive)
REMARK    1  A    between atoms: C_1  and  N_2
REMARK    2  A    between atoms: N_2  and  C_3
REMARK    3  A    between atoms: N_2  and  C_4
REMARK    4  A    between atoms: C_8  and  C_9
REMARK    5  A    between atoms: C_14  and  O_15
REMARK                            x       y       z     vdW  Elec       q    Type
REMARK                         _______ _______ _______ _____ _____    ______ ____
ROOT
ATOM      1  C   UNL     1       4.733   3.861  18.376  0.00  0.00    +0.000 C 
ATOM      2  O   UNL     1       5.609   3.728  19.232  0.00  0.00    +0.000 OA
ATOM      3  N   UNL     1       3.504   3.190  18.440  0.00  0.00    +0.000 N 
ATOM      4  C   UNL     1       3.299   2.189  19.487  0.00  0.00    +0.000 C 
ATOM      5  C   UNL     1       2.033   2.475  20.294  0.00  0.00    +0.000 C 
ATOM      6  C   UNL     1       0.810   2.690  19.402  0.00  0.00    +0.000 C 
ATOM      7  C   UNL     1       1.090   3.715  18.313  0.00  0.00    +0.000 C 
ATOM      8  C   UNL     1       2.362   3.395  17.544  0.00  0.00    +0.000 C 
ENDROOT
BRANCH   1  13
ATOM      9  C   UNL     1       5.963   5.182  15.027  0.00  0.00    +0.000 A 
ATOM     10  C   UNL     1       5.761   6.556  15.246  0.00  0.00    +0.000 A 
ATOM     11  C   UNL     1       5.141   7.050  16.397  0.00  0.00    +0.000 A 
ATOM     12  C   UNL     1       4.717   6.172  17.385  0.00  0.00    +0.000 A 
ATOM     13  C   UNL     1       5.006   4.814  17.264  0.00  0.00    +0.000 A 
ATOM     14  C   UNL     1       5.565   4.322  16.069  0.00  0.00    +0.000 A 
BRANCH   9  16
ATOM     15  C   UNL     1       6.013   3.488  13.217  0.00  0.00    +0.000 C 
ATOM     16  N   UNL     1       6.509   4.712  13.835  0.00  0.00    +0.000 N 
ATOM     17  C   UNL     1       7.823   5.184  13.413  0.00  0.00    +0.000 C 
ENDBRANCH   9  16
ENDBRANCH   1  13
BRANCH   6  18
ATOM     18  O   UNL     1       0.372   1.459  18.826  0.00  0.00    +0.000 OA
ATOM     19  H   UNL     1       0.926   1.246  18.057  0.00  0.00    +0.000 HD
ENDBRANCH   6  18
TORSDOF 3
ENDMDL
