MODEL 1
REMARK VINA RESULT:      -7.9      0.000      0.000
REMARK  Name = 
REMARK  5 active torsions:
REMARK  status: ('A' for Active; 'I' for Inactive)
REMARK    1  A    between atoms: C_2  and  C_3
REMARK    2  A    between atoms: C_2  and  C_8
REMARK    3  A    between atoms: N_11  and  C_12
REMARK    4  A    between atoms: C_21  and  N_22
REMARK    5  A    between atoms: N_22  and  C_23
REMARK                            x       y       z     vdW  Elec       q    Type
REMARK                         _______ _______ _______ _____ _____    ______ ____
ROOT
ATOM      1  C   UNL     1       3.263   6.484  19.056  0.00  0.00    +0.000 A 
ATOM      2  N   UNL     1       3.062   7.655  18.405  0.00  0.00    +0.000 NA
ATOM      3  C   UNL     1       2.090   8.469  18.848  0.00  0.00    +0.000 A 
ATOM      4  C   UNL     1       1.788   9.647  18.188  0.00  0.00    +0.000 A 
ATOM      5  N   UNL     1       0.783  10.495  18.512  0.00  0.00    +0.000 NA
ATOM      6  C   UNL     1       0.034  10.139  19.569  0.00  0.00    +0.000 A 
ATOM      7  C   UNL     1       0.264   8.995  20.316  0.00  0.00    +0.000 A 
ATOM      8  C   UNL     1       1.307   8.147  19.969  0.00  0.00    +0.000 A 
ATOM      9  N   UNL     1       1.541   7.024  20.682  0.00  0.00    +0.000 NA
ATOM     10  C   UNL     1       2.499   6.175  20.221  0.00  0.00    +0.000 A 
ENDROOT
BRANCH   1  14
ATOM     11  C   UNL     1       6.023   4.156  16.725  0.00  0.00    +0.000 C 
ATOM     12  C   UNL     1       4.522   4.209  16.435  0.00  0.00    +0.000 C 
ATOM     13  C   UNL     1       3.871   5.463  16.995  0.00  0.00    +0.000 C 
ATOM     14  N   UNL     1       4.122   5.525  18.444  0.00  0.00    +0.000 N 
ATOM     15  C   UNL     1       5.550   5.718  18.749  0.00  0.00    +0.000 C 
ATOM     16  C   UNL     1       6.351   4.536  18.181  0.00  0.00    +0.000 C 
BRANCH  11  18
ATOM     17  O   UNL     1       7.426   5.978  16.047  0.00  0.00    +0.000 OA
ATOM     18  C   UNL     1       6.803   4.977  15.686  0.00  0.00    +0.000 C 
BRANCH  18  19
ATOM     19  C   UNL     1       6.766   4.559  14.277  0.00  0.00    +0.000 A 
ATOM     20  C   UNL     1       5.879   3.664  13.695  0.00  0.00    +0.000 A 
ATOM     21  C   UNL     1       6.128   3.458  12.305  0.00  0.00    +0.000 A 
ATOM     22  C   UNL     1       7.180   4.216  11.854  0.00  0.00    +0.000 A 
ATOM     23  S   UNL     1       7.850   5.172  13.094  0.00  0.00    +0.000 S 
ENDBRANCH  18  19
ENDBRANCH  11  18
ENDBRANCH   1  14
BRANCH  10  24
ATOM     24  N   UNL     1       2.750   4.956  20.911  0.00  0.00    +0.000 N 
ATOM     25  H   UNL     1       3.661   4.619  20.606  0.00  0.00    +0.000 HD
BRANCH  24  26
ATOM     26  C   UNL     1       1.691   3.974  21.128  0.00  0.00    +0.000 C 
ATOM     27  C   UNL     1       1.497   2.775  20.245  0.00  0.00    +0.000 C 
ATOM     28  C   UNL     1       2.070   2.600  21.620  0.00  0.00    +0.000 C 
ENDBRANCH  24  26
ENDBRANCH  10  24
TORSDOF 5
ENDMDL
MODEL 2
REMARK VINA RESULT:      -7.7      3.859      7.630
REMARK  Name = 
REMARK  5 active torsions:
REMARK  status: ('A' for Active; 'I' for Inactive)
REMARK    1  A    between atoms: C_2  and  C_3
REMARK    2  A    between atoms: C_2  and  C_8
REMARK    3  A    between atoms: N_11  and  C_12
REMARK    4  A    between atoms: C_21  and  N_22
REMARK    5  A    between atoms: N_22  and  C_23
REMARK                            x       y       z     vdW  Elec       q    Type
REMARK                         _______ _______ _______ _____ _____    ______ ____
ROOT
ATOM      1  C   UNL     1       2.854   6.880  18.789  0.00  0.00    +0.000 A 
ATOM      2  N   UNL     1       3.681   7.192  17.762  0.00  0.00    +0.000 NA
ATOM      3  C   UNL     1       4.826   6.499  17.638  0.00  0.00    +0.000 A 
ATOM      4  C   UNL     1       5.746   6.813  16.652  0.00  0.00    +0.000 A 
ATOM      5  N   UNL     1       6.955   6.224  16.491  0.00  0.00    +0.000 NA
ATOM      6  C   UNL     1       7.259   5.257  17.373  0.00  0.00    +0.000 A 
ATOM      7  C   UNL     1       6.401   4.848  18.381  0.00  0.00    +0.000 A 
ATOM      8  C   UNL     1       5.163   5.460  18.520  0.00  0.00    +0.000 A 
ATOM      9  N   UNL     1       4.318   5.078  19.502  0.00  0.00    +0.000 NA
ATOM     10  C   UNL     1       3.173   5.796  19.659  0.00  0.00    +0.000 A 
ENDROOT
BRANCH   1  14
ATOM     11  C   UNL     1       0.109   9.974  19.959  0.00  0.00    +0.000 C 
ATOM     12  C   UNL     1       0.373   8.728  20.805  0.00  0.00    +0.000 C 
ATOM     13  C   UNL     1       1.718   8.093  20.491  0.00  0.00    +0.000 C 
ATOM     14  N   UNL     1       1.770   7.767  19.057  0.00  0.00    +0.000 N 
ATOM     15  C   UNL     1       1.760   8.975  18.216  0.00  0.00    +0.000 C 
ATOM     16  C   UNL     1       0.465   9.759  18.475  0.00  0.00    +0.000 C 
BRANCH  11  18
ATOM     17  O   UNL     1       1.340  11.102  21.679  0.00  0.00    +0.000 OA
ATOM     18  C   UNL     1       0.790  11.204  20.580  0.00  0.00    +0.000 C 
BRANCH  18  19
ATOM     19  C   UNL     1       0.744  12.483  19.856  0.00  0.00    +0.000 A 
ATOM     20  C   UNL     1       1.820  13.185  19.334  0.00  0.00    +0.000 A 
ATOM     21  C   UNL     1       1.435  14.408  18.708  0.00  0.00    +0.000 A 
ATOM     22  C   UNL     1       0.076  14.599  18.744  0.00  0.00    +0.000 A 
ATOM     23  S   UNL     1      -0.723  13.309  19.517  0.00  0.00    +0.000 S 
ENDBRANCH  18  19
ENDBRANCH  11  18
ENDBRANCH   1  14
BRANCH  10  24
ATOM     24  N   UNL     1       2.272   5.463  20.709  0.00  0.00    +0.000 N 
ATOM     25  H   UNL     1       2.819   5.393  21.565  0.00  0.00    +0.000 HD
BRANCH  24  26
ATOM     26  C   UNL     1       1.189   4.504  20.505  0.00  0.00    +0.000 C 
ATOM     27  C   UNL     1       1.335   3.276  19.655  0.00  0.00    +0.000 C 
ATOM     28  C   UNL     1       1.296   3.145  21.149  0.00  0.00    +0.000 C 
ENDBRANCH  24  26
ENDBRANCH  10  24
TORSDOF 5
ENDMDL
MODEL 3
REMARK VINA RESULT:      -7.5      3.837      8.082
REMARK  Name = 
REMARK  5 active torsions:
REMARK  status: ('A' for Active; 'I' for Inactive)
REMARK    1  A    between atoms: C_2  and  C_3
REMARK    2  A    between atoms: C_2  and  C_8
REMARK    3  A    between atoms: N_11  and  C_12
REMARK    4  A    between atoms: C_21  and  N_22
REMARK    5  A    between atoms: N_22  and  C_23
REMARK                            x       y       z     vdW  Elec       q    Type
REMARK                         _______ _______ _______ _____ _____    ______ ____
ROOT
ATOM      1  C   UNL     1       2.827   6.939  18.711  0.00  0.00    +0.000 A 
ATOM      2  N   UNL     1       3.669   7.219  17.687  0.00  0.00    +0.000 NA
ATOM      3  C   UNL     1       4.815   6.524  17.600  0.00  0.00    +0.000 A 
ATOM      4  C   UNL     1       5.749   6.807  16.618  0.00  0.00    +0.000 A 
ATOM      5  N   UNL     1       6.960   6.215  16.491  0.00  0.00    +0.000 NA
ATOM      6  C   UNL     1       7.253   5.277  17.407  0.00  0.00    +0.000 A 
ATOM      7  C   UNL     1       6.381   4.898  18.416  0.00  0.00    +0.000 A 
ATOM      8  C   UNL     1       5.141   5.513  18.518  0.00  0.00    +0.000 A 
ATOM      9  N   UNL     1       4.282   5.161  19.500  0.00  0.00    +0.000 NA
ATOM     10  C   UNL     1       3.135   5.882  19.619  0.00  0.00    +0.000 A 
ENDROOT
BRANCH   1  14
ATOM     11  C   UNL     1       0.085  10.120  19.624  0.00  0.00    +0.000 C 
ATOM     12  C   UNL     1       0.478   9.040  20.634  0.00  0.00    +0.000 C 
ATOM     13  C   UNL     1       1.811   8.393  20.296  0.00  0.00    +0.000 C 
ATOM     14  N   UNL     1       1.739   7.832  18.937  0.00  0.00    +0.000 N 
ATOM     15  C   UNL     1       1.601   8.881  17.913  0.00  0.00    +0.000 C 
ATOM     16  C   UNL     1       0.306   9.667  18.168  0.00  0.00    +0.000 C 
BRANCH  11  18
ATOM     17  O   UNL     1       1.797  11.777  19.360  0.00  0.00    +0.000 OA
ATOM     18  C   UNL     1       0.772  11.452  19.963  0.00  0.00    +0.000 C 
BRANCH  18  19
ATOM     19  C   UNL     1       0.199  12.298  21.021  0.00  0.00    +0.000 A 
ATOM     20  C   UNL     1      -0.787  11.943  21.930  0.00  0.00    +0.000 A 
ATOM     21  C   UNL     1      -1.137  13.007  22.814  0.00  0.00    +0.000 A 
ATOM     22  C   UNL     1      -0.395  14.138  22.577  0.00  0.00    +0.000 A 
ATOM     23  S   UNL     1       0.717  13.910  21.307  0.00  0.00    +0.000 S 
ENDBRANCH  18  19
ENDBRANCH  11  18
ENDBRANCH   1  14
BRANCH  10  24
ATOM     24  N   UNL     1       2.220   5.581  20.667  0.00  0.00    +0.000 N 
ATOM     25  H   UNL     1       2.757   5.526  21.530  0.00  0.00    +0.000 HD
BRANCH  24  26
ATOM     26  C   UNL     1       1.131   4.627  20.473  0.00  0.00    +0.000 C 
ATOM     27  C   UNL     1       1.216   3.474  19.516  0.00  0.00    +0.000 C 
ATOM     28  C   UNL     1       1.300   3.222  20.992  0.00  0.00    +0.000 C 
ENDBRANCH  24  26
ENDBRANCH  10  24
TORSDOF 5
ENDMDL
MODEL 4
REMARK VINA RESULT:      -7.3      3.547      7.539
REMARK  Name = 
REMARK  5 active torsions:
REMARK  status: ('A' for Active; 'I' for Inactive)
REMARK    1  A    between atoms: C_2  and  C_3
REMARK    2  A    between atoms: C_2  and  C_8
REMARK    3  A    between atoms: N_11  and  C_12
REMARK    4  A    between atoms: C_21  and  N_22
REMARK    5  A    between atoms: N_22  and  C_23
REMARK                            x       y       z     vdW  Elec       q    Type
REMARK                         _______ _______ _______ _____ _____    ______ ____
ROOT
ATOM      1  C   UNL     1       2.874   6.836  18.148  0.00  0.00    +0.000 A 
ATOM      2  N   UNL     1       3.999   7.446  17.703  0.00  0.00    +0.000 NA
ATOM      3  C   UNL     1       5.080   6.686  17.461  0.00  0.00    +0.000 A 
ATOM      4  C   UNL     1       6.280   7.254  17.070  0.00  0.00    +0.000 A 
ATOM      5  N   UNL     1       7.440   6.583  16.872  0.00  0.00    +0.000 NA
ATOM      6  C   UNL     1       7.392   5.257  17.078  0.00  0.00    +0.000 A 
ATOM      7  C   UNL     1       6.238   4.583  17.446  0.00  0.00    +0.000 A 
ATOM      8  C   UNL     1       5.059   5.292  17.632  0.00  0.00    +0.000 A 
ATOM      9  N   UNL     1       3.927   4.652  17.998  0.00  0.00    +0.000 NA
ATOM     10  C   UNL     1       2.837   5.416  18.280  0.00  0.00    +0.000 A 
ENDROOT
BRANCH   1  14
ATOM     11  C   UNL     1       0.247   9.738  19.922  0.00  0.00    +0.000 C 
ATOM     12  C   UNL     1       0.644   8.435  20.618  0.00  0.00    +0.000 C 
ATOM     13  C   UNL     1       1.948   7.869  20.080  0.00  0.00    +0.000 C 
ATOM     14  N   UNL     1       1.818   7.664  18.629  0.00  0.00    +0.000 N 
ATOM     15  C   UNL     1       1.675   8.937  17.902  0.00  0.00    +0.000 C 
ATOM     16  C   UNL     1       0.411   9.658  18.393  0.00  0.00    +0.000 C 
BRANCH  11  18
ATOM     17  O   UNL     1       1.580  10.780  21.621  0.00  0.00    +0.000 OA
ATOM     18  C   UNL     1       0.980  10.932  20.555  0.00  0.00    +0.000 C 
BRANCH  18  19
ATOM     19  C   UNL     1       0.923  12.238  19.881  0.00  0.00    +0.000 A 
ATOM     20  C   UNL     1      -0.183  13.066  19.758  0.00  0.00    +0.000 A 
ATOM     21  C   UNL     1       0.093  14.257  19.023  0.00  0.00    +0.000 A 
ATOM     22  C   UNL     1       1.406  14.323  18.625  0.00  0.00    +0.000 A 
ATOM     23  S   UNL     1       2.293  12.965  19.143  0.00  0.00    +0.000 S 
ENDBRANCH  18  19
ENDBRANCH  11  18
ENDBRANCH   1  14
BRANCH  10  24
ATOM     24  N   UNL     1       1.634   4.792  18.715  0.00  0.00    +0.000 N 
ATOM     25  H   UNL     1       1.032   5.524  19.086  0.00  0.00    +0.000 HD
BRANCH  24  26
ATOM     26  C   UNL     1       1.652   3.502  19.400  0.00  0.00    +0.000 C 
ATOM     27  C   UNL     1       2.425   3.260  20.664  0.00  0.00    +0.000 C 
ATOM     28  C   UNL     1       0.931   3.374  20.717  0.00  0.00    +0.000 C 
ENDBRANCH  24  26
ENDBRANCH  10  24
TORSDOF 5
ENDMDL
MODEL 5
REMARK VINA RESULT:      -7.3      1.959      2.667
REMARK  Name = 
REMARK  5 active torsions:
REMARK  status: ('A' for Active; 'I' for Inactive)
REMARK    1  A    between atoms: C_2  and  C_3
REMARK    2  A    between atoms: C_2  and  C_8
REMARK    3  A    between atoms: N_11  and  C_12
REMARK    4  A    between atoms: C_21  and  N_22
REMARK    5  A    between atoms: N_22  and  C_23
REMARK                            x       y       z     vdW  Elec       q    Type
REMARK                         _______ _______ _______ _____ _____    ______ ____
ROOT
ATOM      1  C   UNL     1       2.754   6.615  19.289  0.00  0.00    +0.000 A 
ATOM      2  N   UNL     1       2.624   7.761  18.579  0.00  0.00    +0.000 NA
ATOM      3  C   UNL     1       1.768   8.693  19.029  0.00  0.00    +0.000 A 
ATOM      4  C   UNL     1       1.538   9.856  18.315  0.00  0.00    +0.000 A 
ATOM      5  N   UNL     1       0.645  10.819  18.647  0.00  0.00    +0.000 NA
ATOM      6  C   UNL     1      -0.062  10.601  19.769  0.00  0.00    +0.000 A 
ATOM      7  C   UNL     1       0.107   9.484  20.571  0.00  0.00    +0.000 A 
ATOM      8  C   UNL     1       1.036   8.517  20.215  0.00  0.00    +0.000 A 
ATOM      9  N   UNL     1       1.207   7.418  20.982  0.00  0.00    +0.000 NA
ATOM     10  C   UNL     1       2.045   6.451  20.517  0.00  0.00    +0.000 A 
ENDROOT
BRANCH   1  14
ATOM     11  C   UNL     1       5.366   3.925  17.188  0.00  0.00    +0.000 C 
ATOM     12  C   UNL     1       4.087   4.496  16.575  0.00  0.00    +0.000 C 
ATOM     13  C   UNL     1       3.652   5.788  17.247  0.00  0.00    +0.000 C 
ATOM     14  N   UNL     1       3.472   5.541  18.687  0.00  0.00    +0.000 N 
ATOM     15  C   UNL     1       4.745   5.221  19.355  0.00  0.00    +0.000 C 
ATOM     16  C   UNL     1       5.338   3.950  18.728  0.00  0.00    +0.000 C 
BRANCH  11  18
ATOM     17  O   UNL     1       7.123   4.139  15.571  0.00  0.00    +0.000 OA
ATOM     18  C   UNL     1       6.605   4.608  16.587  0.00  0.00    +0.000 C 
BRANCH  18  19
ATOM     19  C   UNL     1       7.158   5.794  17.257  0.00  0.00    +0.000 A 
ATOM     20  C   UNL     1       7.036   7.115  16.850  0.00  0.00    +0.000 A 
ATOM     21  C   UNL     1       7.712   8.027  17.714  0.00  0.00    +0.000 A 
ATOM     22  C   UNL     1       8.311   7.387  18.770  0.00  0.00    +0.000 A 
ATOM     23  S   UNL     1       8.050   5.705  18.722  0.00  0.00    +0.000 S 
ENDBRANCH  18  19
ENDBRANCH  11  18
ENDBRANCH   1  14
BRANCH  10  24
ATOM     24  N   UNL     1       2.223   5.255  21.265  0.00  0.00    +0.000 N 
ATOM     25  H   UNL     1       3.225   5.081  21.323  0.00  0.00    +0.000 HD
BRANCH  24  26
ATOM     26  C   UNL     1       1.335   4.108  21.088  0.00  0.00    +0.000 C 
ATOM     27  C   UNL     1       1.023   3.518  19.744  0.00  0.00    +0.000 C 
ATOM     28  C   UNL     1       1.935   2.786  20.684  0.00  0.00    +0.000 C 
ENDBRANCH  24  26
ENDBRANCH  10  24
TORSDOF 5
ENDMDL
MODEL 6
REMARK VINA RESULT:      -7.2      1.092      1.350
REMARK  Name = 
REMARK  5 active torsions:
REMARK  status: ('A' for Active; 'I' for Inactive)
REMARK    1  A    between atoms: C_2  and  C_3
REMARK    2  A    between atoms: C_2  and  C_8
REMARK    3  A    between atoms: N_11  and  C_12
REMARK    4  A    between atoms: C_21  and  N_22
REMARK    5  A    between atoms: N_22  and  C_23
REMARK                            x       y       z     vdW  Elec       q    Type
REMARK                         _______ _______ _______ _____ _____    ______ ____
ROOT
ATOM      1  C   UNL     1       3.231   5.803  19.529  0.00  0.00    +0.000 A 
ATOM      2  N   UNL     1       3.046   7.114  19.242  0.00  0.00    +0.000 NA
ATOM      3  C   UNL     1       2.030   7.757  19.841  0.00  0.00    +0.000 A 
ATOM      4  C   UNL     1       1.745   9.078  19.540  0.00  0.00    +0.000 A 
ATOM      5  N   UNL     1       0.703   9.789  20.034  0.00  0.00    +0.000 NA
ATOM      6  C   UNL     1      -0.104   9.133  20.885  0.00  0.00    +0.000 A 
ATOM      7  C   UNL     1       0.104   7.819  21.273  0.00  0.00    +0.000 A 
ATOM      8  C   UNL     1       1.186   7.115  20.762  0.00  0.00    +0.000 A 
ATOM      9  N   UNL     1       1.399   5.831  21.123  0.00  0.00    +0.000 NA
ATOM     10  C   UNL     1       2.403   5.160  20.497  0.00  0.00    +0.000 A 
ENDROOT
BRANCH   1  14
ATOM     11  C   UNL     1       5.967   4.202  16.626  0.00  0.00    +0.000 C 
ATOM     12  C   UNL     1       4.458   3.952  16.579  0.00  0.00    +0.000 C 
ATOM     13  C   UNL     1       3.674   5.018  17.328  0.00  0.00    +0.000 C 
ATOM     14  N   UNL     1       4.149   5.071  18.720  0.00  0.00    +0.000 N 
ATOM     15  C   UNL     1       5.540   5.545  18.811  0.00  0.00    +0.000 C 
ATOM     16  C   UNL     1       6.453   4.582  18.037  0.00  0.00    +0.000 C 
BRANCH  11  18
ATOM     17  O   UNL     1       6.489   6.404  15.834  0.00  0.00    +0.000 OA
ATOM     18  C   UNL     1       6.381   5.210  15.543  0.00  0.00    +0.000 C 
BRANCH  18  19
ATOM     19  C   UNL     1       6.614   4.726  14.174  0.00  0.00    +0.000 A 
ATOM     20  C   UNL     1       7.656   5.080  13.329  0.00  0.00    +0.000 A 
ATOM     21  C   UNL     1       7.578   4.446  12.054  0.00  0.00    +0.000 A 
ATOM     22  C   UNL     1       6.496   3.606  11.962  0.00  0.00    +0.000 A 
ATOM     23  S   UNL     1       5.593   3.578  13.406  0.00  0.00    +0.000 S 
ENDBRANCH  18  19
ENDBRANCH  11  18
ENDBRANCH   1  14
BRANCH  10  24
ATOM     24  N   UNL     1       2.637   3.792  20.810  0.00  0.00    +0.000 N 
ATOM     25  H   UNL     1       3.644   3.642  20.774  0.00  0.00    +0.000 HD
BRANCH  24  26
ATOM     26  C   UNL     1       1.766   2.736  20.300  0.00  0.00    +0.000 C 
ATOM     27  C   UNL     1       0.984   2.867  19.026  0.00  0.00    +0.000 C 
ATOM     28  C   UNL     1       2.192   1.980  19.068  0.00  0.00    +0.000 C 
ENDBRANCH  24  26
ENDBRANCH  10  24
TORSDOF 5
ENDMDL
MODEL 7
REMARK VINA RESULT:      -7.1      7.584     10.095
REMARK  Name = 
REMARK  5 active torsions:
REMARK  status: ('A' for Active; 'I' for Inactive)
REMARK    1  A    between atoms: C_2  and  C_3
REMARK    2  A    between atoms: C_2  and  C_8
REMARK    3  A    between atoms: N_11  and  C_12
REMARK    4  A    between atoms: C_21  and  N_22
REMARK    5  A    between atoms: N_22  and  C_23
REMARK                            x       y       z     vdW  Elec       q    Type
REMARK                         _______ _______ _______ _____ _____    ______ ____
ROOT
ATOM      1  C   UNL     1      -3.119  11.654  18.056  0.00  0.00    +0.000 A 
ATOM      2  N   UNL     1      -3.813  11.980  19.174  0.00  0.00    +0.000 NA
ATOM      3  C   UNL     1      -5.125  12.240  19.053  0.00  0.00    +0.000 A 
ATOM      4  C   UNL     1      -5.876  12.645  20.143  0.00  0.00    +0.000 A 
ATOM      5  N   UNL     1      -7.183  12.997  20.110  0.00  0.00    +0.000 NA
ATOM      6  C   UNL     1      -7.776  12.937  18.906  0.00  0.00    +0.000 A 
ATOM      7  C   UNL     1      -7.125  12.521  17.755  0.00  0.00    +0.000 A 
ATOM      8  C   UNL     1      -5.787  12.155  17.818  0.00  0.00    +0.000 A 
ATOM      9  N   UNL     1      -5.135  11.754  16.705  0.00  0.00    +0.000 NA
ATOM     10  C   UNL     1      -3.798  11.524  16.808  0.00  0.00    +0.000 A 
ENDROOT
BRANCH   1  14
ATOM     11  C   UNL     1       1.060  11.754  19.052  0.00  0.00    +0.000 C 
ATOM     12  C   UNL     1       0.310  12.955  18.476  0.00  0.00    +0.000 C 
ATOM     13  C   UNL     1      -1.188  12.872  18.722  0.00  0.00    +0.000 C 
ATOM     14  N   UNL     1      -1.697  11.617  18.146  0.00  0.00    +0.000 N 
ATOM     15  C   UNL     1      -1.171  10.434  18.848  0.00  0.00    +0.000 C 
ATOM     16  C   UNL     1       0.361  10.419  18.732  0.00  0.00    +0.000 C 
BRANCH  11  18
ATOM     17  O   UNL     1       2.185  12.778  20.906  0.00  0.00    +0.000 OA
ATOM     18  C   UNL     1       1.336  11.957  20.550  0.00  0.00    +0.000 C 
BRANCH  18  19
ATOM     19  C   UNL     1       0.593  11.145  21.526  0.00  0.00    +0.000 A 
ATOM     20  C   UNL     1       0.889   9.852  21.933  0.00  0.00    +0.000 A 
ATOM     21  C   UNL     1      -0.048   9.339  22.879  0.00  0.00    +0.000 A 
ATOM     22  C   UNL     1      -1.019  10.257  23.191  0.00  0.00    +0.000 A 
ATOM     23  S   UNL     1      -0.795  11.724  22.356  0.00  0.00    +0.000 S 
ENDBRANCH  18  19
ENDBRANCH  11  18
ENDBRANCH   1  14
BRANCH  10  24
ATOM     24  N   UNL     1      -3.058  11.146  15.653  0.00  0.00    +0.000 N 
ATOM     25  H   UNL     1      -2.847  11.998  15.138  0.00  0.00    +0.000 HD
BRANCH  24  26
ATOM     26  C   UNL     1      -3.399   9.947  14.891  0.00  0.00    +0.000 C 
ATOM     27  C   UNL     1      -4.166   9.992  13.601  0.00  0.00    +0.000 C 
ATOM     28  C   UNL     1      -2.695   9.699  13.581  0.00  0.00    +0.000 C 
ENDBRANCH  24  26
ENDBRANCH  10  24
TORSDOF 5
ENDMDL
MODEL 8
REMARK VINA RESULT:      -7.1      4.074      8.318
REMARK  Name = 
REMARK  5 active torsions:
REMARK  status: ('A' for Active; 'I' for Inactive)
REMARK    1  A    between atoms: C_2  and  C_3
REMARK    2  A    between atoms: C_2  and  C_8
REMARK    3  A    between atoms: N_11  and  C_12
REMARK    4  A    between atoms: C_21  and  N_22
REMARK    5  A    between atoms: N_22  and  C_23
REMARK                            x       y       z     vdW  Elec       q    Type
REMARK                         _______ _______ _______ _____ _____    ______ ____
ROOT
ATOM      1  C   UNL     1       2.894   6.500  18.909  0.00  0.00    +0.000 A 
ATOM      2  N   UNL     1       2.022   5.537  19.296  0.00  0.00    +0.000 NA
ATOM      3  C   UNL     1       2.287   4.266  18.952  0.00  0.00    +0.000 A 
ATOM      4  C   UNL     1       1.403   3.245  19.256  0.00  0.00    +0.000 A 
ATOM      5  N   UNL     1       1.544   1.948  18.891  0.00  0.00    +0.000 NA
ATOM      6  C   UNL     1       2.644   1.657  18.176  0.00  0.00    +0.000 A 
ATOM      7  C   UNL     1       3.605   2.597  17.839  0.00  0.00    +0.000 A 
ATOM      8  C   UNL     1       3.442   3.917  18.234  0.00  0.00    +0.000 A 
ATOM      9  N   UNL     1       4.366   4.847  17.907  0.00  0.00    +0.000 NA
ATOM     10  C   UNL     1       4.091   6.143  18.219  0.00  0.00    +0.000 A 
ENDROOT
BRANCH   1  14
ATOM     11  C   UNL     1       1.047  10.379  19.019  0.00  0.00    +0.000 C 
ATOM     12  C   UNL     1       1.971   9.925  17.888  0.00  0.00    +0.000 C 
ATOM     13  C   UNL     1       2.046   8.411  17.776  0.00  0.00    +0.000 C 
ATOM     14  N   UNL     1       2.492   7.859  19.065  0.00  0.00    +0.000 N 
ATOM     15  C   UNL     1       1.499   8.072  20.131  0.00  0.00    +0.000 C 
ATOM     16  C   UNL     1       1.276   9.581  20.316  0.00  0.00    +0.000 C 
BRANCH  11  18
ATOM     17  O   UNL     1      -0.755   9.662  17.608  0.00  0.00    +0.000 OA
ATOM     18  C   UNL     1      -0.417  10.381  18.551  0.00  0.00    +0.000 C 
BRANCH  18  19
ATOM     19  C   UNL     1      -1.377  11.266  19.228  0.00  0.00    +0.000 A 
ATOM     20  C   UNL     1      -1.175  11.973  20.404  0.00  0.00    +0.000 A 
ATOM     21  C   UNL     1      -2.320  12.724  20.806  0.00  0.00    +0.000 A 
ATOM     22  C   UNL     1      -3.358  12.593  19.917  0.00  0.00    +0.000 A 
ATOM     23  S   UNL     1      -2.948  11.583  18.610  0.00  0.00    +0.000 S 
ENDBRANCH  18  19
ENDBRANCH  11  18
ENDBRANCH   1  14
BRANCH  10  24
ATOM     24  N   UNL     1       5.011   7.165  17.854  0.00  0.00    +0.000 N 
ATOM     25  H   UNL     1       4.473   7.915  17.424  0.00  0.00    +0.000 HD
BRANCH  24  26
ATOM     26  C   UNL     1       6.318   6.844  17.286  0.00  0.00    +0.000 C 
ATOM     27  C   UNL     1       7.485   7.786  17.343  0.00  0.00    +0.000 C 
ATOM     28  C   UNL     1       7.466   6.573  18.225  0.00  0.00    +0.000 C 
ENDBRANCH  24  26
ENDBRANCH  10  24
TORSDOF 5
ENDMDL
MODEL 9
REMARK VINA RESULT:      -7.1      4.163      6.271
REMARK  Name = 
REMARK  5 active torsions:
REMARK  status: ('A' for Active; 'I' for Inactive)
REMARK    1  A    between atoms: C_2  and  C_3
REMARK    2  A    between atoms: C_2  and  C_8
REMARK    3  A    between atoms: N_11  and  C_12
REMARK    4  A    between atoms: C_21  and  N_22
REMARK    5  A    between atoms: N_22  and  C_23
REMARK                            x       y       z     vdW  Elec       q    Type
REMARK                         _______ _______ _______ _____ _____    ______ ____
ROOT
ATOM      1  C   UNL     1       0.076  10.007  18.845  0.00  0.00    +0.000 A 
ATOM      2  N   UNL     1      -0.656   9.906  17.709  0.00  0.00    +0.000 NA
ATOM      3  C   UNL     1      -1.830  10.556  17.652  0.00  0.00    +0.000 A 
ATOM      4  C   UNL     1      -2.657  10.440  16.549  0.00  0.00    +0.000 A 
ATOM      5  N   UNL     1      -3.887  10.995  16.426  0.00  0.00    +0.000 NA
ATOM      6  C   UNL     1      -4.313  11.714  17.478  0.00  0.00    +0.000 A 
ATOM      7  C   UNL     1      -3.556  11.916  18.620  0.00  0.00    +0.000 A 
ATOM      8  C   UNL     1      -2.294  11.345  18.718  0.00  0.00    +0.000 A 
ATOM      9  N   UNL     1      -1.546  11.525  19.827  0.00  0.00    +0.000 NA
ATOM     10  C   UNL     1      -0.371  10.843  19.911  0.00  0.00    +0.000 A 
ENDROOT
BRANCH   1  14
ATOM     11  C   UNL     1       2.939   6.815  19.148  0.00  0.00    +0.000 C 
ATOM     12  C   UNL     1       2.162   7.358  20.349  0.00  0.00    +0.000 C 
ATOM     13  C   UNL     1       0.873   8.049  19.937  0.00  0.00    +0.000 C 
ATOM     14  N   UNL     1       1.192   9.133  18.993  0.00  0.00    +0.000 N 
ATOM     15  C   UNL     1       1.724   8.617  17.720  0.00  0.00    +0.000 C 
ATOM     16  C   UNL     1       3.016   7.833  17.994  0.00  0.00    +0.000 C 
BRANCH  11  18
ATOM     17  O   UNL     1       2.036   5.270  17.553  0.00  0.00    +0.000 OA
ATOM     18  C   UNL     1       2.388   5.446  18.722  0.00  0.00    +0.000 C 
BRANCH  18  19
ATOM     19  C   UNL     1       2.269   4.383  19.731  0.00  0.00    +0.000 A 
ATOM     20  C   UNL     1       1.147   4.069  20.484  0.00  0.00    +0.000 A 
ATOM     21  C   UNL     1       1.372   2.993  21.394  0.00  0.00    +0.000 A 
ATOM     22  C   UNL     1       2.648   2.496  21.298  0.00  0.00    +0.000 A 
ATOM     23  S   UNL     1       3.558   3.315  20.114  0.00  0.00    +0.000 S 
ENDBRANCH  18  19
ENDBRANCH  11  18
ENDBRANCH   1  14
BRANCH  10  24
ATOM     24  N   UNL     1       0.430  10.963  21.081  0.00  0.00    +0.000 N 
ATOM     25  H   UNL     1       1.366  10.643  20.839  0.00  0.00    +0.000 HD
BRANCH  24  26
ATOM     26  C   UNL     1      -0.095  10.621  22.400  0.00  0.00    +0.000 C 
ATOM     27  C   UNL     1      -0.802   9.329  22.687  0.00  0.00    +0.000 C 
ATOM     28  C   UNL     1       0.593   9.540  23.193  0.00  0.00    +0.000 C 
ENDBRANCH  24  26
ENDBRANCH  10  24
TORSDOF 5
ENDMDL
