MODEL 1
REMARK VINA RESULT:      -5.4      0.000      0.000
REMARK  Name = 
REMARK  2 active torsions:
REMARK  status: ('A' for Active; 'I' for Inactive)
REMARK    1  A    between atoms: C_2  and  C_3
REMARK    2  A    between atoms: C_4  and  O_5
REMARK                            x       y       z     vdW  Elec       q    Type
REMARK                         _______ _______ _______ _____ _____    ______ ____
ROOT
ATOM      1  C   UNL     1       6.632   5.570  16.958  0.00  0.00    +0.000 A 
ATOM      2  C   UNL     1       6.819   5.174  15.618  0.00  0.00    +0.000 A 
ATOM      3  C   UNL     1       5.968   4.227  15.042  0.00  0.00    +0.000 A 
ATOM      4 CL   UNL     1       6.145   3.731  13.399  0.00  0.00    +0.000 Cl
ATOM      5  C   UNL     1       4.944   3.655  15.795  0.00  0.00    +0.000 A 
ATOM      6  C   UNL     1       4.766   4.030  17.129  0.00  0.00    +0.000 A 
ATOM      7 CL   UNL     1       3.485   3.251  17.996  0.00  0.00    +0.000 Cl
ATOM      8  C   UNL     1       5.600   4.993  17.720  0.00  0.00    +0.000 A 
ATOM      9 CL   UNL     1       5.367   5.435  19.383  0.00  0.00    +0.000 Cl
ENDROOT
BRANCH   1  11
ATOM     10  O   UNL     1       7.600   7.712  17.013  0.00  0.00    +0.000 OA
ATOM     11  C   UNL     1       7.521   6.603  17.537  0.00  0.00    +0.000 C 
ENDBRANCH   1  11
BRANCH   2  12
ATOM     12  O   UNL     1       7.823   5.697  14.840  0.00  0.00    +0.000 OA
ATOM     13  H   UNL     1       8.688   5.311  15.112  0.00  0.00    +0.000 HD
ENDBRANCH   2  12
TORSDOF 2
ENDMDL
MODEL 2
REMARK VINA RESULT:      -5.4      3.183      4.494
REMARK  Name = 
REMARK  2 active torsions:
REMARK  status: ('A' for Active; 'I' for Inactive)
REMARK    1  A    between atoms: C_2  and  C_3
REMARK    2  A    between atoms: C_4  and  O_5
REMARK                            x       y       z     vdW  Elec       q    Type
REMARK                         _______ _______ _______ _____ _____    ______ ____
ROOT
ATOM      1  C   UNL     1       5.108   4.778  18.183  0.00  0.00    +0.000 A 
ATOM      2  C   UNL     1       4.576   3.942  19.185  0.00  0.00    +0.000 A 
ATOM      3  C   UNL     1       3.337   4.239  19.761  0.00  0.00    +0.000 A 
ATOM      4 CL   UNL     1       2.637   3.231  20.973  0.00  0.00    +0.000 Cl
ATOM      5  C   UNL     1       2.634   5.374  19.363  0.00  0.00    +0.000 A 
ATOM      6  C   UNL     1       3.165   6.216  18.383  0.00  0.00    +0.000 A 
ATOM      7 CL   UNL     1       2.235   7.615  17.966  0.00  0.00    +0.000 Cl
ATOM      8  C   UNL     1       4.400   5.924  17.780  0.00  0.00    +0.000 A 
ATOM      9 CL   UNL     1       5.046   6.993  16.573  0.00  0.00    +0.000 Cl
ENDROOT
BRANCH   1  11
ATOM     10  O   UNL     1       7.430   4.416  18.233  0.00  0.00    +0.000 OA
ATOM     11  C   UNL     1       6.403   4.423  17.559  0.00  0.00    +0.000 C 
ENDBRANCH   1  11
BRANCH   2  12
ATOM     12  O   UNL     1       5.239   2.821  19.623  0.00  0.00    +0.000 OA
ATOM     13  H   UNL     1       5.360   2.194  18.872  0.00  0.00    +0.000 HD
ENDBRANCH   2  12
TORSDOF 2
ENDMDL
MODEL 3
REMARK VINA RESULT:      -5.4      3.541      4.304
REMARK  Name = 
REMARK  2 active torsions:
REMARK  status: ('A' for Active; 'I' for Inactive)
REMARK    1  A    between atoms: C_2  and  C_3
REMARK    2  A    between atoms: C_4  and  O_5
REMARK                            x       y       z     vdW  Elec       q    Type
REMARK                         _______ _______ _______ _____ _____    ______ ____
ROOT
ATOM      1  C   UNL     1       3.795   3.929  19.096  0.00  0.00    +0.000 A 
ATOM      2  C   UNL     1       4.442   4.211  17.876  0.00  0.00    +0.000 A 
ATOM      3  C   UNL     1       4.373   5.496  17.327  0.00  0.00    +0.000 A 
ATOM      4 CL   UNL     1       5.169   5.893  15.849  0.00  0.00    +0.000 Cl
ATOM      5  C   UNL     1       3.648   6.495  17.973  0.00  0.00    +0.000 A 
ATOM      6  C   UNL     1       2.989   6.215  19.172  0.00  0.00    +0.000 A 
ATOM      7 CL   UNL     1       2.092   7.509  19.892  0.00  0.00    +0.000 Cl
ATOM      8  C   UNL     1       3.061   4.936  19.748  0.00  0.00    +0.000 A 
ATOM      9 CL   UNL     1       2.225   4.609  21.234  0.00  0.00    +0.000 Cl
ENDROOT
BRANCH   1  11
ATOM     10  O   UNL     1       4.986   2.191  20.139  0.00  0.00    +0.000 OA
ATOM     11  C   UNL     1       3.913   2.573  19.679  0.00  0.00    +0.000 C 
ENDBRANCH   1  11
BRANCH   2  12
ATOM     12  O   UNL     1       5.156   3.256  17.194  0.00  0.00    +0.000 OA
ATOM     13  H   UNL     1       4.695   2.388  17.262  0.00  0.00    +0.000 HD
ENDBRANCH   2  12
TORSDOF 2
ENDMDL
MODEL 4
REMARK VINA RESULT:      -5.3      3.108      4.068
REMARK  Name = 
REMARK  2 active torsions:
REMARK  status: ('A' for Active; 'I' for Inactive)
REMARK    1  A    between atoms: C_2  and  C_3
REMARK    2  A    between atoms: C_4  and  O_5
REMARK                            x       y       z     vdW  Elec       q    Type
REMARK                         _______ _______ _______ _____ _____    ______ ____
ROOT
ATOM      1  C   UNL     1       4.435   4.383  18.489  0.00  0.00    +0.000 A 
ATOM      2  C   UNL     1       5.713   4.848  18.116  0.00  0.00    +0.000 A 
ATOM      3  C   UNL     1       5.877   6.164  17.673  0.00  0.00    +0.000 A 
ATOM      4 CL   UNL     1       7.426   6.783  17.230  0.00  0.00    +0.000 Cl
ATOM      5  C   UNL     1       4.777   7.014  17.578  0.00  0.00    +0.000 A 
ATOM      6  C   UNL     1       3.506   6.552  17.928  0.00  0.00    +0.000 A 
ATOM      7 CL   UNL     1       2.194   7.668  17.756  0.00  0.00    +0.000 Cl
ATOM      8  C   UNL     1       3.324   5.239  18.392  0.00  0.00    +0.000 A 
ATOM      9 CL   UNL     1       1.732   4.685  18.811  0.00  0.00    +0.000 Cl
ENDROOT
BRANCH   1  11
ATOM     10  O   UNL     1       4.946   2.622  19.960  0.00  0.00    +0.000 OA
ATOM     11  C   UNL     1       4.289   2.999  18.993  0.00  0.00    +0.000 C 
ENDBRANCH   1  11
BRANCH   2  12
ATOM     12  O   UNL     1       6.824   4.044  18.178  0.00  0.00    +0.000 OA
ATOM     13  H   UNL     1       6.572   3.156  18.523  0.00  0.00    +0.000 HD
ENDBRANCH   2  12
TORSDOF 2
ENDMDL
MODEL 5
REMARK VINA RESULT:      -5.3      1.689      1.787
REMARK  Name = 
REMARK  2 active torsions:
REMARK  status: ('A' for Active; 'I' for Inactive)
REMARK    1  A    between atoms: C_2  and  C_3
REMARK    2  A    between atoms: C_4  and  O_5
REMARK                            x       y       z     vdW  Elec       q    Type
REMARK                         _______ _______ _______ _____ _____    ______ ____
ROOT
ATOM      1  C   UNL     1       5.907   5.005  18.202  0.00  0.00    +0.000 A 
ATOM      2  C   UNL     1       6.471   4.634  16.966  0.00  0.00    +0.000 A 
ATOM      3  C   UNL     1       5.653   4.155  15.938  0.00  0.00    +0.000 A 
ATOM      4 CL   UNL     1       6.298   3.712  14.400  0.00  0.00    +0.000 Cl
ATOM      5  C   UNL     1       4.281   4.022  16.139  0.00  0.00    +0.000 A 
ATOM      6  C   UNL     1       3.719   4.371  17.369  0.00  0.00    +0.000 A 
ATOM      7 CL   UNL     1       2.010   4.151  17.538  0.00  0.00    +0.000 Cl
ATOM      8  C   UNL     1       4.522   4.871  18.408  0.00  0.00    +0.000 A 
ATOM      9 CL   UNL     1       3.802   5.287  19.932  0.00  0.00    +0.000 Cl
ENDROOT
BRANCH   1  11
ATOM     10  O   UNL     1       7.898   5.061  19.450  0.00  0.00    +0.000 OA
ATOM     11  C   UNL     1       6.785   5.547  19.264  0.00  0.00    +0.000 C 
ENDBRANCH   1  11
BRANCH   2  12
ATOM     12  O   UNL     1       7.820   4.732  16.725  0.00  0.00    +0.000 OA
ATOM     13  H   UNL     1       7.996   5.503  16.137  0.00  0.00    +0.000 HD
ENDBRANCH   2  12
TORSDOF 2
ENDMDL
MODEL 6
REMARK VINA RESULT:      -5.2      1.865      3.420
REMARK  Name = 
REMARK  2 active torsions:
REMARK  status: ('A' for Active; 'I' for Inactive)
REMARK    1  A    between atoms: C_2  and  C_3
REMARK    2  A    between atoms: C_4  and  O_5
REMARK                            x       y       z     vdW  Elec       q    Type
REMARK                         _______ _______ _______ _____ _____    ______ ____
ROOT
ATOM      1  C   UNL     1       5.443   4.665  16.456  0.00  0.00    +0.000 A 
ATOM      2  C   UNL     1       6.554   5.420  16.884  0.00  0.00    +0.000 A 
ATOM      3  C   UNL     1       6.715   5.723  18.239  0.00  0.00    +0.000 A 
ATOM      4 CL   UNL     1       8.071   6.623  18.811  0.00  0.00    +0.000 Cl
ATOM      5  C   UNL     1       5.768   5.298  19.169  0.00  0.00    +0.000 A 
ATOM      6  C   UNL     1       4.656   4.565  18.748  0.00  0.00    +0.000 A 
ATOM      7 CL   UNL     1       3.519   4.100  19.967  0.00  0.00    +0.000 Cl
ATOM      8  C   UNL     1       4.486   4.236  17.393  0.00  0.00    +0.000 A 
ATOM      9 CL   UNL     1       3.089   3.334  16.892  0.00  0.00    +0.000 Cl
ENDROOT
BRANCH   1  11
ATOM     10  O   UNL     1       6.247   3.792  14.426  0.00  0.00    +0.000 OA
ATOM     11  C   UNL     1       5.312   4.322  15.021  0.00  0.00    +0.000 C 
ENDBRANCH   1  11
BRANCH   2  12
ATOM     12  O   UNL     1       7.505   5.874  16.003  0.00  0.00    +0.000 OA
ATOM     13  H   UNL     1       8.203   5.188  15.888  0.00  0.00    +0.000 HD
ENDBRANCH   2  12
TORSDOF 2
ENDMDL
MODEL 7
REMARK VINA RESULT:      -5.2      4.186      5.191
REMARK  Name = 
REMARK  2 active torsions:
REMARK  status: ('A' for Active; 'I' for Inactive)
REMARK    1  A    between atoms: C_2  and  C_3
REMARK    2  A    between atoms: C_4  and  O_5
REMARK                            x       y       z     vdW  Elec       q    Type
REMARK                         _______ _______ _______ _____ _____    ______ ____
ROOT
ATOM      1  C   UNL     1       3.258   3.703  19.997  0.00  0.00    +0.000 A 
ATOM      2  C   UNL     1       4.527   3.538  19.408  0.00  0.00    +0.000 A 
ATOM      3  C   UNL     1       5.109   4.587  18.691  0.00  0.00    +0.000 A 
ATOM      4 CL   UNL     1       6.671   4.438  17.974  0.00  0.00    +0.000 Cl
ATOM      5  C   UNL     1       4.428   5.793  18.538  0.00  0.00    +0.000 A 
ATOM      6  C   UNL     1       3.161   5.956  19.104  0.00  0.00    +0.000 A 
ATOM      7 CL   UNL     1       2.378   7.478  18.844  0.00  0.00    +0.000 Cl
ATOM      8  C   UNL     1       2.568   4.919  19.843  0.00  0.00    +0.000 A 
ATOM      9 CL   UNL     1       0.988   5.141  20.528  0.00  0.00    +0.000 Cl
ENDROOT
BRANCH   1  11
ATOM     10  O   UNL     1       2.760   2.597  22.011  0.00  0.00    +0.000 OA
ATOM     11  C   UNL     1       2.677   2.592  20.786  0.00  0.00    +0.000 C 
ENDBRANCH   1  11
BRANCH   2  12
ATOM     12  O   UNL     1       5.231   2.363  19.518  0.00  0.00    +0.000 OA
ATOM     13  H   UNL     1       4.797   1.778  20.181  0.00  0.00    +0.000 HD
ENDBRANCH   2  12
TORSDOF 2
ENDMDL
MODEL 8
REMARK VINA RESULT:      -5.2      3.662      4.858
REMARK  Name = 
REMARK  2 active torsions:
REMARK  status: ('A' for Active; 'I' for Inactive)
REMARK    1  A    between atoms: C_2  and  C_3
REMARK    2  A    between atoms: C_4  and  O_5
REMARK                            x       y       z     vdW  Elec       q    Type
REMARK                         _______ _______ _______ _____ _____    ______ ____
ROOT
ATOM      1  C   UNL     1       2.753   3.752  18.315  0.00  0.00    +0.000 A 
ATOM      2  C   UNL     1       3.626   4.439  17.449  0.00  0.00    +0.000 A 
ATOM      3  C   UNL     1       3.857   5.806  17.627  0.00  0.00    +0.000 A 
ATOM      4 CL   UNL     1       4.937   6.682  16.606  0.00  0.00    +0.000 Cl
ATOM      5  C   UNL     1       3.210   6.499  18.648  0.00  0.00    +0.000 A 
ATOM      6  C   UNL     1       2.329   5.826  19.498  0.00  0.00    +0.000 A 
ATOM      7 CL   UNL     1       1.551   6.770  20.724  0.00  0.00    +0.000 Cl
ATOM      8  C   UNL     1       2.098   4.449  19.346  0.00  0.00    +0.000 A 
ATOM      9 CL   UNL     1       0.989   3.637  20.408  0.00  0.00    +0.000 Cl
ENDROOT
BRANCH   1  11
ATOM     10  O   UNL     1       3.510   1.530  18.187  0.00  0.00    +0.000 OA
ATOM     11  C   UNL     1       2.552   2.296  18.133  0.00  0.00    +0.000 C 
ENDBRANCH   1  11
BRANCH   2  12
ATOM     12  O   UNL     1       4.275   3.803  16.418  0.00  0.00    +0.000 OA
ATOM     13  H   UNL     1       4.889   3.125  16.783  0.00  0.00    +0.000 HD
ENDBRANCH   2  12
TORSDOF 2
ENDMDL
MODEL 9
REMARK VINA RESULT:      -5.1      2.923      4.270
REMARK  Name = 
REMARK  2 active torsions:
REMARK  status: ('A' for Active; 'I' for Inactive)
REMARK    1  A    between atoms: C_2  and  C_3
REMARK    2  A    between atoms: C_4  and  O_5
REMARK                            x       y       z     vdW  Elec       q    Type
REMARK                         _______ _______ _______ _____ _____    ______ ____
ROOT
ATOM      1  C   UNL     1       4.606   4.349  17.280  0.00  0.00    +0.000 A 
ATOM      2  C   UNL     1       3.791   3.277  17.697  0.00  0.00    +0.000 A 
ATOM      3  C   UNL     1       2.522   3.528  18.226  0.00  0.00    +0.000 A 
ATOM      4 CL   UNL     1       1.480   2.246  18.726  0.00  0.00    +0.000 Cl
ATOM      5  C   UNL     1       2.066   4.837  18.364  0.00  0.00    +0.000 A 
ATOM      6  C   UNL     1       2.877   5.903  17.970  0.00  0.00    +0.000 A 
ATOM      7 CL   UNL     1       2.240   7.497  18.199  0.00  0.00    +0.000 Cl
ATOM      8  C   UNL     1       4.149   5.671  17.420  0.00  0.00    +0.000 A 
ATOM      9 CL   UNL     1       5.144   7.014  16.948  0.00  0.00    +0.000 Cl
ENDROOT
BRANCH   1  11
ATOM     10  O   UNL     1       6.009   3.526  15.583  0.00  0.00    +0.000 OA
ATOM     11  C   UNL     1       5.932   4.060  16.687  0.00  0.00    +0.000 C 
ENDBRANCH   1  11
BRANCH   2  12
ATOM     12  O   UNL     1       4.202   1.971  17.596  0.00  0.00    +0.000 OA
ATOM     13  H   UNL     1       3.431   1.371  17.719  0.00  0.00    +0.000 HD
ENDBRANCH   2  12
TORSDOF 2
ENDMDL
