MODEL 1
REMARK VINA RESULT:      -6.8      0.000      0.000
REMARK  Name = 
REMARK  4 active torsions:
REMARK  status: ('A' for Active; 'I' for Inactive)
REMARK    1  A    between atoms: C_1  and  C_2
REMARK    2  A    between atoms: N_5  and  C_6
REMARK    3  A    between atoms: C_6  and  C_7
REMARK    4  A    between atoms: C_7  and  C_8
REMARK                            x       y       z     vdW  Elec       q    Type
REMARK                         _______ _______ _______ _____ _____    ______ ____
ROOT
ATOM      1  C   UNL     1       5.149   5.447  19.073  0.00  0.00    +0.000 C 
ENDROOT
BRANCH   1   6
ATOM      2  C   UNL     1       6.312   4.083  13.843  0.00  0.00    +0.000 C 
ATOM      3  C   UNL     1       6.271   4.703  15.207  0.00  0.00    +0.000 C 
ATOM      4  C   UNL     1       7.056   4.294  16.215  0.00  0.00    +0.000 C 
ATOM      5  C   UNL     1       7.020   4.852  17.599  0.00  0.00    +0.000 C 
ATOM      6  N   UNL     1       5.990   5.830  17.930  0.00  0.00    +0.000 NA
ATOM      7  C   UNL     1       5.223   6.415  16.826  0.00  0.00    +0.000 C 
ATOM      8  C   UNL     1       5.294   5.817  15.409  0.00  0.00    +0.000 C 
ENDBRANCH   1   6
BRANCH   1   9
ATOM      9  C   UNL     1       3.715   6.011  19.009  0.00  0.00    +0.000 C 
BRANCH   9  10
ATOM     10  C   UNL     1       2.677   4.928  19.199  0.00  0.00    +0.000 A 
ATOM     11  C   UNL     1       2.109   4.713  20.462  0.00  0.00    +0.000 A 
ATOM     12  C   UNL     1       1.158   3.707  20.649  0.00  0.00    +0.000 A 
ATOM     13  C   UNL     1       0.767   2.910  19.575  0.00  0.00    +0.000 A 
ATOM     14  C   UNL     1       1.327   3.115  18.315  0.00  0.00    +0.000 A 
ATOM     15  C   UNL     1       2.279   4.119  18.126  0.00  0.00    +0.000 A 
ENDBRANCH   9  10
ENDBRANCH   1   9
TORSDOF 3
ENDMDL
MODEL 2
REMARK VINA RESULT:      -6.8      0.188      1.258
REMARK  Name = 
REMARK  4 active torsions:
REMARK  status: ('A' for Active; 'I' for Inactive)
REMARK    1  A    between atoms: C_1  and  C_2
REMARK    2  A    between atoms: N_5  and  C_6
REMARK    3  A    between atoms: C_6  and  C_7
REMARK    4  A    between atoms: C_7  and  C_8
REMARK                            x       y       z     vdW  Elec       q    Type
REMARK                         _______ _______ _______ _____ _____    ______ ____
ROOT
ATOM      1  C   UNL     1       4.993   5.693  18.979  0.00  0.00    +0.000 C 
ENDROOT
BRANCH   1   6
ATOM      2  C   UNL     1       6.201   4.010  13.853  0.00  0.00    +0.000 C 
ATOM      3  C   UNL     1       6.173   4.688  15.190  0.00  0.00    +0.000 C 
ATOM      4  C   UNL     1       6.880   4.250  16.242  0.00  0.00    +0.000 C 
ATOM      5  C   UNL     1       6.849   4.866  17.601  0.00  0.00    +0.000 C 
ATOM      6  N   UNL     1       5.905   5.948  17.854  0.00  0.00    +0.000 NA
ATOM      7  C   UNL     1       5.235   6.556  16.701  0.00  0.00    +0.000 C 
ATOM      8  C   UNL     1       5.298   5.895  15.312  0.00  0.00    +0.000 C 
ENDBRANCH   1   6
BRANCH   1   9
ATOM      9  C   UNL     1       3.528   6.083  18.694  0.00  0.00    +0.000 C 
BRANCH   9  10
ATOM     10  C   UNL     1       2.571   4.968  19.051  0.00  0.00    +0.000 A 
ATOM     11  C   UNL     1       2.109   4.093  18.057  0.00  0.00    +0.000 A 
ATOM     12  C   UNL     1       1.217   3.069  18.376  0.00  0.00    +0.000 A 
ATOM     13  C   UNL     1       0.779   2.909  19.689  0.00  0.00    +0.000 A 
ATOM     14  C   UNL     1       1.231   3.774  20.684  0.00  0.00    +0.000 A 
ATOM     15  C   UNL     1       2.123   4.800  20.368  0.00  0.00    +0.000 A 
ENDBRANCH   9  10
ENDBRANCH   1   9
TORSDOF 3
ENDMDL
MODEL 3
REMARK VINA RESULT:      -6.8      2.150      5.786
REMARK  Name = 
REMARK  4 active torsions:
REMARK  status: ('A' for Active; 'I' for Inactive)
REMARK    1  A    between atoms: C_1  and  C_2
REMARK    2  A    between atoms: N_5  and  C_6
REMARK    3  A    between atoms: C_6  and  C_7
REMARK    4  A    between atoms: C_7  and  C_8
REMARK                            x       y       z     vdW  Elec       q    Type
REMARK                         _______ _______ _______ _____ _____    ______ ____
ROOT
ATOM      1  C   UNL     1       3.985   4.090  16.842  0.00  0.00    +0.000 C 
ENDROOT
BRANCH   1   6
ATOM      2  C   UNL     1       1.380   2.679  21.511  0.00  0.00    +0.000 C 
ATOM      3  C   UNL     1       1.803   2.873  20.086  0.00  0.00    +0.000 C 
ATOM      4  C   UNL     1       2.559   1.984  19.425  0.00  0.00    +0.000 C 
ATOM      5  C   UNL     1       3.040   2.155  18.022  0.00  0.00    +0.000 C 
ATOM      6  N   UNL     1       2.777   3.420  17.345  0.00  0.00    +0.000 NA
ATOM      7  C   UNL     1       1.826   4.345  17.968  0.00  0.00    +0.000 C 
ATOM      8  C   UNL     1       1.346   4.129  19.415  0.00  0.00    +0.000 C 
ENDBRANCH   1   6
BRANCH   1   9
ATOM      9  C   UNL     1       4.081   5.578  17.236  0.00  0.00    +0.000 C 
BRANCH   9  10
ATOM     10  C   UNL     1       5.455   5.934  17.756  0.00  0.00    +0.000 A 
ATOM     11  C   UNL     1       6.225   6.906  17.101  0.00  0.00    +0.000 A 
ATOM     12  C   UNL     1       7.500   7.232  17.568  0.00  0.00    +0.000 A 
ATOM     13  C   UNL     1       8.015   6.590  18.692  0.00  0.00    +0.000 A 
ATOM     14  C   UNL     1       7.259   5.622  19.349  0.00  0.00    +0.000 A 
ATOM     15  C   UNL     1       5.984   5.294  18.884  0.00  0.00    +0.000 A 
ENDBRANCH   9  10
ENDBRANCH   1   9
TORSDOF 3
ENDMDL
MODEL 4
REMARK VINA RESULT:      -6.7      2.158      5.683
REMARK  Name = 
REMARK  4 active torsions:
REMARK  status: ('A' for Active; 'I' for Inactive)
REMARK    1  A    between atoms: C_1  and  C_2
REMARK    2  A    between atoms: N_5  and  C_6
REMARK    3  A    between atoms: C_6  and  C_7
REMARK    4  A    between atoms: C_7  and  C_8
REMARK                            x       y       z     vdW  Elec       q    Type
REMARK                         _______ _______ _______ _____ _____    ______ ____
ROOT
ATOM      1  C   UNL     1       3.983   4.211  16.853  0.00  0.00    +0.000 C 
ENDROOT
BRANCH   1   6
ATOM      2  C   UNL     1       1.531   2.833  21.613  0.00  0.00    +0.000 C 
ATOM      3  C   UNL     1       2.010   2.906  20.194  0.00  0.00    +0.000 C 
ATOM      4  C   UNL     1       3.084   2.234  19.754  0.00  0.00    +0.000 C 
ATOM      5  C   UNL     1       3.622   2.310  18.364  0.00  0.00    +0.000 C 
ATOM      6  N   UNL     1       3.024   3.263  17.436  0.00  0.00    +0.000 NA
ATOM      7  C   UNL     1       1.759   3.894  17.825  0.00  0.00    +0.000 C 
ATOM      8  C   UNL     1       1.231   3.785  19.267  0.00  0.00    +0.000 C 
ENDBRANCH   1   6
BRANCH   1   9
ATOM      9  C   UNL     1       4.042   5.567  17.585  0.00  0.00    +0.000 C 
BRANCH   9  10
ATOM     10  C   UNL     1       5.461   5.955  17.935  0.00  0.00    +0.000 A 
ATOM     11  C   UNL     1       6.110   5.346  19.017  0.00  0.00    +0.000 A 
ATOM     12  C   UNL     1       7.416   5.707  19.354  0.00  0.00    +0.000 A 
ATOM     13  C   UNL     1       8.084   6.678  18.611  0.00  0.00    +0.000 A 
ATOM     14  C   UNL     1       7.447   7.291  17.534  0.00  0.00    +0.000 A 
ATOM     15  C   UNL     1       6.141   6.933  17.196  0.00  0.00    +0.000 A 
ENDBRANCH   9  10
ENDBRANCH   1   9
TORSDOF 3
ENDMDL
MODEL 5
REMARK VINA RESULT:      -6.6      1.213      1.864
REMARK  Name = 
REMARK  4 active torsions:
REMARK  status: ('A' for Active; 'I' for Inactive)
REMARK    1  A    between atoms: C_1  and  C_2
REMARK    2  A    between atoms: N_5  and  C_6
REMARK    3  A    between atoms: C_6  and  C_7
REMARK    4  A    between atoms: C_7  and  C_8
REMARK                            x       y       z     vdW  Elec       q    Type
REMARK                         _______ _______ _______ _____ _____    ______ ____
ROOT
ATOM      1  C   UNL     1       6.212   5.532  19.210  0.00  0.00    +0.000 C 
ENDROOT
BRANCH   1   6
ATOM      2  C   UNL     1       5.563   4.198  13.884  0.00  0.00    +0.000 C 
ATOM      3  C   UNL     1       6.028   4.760  15.194  0.00  0.00    +0.000 C 
ATOM      4  C   UNL     1       6.981   4.178  15.937  0.00  0.00    +0.000 C 
ATOM      5  C   UNL     1       7.444   4.677  17.266  0.00  0.00    +0.000 C 
ATOM      6  N   UNL     1       6.745   5.807  17.868  0.00  0.00    +0.000 NA
ATOM      7  C   UNL     1       5.813   6.563  17.026  0.00  0.00    +0.000 C 
ATOM      8  C   UNL     1       5.366   6.019  15.656  0.00  0.00    +0.000 C 
ENDBRANCH   1   6
BRANCH   1   9
ATOM      9  C   UNL     1       5.532   4.154  19.341  0.00  0.00    +0.000 C 
BRANCH   9  10
ATOM     10  C   UNL     1       4.134   4.161  18.767  0.00  0.00    +0.000 A 
ATOM     11  C   UNL     1       3.782   3.251  17.761  0.00  0.00    +0.000 A 
ATOM     12  C   UNL     1       2.496   3.259  17.218  0.00  0.00    +0.000 A 
ATOM     13  C   UNL     1       1.551   4.175  17.676  0.00  0.00    +0.000 A 
ATOM     14  C   UNL     1       1.891   5.084  18.676  0.00  0.00    +0.000 A 
ATOM     15  C   UNL     1       3.177   5.080  19.219  0.00  0.00    +0.000 A 
ENDBRANCH   9  10
ENDBRANCH   1   9
TORSDOF 3
ENDMDL
MODEL 6
REMARK VINA RESULT:      -6.6      1.252      1.533
REMARK  Name = 
REMARK  4 active torsions:
REMARK  status: ('A' for Active; 'I' for Inactive)
REMARK    1  A    between atoms: C_1  and  C_2
REMARK    2  A    between atoms: N_5  and  C_6
REMARK    3  A    between atoms: C_6  and  C_7
REMARK    4  A    between atoms: C_7  and  C_8
REMARK                            x       y       z     vdW  Elec       q    Type
REMARK                         _______ _______ _______ _____ _____    ______ ____
ROOT
ATOM      1  C   UNL     1       6.252   5.648  19.066  0.00  0.00    +0.000 C 
ENDROOT
BRANCH   1   6
ATOM      2  C   UNL     1       5.474   4.118  13.810  0.00  0.00    +0.000 C 
ATOM      3  C   UNL     1       5.975   4.720  15.088  0.00  0.00    +0.000 C 
ATOM      4  C   UNL     1       6.927   4.145  15.838  0.00  0.00    +0.000 C 
ATOM      5  C   UNL     1       7.426   4.684  17.137  0.00  0.00    +0.000 C 
ATOM      6  N   UNL     1       6.767   5.855  17.704  0.00  0.00    +0.000 NA
ATOM      7  C   UNL     1       5.839   6.600  16.848  0.00  0.00    +0.000 C 
ATOM      8  C   UNL     1       5.354   6.014  15.510  0.00  0.00    +0.000 C 
ENDBRANCH   1   6
BRANCH   1   9
ATOM      9  C   UNL     1       5.579   4.276  19.276  0.00  0.00    +0.000 C 
BRANCH   9  10
ATOM     10  C   UNL     1       4.182   4.241  18.701  0.00  0.00    +0.000 A 
ATOM     11  C   UNL     1       3.228   5.181  19.114  0.00  0.00    +0.000 A 
ATOM     12  C   UNL     1       1.932   5.149  18.596  0.00  0.00    +0.000 A 
ATOM     13  C   UNL     1       1.579   4.178  17.661  0.00  0.00    +0.000 A 
ATOM     14  C   UNL     1       2.520   3.238  17.244  0.00  0.00    +0.000 A 
ATOM     15  C   UNL     1       3.816   3.268  17.761  0.00  0.00    +0.000 A 
ENDBRANCH   9  10
ENDBRANCH   1   9
TORSDOF 3
ENDMDL
MODEL 7
REMARK VINA RESULT:      -6.6      1.014      1.319
REMARK  Name = 
REMARK  4 active torsions:
REMARK  status: ('A' for Active; 'I' for Inactive)
REMARK    1  A    between atoms: C_1  and  C_2
REMARK    2  A    between atoms: N_5  and  C_6
REMARK    3  A    between atoms: C_6  and  C_7
REMARK    4  A    between atoms: C_7  and  C_8
REMARK                            x       y       z     vdW  Elec       q    Type
REMARK                         _______ _______ _______ _____ _____    ______ ____
ROOT
ATOM      1  C   UNL     1       5.897   5.266  19.253  0.00  0.00    +0.000 C 
ENDROOT
BRANCH   1   6
ATOM      2  C   UNL     1       5.846   4.202  13.827  0.00  0.00    +0.000 C 
ATOM      3  C   UNL     1       6.138   4.724  15.202  0.00  0.00    +0.000 C 
ATOM      4  C   UNL     1       7.075   4.189  15.999  0.00  0.00    +0.000 C 
ATOM      5  C   UNL     1       7.370   4.646  17.389  0.00  0.00    +0.000 C 
ATOM      6  N   UNL     1       6.516   5.669  17.981  0.00  0.00    +0.000 NA
ATOM      7  C   UNL     1       5.592   6.386  17.097  0.00  0.00    +0.000 C 
ATOM      8  C   UNL     1       5.321   5.887  15.666  0.00  0.00    +0.000 C 
ENDBRANCH   1   6
BRANCH   1   9
ATOM      9  C   UNL     1       4.388   5.574  19.337  0.00  0.00    +0.000 C 
BRANCH   9  10
ATOM     10  C   UNL     1       3.549   4.391  18.908  0.00  0.00    +0.000 A 
ATOM     11  C   UNL     1       2.167   4.539  18.728  0.00  0.00    +0.000 A 
ATOM     12  C   UNL     1       1.384   3.449  18.343  0.00  0.00    +0.000 A 
ATOM     13  C   UNL     1       1.975   2.204  18.134  0.00  0.00    +0.000 A 
ATOM     14  C   UNL     1       3.348   2.048  18.312  0.00  0.00    +0.000 A 
ATOM     15  C   UNL     1       4.134   3.135  18.698  0.00  0.00    +0.000 A 
ENDBRANCH   9  10
ENDBRANCH   1   9
TORSDOF 3
ENDMDL
MODEL 8
REMARK VINA RESULT:      -6.6      1.561      2.470
REMARK  Name = 
REMARK  4 active torsions:
REMARK  status: ('A' for Active; 'I' for Inactive)
REMARK    1  A    between atoms: C_1  and  C_2
REMARK    2  A    between atoms: N_5  and  C_6
REMARK    3  A    between atoms: C_6  and  C_7
REMARK    4  A    between atoms: C_7  and  C_8
REMARK                            x       y       z     vdW  Elec       q    Type
REMARK                         _______ _______ _______ _____ _____    ______ ____
ROOT
ATOM      1  C   UNL     1       4.331   3.973  16.774  0.00  0.00    +0.000 C 
ENDROOT
BRANCH   1   6
ATOM      2  C   UNL     1       8.013   7.940  17.902  0.00  0.00    +0.000 C 
ATOM      3  C   UNL     1       7.322   6.648  17.583  0.00  0.00    +0.000 C 
ATOM      4  C   UNL     1       7.149   6.208  16.328  0.00  0.00    +0.000 C 
ATOM      5  C   UNL     1       6.430   4.953  15.960  0.00  0.00    +0.000 C 
ATOM      6  N   UNL     1       5.763   4.197  17.015  0.00  0.00    +0.000 NA
ATOM      7  C   UNL     1       6.061   4.554  18.405  0.00  0.00    +0.000 C 
ATOM      8  C   UNL     1       6.813   5.854  18.744  0.00  0.00    +0.000 C 
ENDBRANCH   1   6
BRANCH   1   9
ATOM      9  C   UNL     1       3.414   5.007  17.459  0.00  0.00    +0.000 C 
BRANCH   9  10
ATOM     10  C   UNL     1       2.444   4.351  18.415  0.00  0.00    +0.000 A 
ATOM     11  C   UNL     1       2.167   4.945  19.654  0.00  0.00    +0.000 A 
ATOM     12  C   UNL     1       1.281   4.340  20.547  0.00  0.00    +0.000 A 
ATOM     13  C   UNL     1       0.664   3.136  20.210  0.00  0.00    +0.000 A 
ATOM     14  C   UNL     1       0.934   2.537  18.981  0.00  0.00    +0.000 A 
ATOM     15  C   UNL     1       1.821   3.139  18.086  0.00  0.00    +0.000 A 
ENDBRANCH   9  10
ENDBRANCH   1   9
TORSDOF 3
ENDMDL
MODEL 9
REMARK VINA RESULT:      -6.6      2.047      5.937
REMARK  Name = 
REMARK  4 active torsions:
REMARK  status: ('A' for Active; 'I' for Inactive)
REMARK    1  A    between atoms: C_1  and  C_2
REMARK    2  A    between atoms: N_5  and  C_6
REMARK    3  A    between atoms: C_6  and  C_7
REMARK    4  A    between atoms: C_7  and  C_8
REMARK                            x       y       z     vdW  Elec       q    Type
REMARK                         _______ _______ _______ _____ _____    ______ ____
ROOT
ATOM      1  C   UNL     1       3.347   5.669  17.459  0.00  0.00    +0.000 C 
ENDROOT
BRANCH   1   6
ATOM      2  C   UNL     1       1.462   2.598  21.653  0.00  0.00    +0.000 C 
ATOM      3  C   UNL     1       1.622   3.564  20.517  0.00  0.00    +0.000 C 
ATOM      4  C   UNL     1       1.330   3.246  19.247  0.00  0.00    +0.000 C 
ATOM      5  C   UNL     1       1.514   4.158  18.080  0.00  0.00    +0.000 C 
ATOM      6  N   UNL     1       2.160   5.447  18.298  0.00  0.00    +0.000 NA
ATOM      7  C   UNL     1       2.346   5.894  19.682  0.00  0.00    +0.000 C 
ATOM      8  C   UNL     1       2.138   4.925  20.860  0.00  0.00    +0.000 C 
ENDBRANCH   1   6
BRANCH   1   9
ATOM      9  C   UNL     1       4.541   4.761  17.815  0.00  0.00    +0.000 C 
BRANCH   9  10
ATOM     10  C   UNL     1       5.805   5.559  18.042  0.00  0.00    +0.000 A 
ATOM     11  C   UNL     1       6.675   5.217  19.087  0.00  0.00    +0.000 A 
ATOM     12  C   UNL     1       7.838   5.956  19.310  0.00  0.00    +0.000 A 
ATOM     13  C   UNL     1       8.143   7.041  18.490  0.00  0.00    +0.000 A 
ATOM     14  C   UNL     1       7.284   7.389  17.449  0.00  0.00    +0.000 A 
ATOM     15  C   UNL     1       6.119   6.653  17.225  0.00  0.00    +0.000 A 
ENDBRANCH   9  10
ENDBRANCH   1   9
TORSDOF 3
ENDMDL
