MODEL 1
REMARK VINA RESULT:      -9.2      0.000      0.000
REMARK  Name = 
REMARK  2 active torsions:
REMARK  status: ('A' for Active; 'I' for Inactive)
REMARK    1  A    between atoms: C_12  and  C_13
REMARK    2  A    between atoms: C_18  and  C_19
REMARK                            x       y       z     vdW  Elec       q    Type
REMARK                         _______ _______ _______ _____ _____    ______ ____
ROOT
ATOM      1  O   UNL     1       0.843  10.863  18.257  0.00  0.00    +0.000 OA
ATOM      2  C   UNL     1       0.862  10.081  19.181  0.00  0.00    +0.000 C 
ATOM      3  C   UNL     1       0.260  10.273  20.529  0.00  0.00    +0.000 A 
ATOM      4  C   UNL     1      -0.443  11.346  21.036  0.00  0.00    +0.000 A 
ATOM      5  C   UNL     1      -0.916  11.227  22.345  0.00  0.00    +0.000 A 
ATOM      6  C   UNL     1      -0.682  10.058  23.095  0.00  0.00    +0.000 A 
ATOM      7  C   UNL     1       0.050   8.990  22.563  0.00  0.00    +0.000 A 
ATOM      8  C   UNL     1       0.534   9.113  21.274  0.00  0.00    +0.000 A 
ATOM      9  C   UNL     1       1.327   8.233  20.461  0.00  0.00    +0.000 A 
ATOM     10  N   UNL     1       1.892   7.085  20.834  0.00  0.00    +0.000 NA
ATOM     11  N   UNL     1       2.673   6.431  19.900  0.00  0.00    +0.000 NA
ATOM     12  C   UNL     1       2.810   6.890  18.622  0.00  0.00    +0.000 A 
ATOM     13  C   UNL     1       2.232   8.100  18.238  0.00  0.00    +0.000 A 
ATOM     14  C   UNL     1       1.513   8.764  19.201  0.00  0.00    +0.000 A 
ENDROOT
BRANCH  12  15
ATOM     15  C   UNL     1       3.663   6.084  17.721  0.00  0.00    +0.000 A 
ATOM     16  C   UNL     1       4.820   6.693  17.171  0.00  0.00    +0.000 A 
ATOM     17  C   UNL     1       5.707   6.010  16.338  0.00  0.00    +0.000 A 
ATOM     18  C   UNL     1       5.479   4.678  16.039  0.00  0.00    +0.000 A 
ATOM     19  C   UNL     1       4.353   4.047  16.557  0.00  0.00    +0.000 A 
ATOM     20  C   UNL     1       3.419   4.730  17.379  0.00  0.00    +0.000 A 
BRANCH  20  21
ATOM     21  C   UNL     1       2.218   3.898  17.797  0.00  0.00    +0.000 C 
ATOM     22  F   UNL     1       2.042   3.673  19.121  0.00  0.00    +0.000 F 
ATOM     23  F   UNL     1       1.052   4.502  17.405  0.00  0.00    +0.000 F 
ATOM     24  F   UNL     1       2.203   2.679  17.186  0.00  0.00    +0.000 F 
ENDBRANCH  20  21
ENDBRANCH  12  15
TORSDOF 2
ENDMDL
MODEL 2
REMARK VINA RESULT:      -8.6      2.424      3.107
REMARK  Name = 
REMARK  2 active torsions:
REMARK  status: ('A' for Active; 'I' for Inactive)
REMARK    1  A    between atoms: C_12  and  C_13
REMARK    2  A    between atoms: C_18  and  C_19
REMARK                            x       y       z     vdW  Elec       q    Type
REMARK                         _______ _______ _______ _____ _____    ______ ____
ROOT
ATOM      1  O   UNL     1       2.107  10.083  17.444  0.00  0.00    +0.000 OA
ATOM      2  C   UNL     1       1.998   9.240  18.307  0.00  0.00    +0.000 C 
ATOM      3  C   UNL     1       1.192   9.336  19.555  0.00  0.00    +0.000 A 
ATOM      4  C   UNL     1       0.398  10.366  20.015  0.00  0.00    +0.000 A 
ATOM      5  C   UNL     1      -0.269  10.154  21.225  0.00  0.00    +0.000 A 
ATOM      6  C   UNL     1      -0.131   8.939  21.923  0.00  0.00    +0.000 A 
ATOM      7  C   UNL     1       0.695   7.915  21.442  0.00  0.00    +0.000 A 
ATOM      8  C   UNL     1       1.369   8.129  20.255  0.00  0.00    +0.000 A 
ATOM      9  C   UNL     1       2.295   7.313  19.519  0.00  0.00    +0.000 A 
ATOM     10  N   UNL     1       2.817   6.148  19.900  0.00  0.00    +0.000 NA
ATOM     11  N   UNL     1       3.745   5.566  19.058  0.00  0.00    +0.000 NA
ATOM     12  C   UNL     1       4.069   6.112  17.850  0.00  0.00    +0.000 A 
ATOM     13  C   UNL     1       3.535   7.340  17.460  0.00  0.00    +0.000 A 
ATOM     14  C   UNL     1       2.663   7.930  18.341  0.00  0.00    +0.000 A 
ENDROOT
BRANCH  12  15
ATOM     15  C   UNL     1       5.066   5.375  17.041  0.00  0.00    +0.000 A 
ATOM     16  C   UNL     1       4.623   4.729  15.858  0.00  0.00    +0.000 A 
ATOM     17  C   UNL     1       5.488   4.037  15.008  0.00  0.00    +0.000 A 
ATOM     18  C   UNL     1       6.839   3.984  15.302  0.00  0.00    +0.000 A 
ATOM     19  C   UNL     1       7.311   4.603  16.454  0.00  0.00    +0.000 A 
ATOM     20  C   UNL     1       6.447   5.284  17.350  0.00  0.00    +0.000 A 
BRANCH  20  21
ATOM     21  C   UNL     1       7.129   5.841  18.588  0.00  0.00    +0.000 C 
ATOM     22  F   UNL     1       6.493   5.695  19.774  0.00  0.00    +0.000 F 
ATOM     23  F   UNL     1       8.342   5.236  18.785  0.00  0.00    +0.000 F 
ATOM     24  F   UNL     1       7.418   7.168  18.459  0.00  0.00    +0.000 F 
ENDBRANCH  20  21
ENDBRANCH  12  15
TORSDOF 2
ENDMDL
MODEL 3
REMARK VINA RESULT:      -8.5      1.610      2.259
REMARK  Name = 
REMARK  2 active torsions:
REMARK  status: ('A' for Active; 'I' for Inactive)
REMARK    1  A    between atoms: C_12  and  C_13
REMARK    2  A    between atoms: C_18  and  C_19
REMARK                            x       y       z     vdW  Elec       q    Type
REMARK                         _______ _______ _______ _____ _____    ______ ____
ROOT
ATOM      1  O   UNL     1       0.989   8.012  21.946  0.00  0.00    +0.000 OA
ATOM      2  C   UNL     1       0.982   8.667  20.929  0.00  0.00    +0.000 C 
ATOM      3  C   UNL     1       0.213   9.917  20.674  0.00  0.00    +0.000 A 
ATOM      4  C   UNL     1      -0.642  10.611  21.505  0.00  0.00    +0.000 A 
ATOM      5  C   UNL     1      -1.204  11.783  20.993  0.00  0.00    +0.000 A 
ATOM      6  C   UNL     1      -0.895  12.224  19.692  0.00  0.00    +0.000 A 
ATOM      7  C   UNL     1      -0.037  11.492  18.862  0.00  0.00    +0.000 A 
ATOM      8  C   UNL     1       0.506  10.323  19.360  0.00  0.00    +0.000 A 
ATOM      9  C   UNL     1       1.381   9.346  18.772  0.00  0.00    +0.000 A 
ATOM     10  N   UNL     1       1.796   9.299  17.507  0.00  0.00    +0.000 NA
ATOM     11  N   UNL     1       2.586   8.226  17.141  0.00  0.00    +0.000 NA
ATOM     12  C   UNL     1       2.992   7.285  18.042  0.00  0.00    +0.000 A 
ATOM     13  C   UNL     1       2.543   7.326  19.362  0.00  0.00    +0.000 A 
ATOM     14  C   UNL     1       1.708   8.367  19.687  0.00  0.00    +0.000 A 
ENDROOT
BRANCH  12  15
ATOM     15  C   UNL     1       3.849   6.198  17.518  0.00  0.00    +0.000 A 
ATOM     16  C   UNL     1       5.156   6.529  17.077  0.00  0.00    +0.000 A 
ATOM     17  C   UNL     1       6.054   5.573  16.598  0.00  0.00    +0.000 A 
ATOM     18  C   UNL     1       5.682   4.241  16.561  0.00  0.00    +0.000 A 
ATOM     19  C   UNL     1       4.407   3.878  16.981  0.00  0.00    +0.000 A 
ATOM     20  C   UNL     1       3.465   4.835  17.442  0.00  0.00    +0.000 A 
BRANCH  20  21
ATOM     21  C   UNL     1       2.103   4.263  17.797  0.00  0.00    +0.000 C 
ATOM     22  F   UNL     1       1.015   4.842  17.236  0.00  0.00    +0.000 F 
ATOM     23  F   UNL     1       2.015   2.950  17.414  0.00  0.00    +0.000 F 
ATOM     24  F   UNL     1       1.890   4.250  19.144  0.00  0.00    +0.000 F 
ENDBRANCH  20  21
ENDBRANCH  12  15
TORSDOF 2
ENDMDL
MODEL 4
REMARK VINA RESULT:      -8.3      3.985      7.917
REMARK  Name = 
REMARK  2 active torsions:
REMARK  status: ('A' for Active; 'I' for Inactive)
REMARK    1  A    between atoms: C_12  and  C_13
REMARK    2  A    between atoms: C_18  and  C_19
REMARK                            x       y       z     vdW  Elec       q    Type
REMARK                         _______ _______ _______ _____ _____    ______ ____
ROOT
ATOM      1  O   UNL     1       7.653   6.211  16.561  0.00  0.00    +0.000 OA
ATOM      2  C   UNL     1       6.937   5.425  15.983  0.00  0.00    +0.000 C 
ATOM      3  C   UNL     1       7.010   5.035  14.548  0.00  0.00    +0.000 A 
ATOM      4  C   UNL     1       7.880   5.455  13.563  0.00  0.00    +0.000 A 
ATOM      5  C   UNL     1       7.721   4.884  12.297  0.00  0.00    +0.000 A 
ATOM      6  C   UNL     1       6.719   3.924  12.058  0.00  0.00    +0.000 A 
ATOM      7  C   UNL     1       5.837   3.528  13.071  0.00  0.00    +0.000 A 
ATOM      8  C   UNL     1       5.981   4.104  14.319  0.00  0.00    +0.000 A 
ATOM      9  C   UNL     1       5.241   3.942  15.539  0.00  0.00    +0.000 A 
ATOM     10  N   UNL     1       4.121   3.241  15.713  0.00  0.00    +0.000 NA
ATOM     11  N   UNL     1       3.539   3.278  16.965  0.00  0.00    +0.000 NA
ATOM     12  C   UNL     1       4.113   3.942  18.011  0.00  0.00    +0.000 A 
ATOM     13  C   UNL     1       5.276   4.689  17.824  0.00  0.00    +0.000 A 
ATOM     14  C   UNL     1       5.802   4.688  16.555  0.00  0.00    +0.000 A 
ENDROOT
BRANCH  12  15
ATOM     15  C   UNL     1       3.390   3.887  19.302  0.00  0.00    +0.000 A 
ATOM     16  C   UNL     1       3.423   2.674  20.036  0.00  0.00    +0.000 A 
ATOM     17  C   UNL     1       2.803   2.529  21.278  0.00  0.00    +0.000 A 
ATOM     18  C   UNL     1       2.142   3.605  21.844  0.00  0.00    +0.000 A 
ATOM     19  C   UNL     1       2.087   4.810  21.153  0.00  0.00    +0.000 A 
ATOM     20  C   UNL     1       2.681   4.972  19.874  0.00  0.00    +0.000 A 
BRANCH  20  21
ATOM     21  C   UNL     1       2.462   6.337  19.243  0.00  0.00    +0.000 C 
ATOM     22  F   UNL     1       3.560   7.063  18.924  0.00  0.00    +0.000 F 
ATOM     23  F   UNL     1       1.786   6.219  18.057  0.00  0.00    +0.000 F 
ATOM     24  F   UNL     1       1.673   7.137  20.017  0.00  0.00    +0.000 F 
ENDBRANCH  20  21
ENDBRANCH  12  15
TORSDOF 2
ENDMDL
MODEL 5
REMARK VINA RESULT:      -8.2      0.663      1.024
REMARK  Name = 
REMARK  2 active torsions:
REMARK  status: ('A' for Active; 'I' for Inactive)
REMARK    1  A    between atoms: C_12  and  C_13
REMARK    2  A    between atoms: C_18  and  C_19
REMARK                            x       y       z     vdW  Elec       q    Type
REMARK                         _______ _______ _______ _____ _____    ______ ____
ROOT
ATOM      1  O   UNL     1      -0.061  10.974  18.408  0.00  0.00    +0.000 OA
ATOM      2  C   UNL     1       0.154  10.276  19.373  0.00  0.00    +0.000 C 
ATOM      3  C   UNL     1      -0.334  10.496  20.763  0.00  0.00    +0.000 A 
ATOM      4  C   UNL     1      -1.124  11.507  21.271  0.00  0.00    +0.000 A 
ATOM      5  C   UNL     1      -1.446  11.432  22.628  0.00  0.00    +0.000 A 
ATOM      6  C   UNL     1      -0.984  10.365  23.423  0.00  0.00    +0.000 A 
ATOM      7  C   UNL     1      -0.169   9.361  22.887  0.00  0.00    +0.000 A 
ATOM      8  C   UNL     1       0.166   9.442  21.548  0.00  0.00    +0.000 A 
ATOM      9  C   UNL     1       0.987   8.610  20.714  0.00  0.00    +0.000 A 
ATOM     10  N   UNL     1       1.736   7.577  21.100  0.00  0.00    +0.000 NA
ATOM     11  N   UNL     1       2.503   6.956  20.132  0.00  0.00    +0.000 NA
ATOM     12  C   UNL     1       2.451   7.327  18.819  0.00  0.00    +0.000 A 
ATOM     13  C   UNL     1       1.680   8.419  18.420  0.00  0.00    +0.000 A 
ATOM     14  C   UNL     1       0.975   9.059  19.410  0.00  0.00    +0.000 A 
ENDROOT
BRANCH  12  15
ATOM     15  C   UNL     1       3.314   6.567  17.886  0.00  0.00    +0.000 A 
ATOM     16  C   UNL     1       4.318   7.275  17.176  0.00  0.00    +0.000 A 
ATOM     17  C   UNL     1       5.204   6.647  16.299  0.00  0.00    +0.000 A 
ATOM     18  C   UNL     1       5.131   5.277  16.115  0.00  0.00    +0.000 A 
ATOM     19  C   UNL     1       4.158   4.550  16.792  0.00  0.00    +0.000 A 
ATOM     20  C   UNL     1       3.225   5.170  17.663  0.00  0.00    +0.000 A 
BRANCH  20  21
ATOM     21  C   UNL     1       2.195   4.227  18.263  0.00  0.00    +0.000 C 
ATOM     22  F   UNL     1       0.895   4.435  17.945  0.00  0.00    +0.000 F 
ATOM     23  F   UNL     1       2.432   2.937  17.866  0.00  0.00    +0.000 F 
ATOM     24  F   UNL     1       2.265   4.194  19.625  0.00  0.00    +0.000 F 
ENDBRANCH  20  21
ENDBRANCH  12  15
TORSDOF 2
ENDMDL
MODEL 6
REMARK VINA RESULT:      -8.0      2.998      7.330
REMARK  Name = 
REMARK  2 active torsions:
REMARK  status: ('A' for Active; 'I' for Inactive)
REMARK    1  A    between atoms: C_12  and  C_13
REMARK    2  A    between atoms: C_18  and  C_19
REMARK                            x       y       z     vdW  Elec       q    Type
REMARK                         _______ _______ _______ _____ _____    ______ ____
ROOT
ATOM      1  O   UNL     1       3.273   4.150  19.728  0.00  0.00    +0.000 OA
ATOM      2  C   UNL     1       3.445   5.050  18.937  0.00  0.00    +0.000 C 
ATOM      3  C   UNL     1       4.319   5.028  17.732  0.00  0.00    +0.000 A 
ATOM      4  C   UNL     1       5.113   4.015  17.237  0.00  0.00    +0.000 A 
ATOM      5  C   UNL     1       5.807   4.281  16.053  0.00  0.00    +0.000 A 
ATOM      6  C   UNL     1       5.685   5.526  15.407  0.00  0.00    +0.000 A 
ATOM      7  C   UNL     1       4.885   6.544  15.940  0.00  0.00    +0.000 A 
ATOM      8  C   UNL     1       4.212   6.290  17.120  0.00  0.00    +0.000 A 
ATOM      9  C   UNL     1       3.351   7.110  17.927  0.00  0.00    +0.000 A 
ATOM     10  N   UNL     1       3.086   8.405  17.759  0.00  0.00    +0.000 NA
ATOM     11  N   UNL     1       2.277   9.012  18.700  0.00  0.00    +0.000 NA
ATOM     12  C   UNL     1       1.705   8.313  19.723  0.00  0.00    +0.000 A 
ATOM     13  C   UNL     1       1.997   6.961  19.907  0.00  0.00    +0.000 A 
ATOM     14  C   UNL     1       2.853   6.394  18.996  0.00  0.00    +0.000 A 
ENDROOT
BRANCH  12  15
ATOM     15  C   UNL     1       0.848   9.085  20.650  0.00  0.00    +0.000 A 
ATOM     16  C   UNL     1       0.961   8.824  22.040  0.00  0.00    +0.000 A 
ATOM     17  C   UNL     1       0.222   9.520  22.999  0.00  0.00    +0.000 A 
ATOM     18  C   UNL     1      -0.645  10.522  22.601  0.00  0.00    +0.000 A 
ATOM     19  C   UNL     1      -0.786  10.804  21.247  0.00  0.00    +0.000 A 
ATOM     20  C   UNL     1      -0.071  10.088  20.251  0.00  0.00    +0.000 A 
BRANCH  20  21
ATOM     21  C   UNL     1      -0.401  10.489  18.823  0.00  0.00    +0.000 C 
ATOM     22  F   UNL     1      -0.500   9.502  17.902  0.00  0.00    +0.000 F 
ATOM     23  F   UNL     1      -1.616  11.119  18.767  0.00  0.00    +0.000 F 
ATOM     24  F   UNL     1       0.488  11.399  18.330  0.00  0.00    +0.000 F 
ENDBRANCH  20  21
ENDBRANCH  12  15
TORSDOF 2
ENDMDL
MODEL 7
REMARK VINA RESULT:      -7.9      2.050      2.814
REMARK  Name = 
REMARK  2 active torsions:
REMARK  status: ('A' for Active; 'I' for Inactive)
REMARK    1  A    between atoms: C_12  and  C_13
REMARK    2  A    between atoms: C_18  and  C_19
REMARK                            x       y       z     vdW  Elec       q    Type
REMARK                         _______ _______ _______ _____ _____    ______ ____
ROOT
ATOM      1  O   UNL     1       2.162   9.821  17.216  0.00  0.00    +0.000 OA
ATOM      2  C   UNL     1       1.795   9.490  18.321  0.00  0.00    +0.000 C 
ATOM      3  C   UNL     1       1.262  10.377  19.391  0.00  0.00    +0.000 A 
ATOM      4  C   UNL     1       1.058  11.741  19.385  0.00  0.00    +0.000 A 
ATOM      5  C   UNL     1       0.510  12.301  20.542  0.00  0.00    +0.000 A 
ATOM      6  C   UNL     1       0.182  11.495  21.650  0.00  0.00    +0.000 A 
ATOM      7  C   UNL     1       0.415  10.115  21.636  0.00  0.00    +0.000 A 
ATOM      8  C   UNL     1       0.974   9.561  20.500  0.00  0.00    +0.000 A 
ATOM      9  C   UNL     1       1.357   8.214  20.179  0.00  0.00    +0.000 A 
ATOM     10  N   UNL     1       1.357   7.163  20.998  0.00  0.00    +0.000 NA
ATOM     11  N   UNL     1       1.832   5.968  20.492  0.00  0.00    +0.000 NA
ATOM     12  C   UNL     1       2.220   5.836  19.191  0.00  0.00    +0.000 A 
ATOM     13  C   UNL     1       2.236   6.941  18.340  0.00  0.00    +0.000 A 
ATOM     14  C   UNL     1       1.819   8.132  18.882  0.00  0.00    +0.000 A 
ENDROOT
BRANCH  12  15
ATOM     15  C   UNL     1       2.694   4.496  18.778  0.00  0.00    +0.000 A 
ATOM     16  C   UNL     1       1.744   3.445  18.700  0.00  0.00    +0.000 A 
ATOM     17  C   UNL     1       2.081   2.154  18.289  0.00  0.00    +0.000 A 
ATOM     18  C   UNL     1       3.384   1.871  17.919  0.00  0.00    +0.000 A 
ATOM     19  C   UNL     1       4.344   2.875  17.984  0.00  0.00    +0.000 A 
ATOM     20  C   UNL     1       4.033   4.186  18.430  0.00  0.00    +0.000 A 
BRANCH  20  21
ATOM     21  C   UNL     1       5.221   5.130  18.498  0.00  0.00    +0.000 C 
ATOM     22  F   UNL     1       5.206   6.216  17.689  0.00  0.00    +0.000 F 
ATOM     23  F   UNL     1       5.350   5.656  19.757  0.00  0.00    +0.000 F 
ATOM     24  F   UNL     1       6.400   4.485  18.266  0.00  0.00    +0.000 F 
ENDBRANCH  20  21
ENDBRANCH  12  15
TORSDOF 2
ENDMDL
MODEL 8
REMARK VINA RESULT:      -7.8      2.458      3.321
REMARK  Name = 
REMARK  2 active torsions:
REMARK  status: ('A' for Active; 'I' for Inactive)
REMARK    1  A    between atoms: C_12  and  C_13
REMARK    2  A    between atoms: C_18  and  C_19
REMARK                            x       y       z     vdW  Elec       q    Type
REMARK                         _______ _______ _______ _____ _____    ______ ____
ROOT
ATOM      1  O   UNL     1       0.886   8.854  22.209  0.00  0.00    +0.000 OA
ATOM      2  C   UNL     1       1.025   9.355  21.116  0.00  0.00    +0.000 C 
ATOM      3  C   UNL     1       0.651  10.738  20.711  0.00  0.00    +0.000 A 
ATOM      4  C   UNL     1       0.081  11.751  21.454  0.00  0.00    +0.000 A 
ATOM      5  C   UNL     1      -0.131  12.968  20.801  0.00  0.00    +0.000 A 
ATOM      6  C   UNL     1       0.233  13.137  19.452  0.00  0.00    +0.000 A 
ATOM      7  C   UNL     1       0.795  12.087  18.715  0.00  0.00    +0.000 A 
ATOM      8  C   UNL     1       0.989  10.877  19.353  0.00  0.00    +0.000 A 
ATOM      9  C   UNL     1       1.506   9.620  18.887  0.00  0.00    +0.000 A 
ATOM     10  N   UNL     1       1.828   9.299  17.635  0.00  0.00    +0.000 NA
ATOM     11  N   UNL     1       2.246   8.003  17.402  0.00  0.00    +0.000 NA
ATOM     12  C   UNL     1       2.396   7.098  18.412  0.00  0.00    +0.000 A 
ATOM     13  C   UNL     1       2.042   7.430  19.720  0.00  0.00    +0.000 A 
ATOM     14  C   UNL     1       1.570   8.704  19.917  0.00  0.00    +0.000 A 
ENDROOT
BRANCH  12  15
ATOM     15  C   UNL     1       2.865   5.749  18.024  0.00  0.00    +0.000 A 
ATOM     16  C   UNL     1       2.075   4.632  18.398  0.00  0.00    +0.000 A 
ATOM     17  C   UNL     1       2.411   3.322  18.052  0.00  0.00    +0.000 A 
ATOM     18  C   UNL     1       3.545   3.082  17.297  0.00  0.00    +0.000 A 
ATOM     19  C   UNL     1       4.347   4.152  16.913  0.00  0.00    +0.000 A 
ATOM     20  C   UNL     1       4.044   5.489  17.281  0.00  0.00    +0.000 A 
BRANCH  20  21
ATOM     21  C   UNL     1       5.068   6.517  16.829  0.00  0.00    +0.000 C 
ATOM     22  F   UNL     1       5.368   7.521  17.686  0.00  0.00    +0.000 F 
ATOM     23  F   UNL     1       6.276   5.920  16.581  0.00  0.00    +0.000 F 
ATOM     24  F   UNL     1       4.717   7.101  15.647  0.00  0.00    +0.000 F 
ENDBRANCH  20  21
ENDBRANCH  12  15
TORSDOF 2
ENDMDL
MODEL 9
REMARK VINA RESULT:      -7.8      2.390      3.325
REMARK  Name = 
REMARK  2 active torsions:
REMARK  status: ('A' for Active; 'I' for Inactive)
REMARK    1  A    between atoms: C_12  and  C_13
REMARK    2  A    between atoms: C_18  and  C_19
REMARK                            x       y       z     vdW  Elec       q    Type
REMARK                         _______ _______ _______ _____ _____    ______ ____
ROOT
ATOM      1  O   UNL     1       0.800   8.658  22.300  0.00  0.00    +0.000 OA
ATOM      2  C   UNL     1       1.033   9.050  21.179  0.00  0.00    +0.000 C 
ATOM      3  C   UNL     1       0.814  10.423  20.646  0.00  0.00    +0.000 A 
ATOM      4  C   UNL     1       0.315  11.544  21.277  0.00  0.00    +0.000 A 
ATOM      5  C   UNL     1       0.251  12.716  20.519  0.00  0.00    +0.000 A 
ATOM      6  C   UNL     1       0.685  12.736  19.180  0.00  0.00    +0.000 A 
ATOM      7  C   UNL     1       1.172  11.580  18.558  0.00  0.00    +0.000 A 
ATOM      8  C   UNL     1       1.219  10.415  19.300  0.00  0.00    +0.000 A 
ATOM      9  C   UNL     1       1.629   9.080  18.962  0.00  0.00    +0.000 A 
ATOM     10  N   UNL     1       1.970   8.626  17.756  0.00  0.00    +0.000 NA
ATOM     11  N   UNL     1       2.267   7.281  17.649  0.00  0.00    +0.000 NA
ATOM     12  C   UNL     1       2.287   6.454  18.734  0.00  0.00    +0.000 A 
ATOM     13  C   UNL     1       1.913   6.927  19.992  0.00  0.00    +0.000 A 
ATOM     14  C   UNL     1       1.561   8.252  20.063  0.00  0.00    +0.000 A 
ENDROOT
BRANCH  12  15
ATOM     15  C   UNL     1       2.637   5.039  18.479  0.00  0.00    +0.000 A 
ATOM     16  C   UNL     1       1.581   4.097  18.367  0.00  0.00    +0.000 A 
ATOM     17  C   UNL     1       1.803   2.747  18.093  0.00  0.00    +0.000 A 
ATOM     18  C   UNL     1       3.094   2.290  17.900  0.00  0.00    +0.000 A 
ATOM     19  C   UNL     1       4.156   3.182  18.005  0.00  0.00    +0.000 A 
ATOM     20  C   UNL     1       3.958   4.553  18.314  0.00  0.00    +0.000 A 
BRANCH  20  21
ATOM     21  C   UNL     1       5.238   5.361  18.452  0.00  0.00    +0.000 C 
ATOM     22  F   UNL     1       5.356   6.480  17.699  0.00  0.00    +0.000 F 
ATOM     23  F   UNL     1       5.391   5.808  19.738  0.00  0.00    +0.000 F 
ATOM     24  F   UNL     1       6.348   4.606  18.210  0.00  0.00    +0.000 F 
ENDBRANCH  20  21
ENDBRANCH  12  15
TORSDOF 2
ENDMDL
