MODEL 1
REMARK VINA RESULT:      -6.4      0.000      0.000
REMARK  Name = 
REMARK  18 active torsions:
REMARK  status: ('A' for Active; 'I' for Inactive)
REMARK    1  A    between atoms: C_1  and  C_2
REMARK    2  A    between atoms: N_4  and  C_5
REMARK    3  A    between atoms: C_6  and  N_7
REMARK    4  A    between atoms: C_9  and  O_10
REMARK    5  A    between atoms: C_9  and  C_22
REMARK    6  A    between atoms: O_10  and  C_11
REMARK    7  A    between atoms: C_11  and  C_12
REMARK    8  A    between atoms: C_14  and  O_15
REMARK    9  A    between atoms: C_16  and  O_17
REMARK   10  A    between atoms: C_18  and  O_19
REMARK   11  A    between atoms: C_20  and  O_21
REMARK   12  A    between atoms: C_22  and  O_24
REMARK   13  A    between atoms: C_26  and  C_27
REMARK   14  A    between atoms: C_27  and  O_28
REMARK   15  A    between atoms: C_27  and  C_29
REMARK   16  A    between atoms: C_29  and  O_30
REMARK   17  A    between atoms: C_29  and  C_31
REMARK   18  A    between atoms: C_31  and  O_32
REMARK                            x       y       z     vdW  Elec       q    Type
REMARK                         _______ _______ _______ _____ _____    ______ ____
ROOT
ATOM      1  C   UNL     1      -0.882  10.898  20.773  0.00  0.00    +0.000 C 
ATOM      2  C   UNL     1       0.599  10.691  21.197  0.00  0.00    +0.000 C 
ATOM      3  C   UNL     1       1.232   9.609  20.332  0.00  0.00    +0.000 C 
ATOM      4  C   UNL     1       0.995   9.790  18.825  0.00  0.00    +0.000 C 
ATOM      5  O   UNL     1      -0.387  10.039  18.523  0.00  0.00    +0.000 OA
ATOM      6  C   UNL     1      -0.963  11.149  19.244  0.00  0.00    +0.000 C 
ENDROOT
BRANCH   1  10
ATOM      7  C   UNL     1      -2.396  13.121  23.448  0.00  0.00    +0.000 C 
ATOM      8  C   UNL     1      -1.851  11.855  22.843  0.00  0.00    +0.000 C 
ATOM      9  O   UNL     1      -1.789  10.799  23.460  0.00  0.00    +0.000 OA
ATOM     10  N   UNL     1      -1.440  12.008  21.539  0.00  0.00    +0.000 N 
ATOM     11  H   UNL     1      -1.224  12.941  21.200  0.00  0.00    +0.000 HD
ENDBRANCH   1  10
BRANCH   2  12
ATOM     12  N   UNL     1       1.358  11.955  21.211  0.00  0.00    +0.000 NA
ATOM     13  H   UNL     1       0.947  12.646  21.848  0.00  0.00    +0.000 HD
ATOM     14  H   UNL     1       1.229  12.423  20.307  0.00  0.00    +0.000 HD
ENDBRANCH   2  12
BRANCH   4  15
ATOM     15  C   UNL     1       1.890  10.913  18.206  0.00  0.00    +0.000 C 
ATOM     16  O   UNL     1       1.946  12.082  18.605  0.00  0.00    +0.000 OA
BRANCH  15  17
ATOM     17  O   UNL     1       2.557  10.500  17.106  0.00  0.00    +0.000 OA
ATOM     18  H   UNL     1       3.434  10.946  17.056  0.00  0.00    +0.000 HD
ENDBRANCH  15  17
ENDBRANCH   4  15
BRANCH   6  19
ATOM     19  C   UNL     1      -2.421  11.398  18.738  0.00  0.00    +0.000 C 
BRANCH  19  20
ATOM     20  O   UNL     1      -2.995  12.627  19.221  0.00  0.00    +0.000 OA
ATOM     21  H   UNL     1      -3.424  12.451  20.078  0.00  0.00    +0.000 HD
ENDBRANCH  19  20
BRANCH  19  22
ATOM     22  C   UNL     1      -2.536  11.469  17.198  0.00  0.00    +0.000 C 
BRANCH  22  23
ATOM     23  O   UNL     1      -1.761  10.398  16.613  0.00  0.00    +0.000 OA
ATOM     24  H   UNL     1      -1.395   9.891  17.367  0.00  0.00    +0.000 HD
ENDBRANCH  22  23
BRANCH  22  25
ATOM     25  C   UNL     1      -3.976  11.280  16.701  0.00  0.00    +0.000 C 
BRANCH  25  26
ATOM     26  O   UNL     1      -4.760  12.428  17.017  0.00  0.00    +0.000 OA
ATOM     27  H   UNL     1      -4.892  12.398  17.985  0.00  0.00    +0.000 HD
ENDBRANCH  25  26
ENDBRANCH  22  25
ENDBRANCH  19  22
ENDBRANCH   6  19
BRANCH   4  28
ATOM     28  O   UNL     1       1.452   8.633  18.084  0.00  0.00    +0.000 OA
BRANCH  28  29
ATOM     29  C   UNL     1       2.217   7.697  18.839  0.00  0.00    +0.000 C 
BRANCH  29  30
ATOM     30  C   UNL     1       2.576   6.462  17.999  0.00  0.00    +0.000 C 
ATOM     31  O   UNL     1       1.842   5.274  18.335  0.00  0.00    +0.000 OA
ATOM     32  C   UNL     1       2.113   4.695  19.616  0.00  0.00    +0.000 C 
ATOM     33  C   UNL     1       3.616   4.374  19.774  0.00  0.00    +0.000 C 
ATOM     34  C   UNL     1       4.472   5.601  19.417  0.00  0.00    +0.000 C 
ATOM     35  C   UNL     1       4.087   6.191  18.051  0.00  0.00    +0.000 C 
BRANCH  35  36
ATOM     36  O   UNL     1       4.480   5.292  17.002  0.00  0.00    +0.000 OA
ATOM     37  H   UNL     1       3.846   4.554  16.970  0.00  0.00    +0.000 HD
ENDBRANCH  35  36
BRANCH  34  38
ATOM     38  O   UNL     1       5.861   5.263  19.429  0.00  0.00    +0.000 OA
ATOM     39  H   UNL     1       5.961   4.573  18.744  0.00  0.00    +0.000 HD
ENDBRANCH  34  38
BRANCH  33  40
ATOM     40  O   UNL     1       3.992   3.263  18.935  0.00  0.00    +0.000 OA
ATOM     41  H   UNL     1       4.953   3.127  19.024  0.00  0.00    +0.000 HD
ENDBRANCH  33  40
BRANCH  32  42
ATOM     42  O   UNL     1       1.562   5.488  20.650  0.00  0.00    +0.000 OA
ATOM     43  H   UNL     1       0.598   5.520  20.566  0.00  0.00    +0.000 HD
ENDBRANCH  32  42
ENDBRANCH  29  30
ENDBRANCH  28  29
ENDBRANCH   4  28
TORSDOF 17
ENDMDL
MODEL 2
REMARK VINA RESULT:      -6.0      3.410      7.338
REMARK  Name = 
REMARK  18 active torsions:
REMARK  status: ('A' for Active; 'I' for Inactive)
REMARK    1  A    between atoms: C_1  and  C_2
REMARK    2  A    between atoms: N_4  and  C_5
REMARK    3  A    between atoms: C_6  and  N_7
REMARK    4  A    between atoms: C_9  and  O_10
REMARK    5  A    between atoms: C_9  and  C_22
REMARK    6  A    between atoms: O_10  and  C_11
REMARK    7  A    between atoms: C_11  and  C_12
REMARK    8  A    between atoms: C_14  and  O_15
REMARK    9  A    between atoms: C_16  and  O_17
REMARK   10  A    between atoms: C_18  and  O_19
REMARK   11  A    between atoms: C_20  and  O_21
REMARK   12  A    between atoms: C_22  and  O_24
REMARK   13  A    between atoms: C_26  and  C_27
REMARK   14  A    between atoms: C_27  and  O_28
REMARK   15  A    between atoms: C_27  and  C_29
REMARK   16  A    between atoms: C_29  and  O_30
REMARK   17  A    between atoms: C_29  and  C_31
REMARK   18  A    between atoms: C_31  and  O_32
REMARK                            x       y       z     vdW  Elec       q    Type
REMARK                         _______ _______ _______ _____ _____    ______ ____
ROOT
ATOM      1  C   UNL     1      -1.472  12.681  21.786  0.00  0.00    +0.000 C 
ATOM      2  C   UNL     1      -2.072  13.495  20.605  0.00  0.00    +0.000 C 
ATOM      3  C   UNL     1      -0.970  13.845  19.613  0.00  0.00    +0.000 C 
ATOM      4  C   UNL     1      -0.082  12.657  19.214  0.00  0.00    +0.000 C 
ATOM      5  O   UNL     1       0.380  11.921  20.358  0.00  0.00    +0.000 OA
ATOM      6  C   UNL     1      -0.670  11.471  21.240  0.00  0.00    +0.000 C 
ENDROOT
BRANCH   1  10
ATOM      7  C   UNL     1      -4.114  12.440  24.497  0.00  0.00    +0.000 C 
ATOM      8  C   UNL     1      -2.989  13.056  23.709  0.00  0.00    +0.000 C 
ATOM      9  O   UNL     1      -2.512  14.151  23.979  0.00  0.00    +0.000 OA
ATOM     10  N   UNL     1      -2.556  12.265  22.669  0.00  0.00    +0.000 N 
ATOM     11  H   UNL     1      -3.177  11.546  22.310  0.00  0.00    +0.000 HD
ENDBRANCH   1  10
BRANCH   2  12
ATOM     12  N   UNL     1      -3.227  12.815  19.989  0.00  0.00    +0.000 NA
ATOM     13  H   UNL     1      -4.120  13.182  20.332  0.00  0.00    +0.000 HD
ATOM     14  H   UNL     1      -3.264  11.852  20.341  0.00  0.00    +0.000 HD
ENDBRANCH   2  12
BRANCH   4  15
ATOM     15  C   UNL     1      -0.786  11.692  18.205  0.00  0.00    +0.000 C 
ATOM     16  O   UNL     1      -0.604  10.471  18.139  0.00  0.00    +0.000 OA
BRANCH  15  17
ATOM     17  O   UNL     1      -1.575  12.345  17.324  0.00  0.00    +0.000 OA
ATOM     18  H   UNL     1      -2.351  11.786  17.088  0.00  0.00    +0.000 HD
ENDBRANCH  15  17
ENDBRANCH   4  15
BRANCH   6  19
ATOM     19  C   UNL     1      -0.056  10.579  22.368  0.00  0.00    +0.000 C 
BRANCH  19  20
ATOM     20  O   UNL     1      -1.008   9.685  22.975  0.00  0.00    +0.000 OA
ATOM     21  H   UNL     1      -1.473   9.203  22.269  0.00  0.00    +0.000 HD
ENDBRANCH  19  20
BRANCH  19  22
ATOM     22  C   UNL     1       1.101   9.678  21.881  0.00  0.00    +0.000 C 
BRANCH  22  23
ATOM     23  O   UNL     1       1.970   9.375  22.997  0.00  0.00    +0.000 OA
ATOM     24  H   UNL     1       2.668   8.788  22.638  0.00  0.00    +0.000 HD
ENDBRANCH  22  23
BRANCH  22  25
ATOM     25  C   UNL     1       0.613   8.328  21.336  0.00  0.00    +0.000 C 
BRANCH  25  26
ATOM     26  O   UNL     1       1.722   7.463  21.102  0.00  0.00    +0.000 OA
ATOM     27  H   UNL     1       2.517   7.992  21.311  0.00  0.00    +0.000 HD
ENDBRANCH  25  26
ENDBRANCH  22  25
ENDBRANCH  19  22
ENDBRANCH   6  19
BRANCH   4  28
ATOM     28  O   UNL     1       1.053  13.096  18.430  0.00  0.00    +0.000 OA
BRANCH  28  29
ATOM     29  C   UNL     1       2.132  13.645  19.183  0.00  0.00    +0.000 C 
BRANCH  29  30
ATOM     30  C   UNL     1       3.045  14.511  18.302  0.00  0.00    +0.000 C 
ATOM     31  O   UNL     1       4.424  14.527  18.702  0.00  0.00    +0.000 OA
ATOM     32  C   UNL     1       4.722  15.171  19.945  0.00  0.00    +0.000 C 
ATOM     33  C   UNL     1       4.219  16.632  19.949  0.00  0.00    +0.000 C 
ATOM     34  C   UNL     1       2.745  16.698  19.516  0.00  0.00    +0.000 C 
ATOM     35  C   UNL     1       2.499  15.943  18.200  0.00  0.00    +0.000 C 
BRANCH  35  36
ATOM     36  O   UNL     1       3.116  16.646  17.111  0.00  0.00    +0.000 OA
ATOM     37  H   UNL     1       2.480  16.704  16.377  0.00  0.00    +0.000 HD
ENDBRANCH  35  36
BRANCH  34  38
ATOM     38  O   UNL     1       2.322  18.057  19.385  0.00  0.00    +0.000 OA
ATOM     39  H   UNL     1       1.993  18.307  20.271  0.00  0.00    +0.000 HD
ENDBRANCH  34  38
BRANCH  33  40
ATOM     40  O   UNL     1       5.017  17.449  19.069  0.00  0.00    +0.000 OA
ATOM     41  H   UNL     1       5.844  17.675  19.531  0.00  0.00    +0.000 HD
ENDBRANCH  33  40
BRANCH  32  42
ATOM     42  O   UNL     1       4.278  14.387  21.036  0.00  0.00    +0.000 OA
ATOM     43  H   UNL     1       3.520  14.810  21.463  0.00  0.00    +0.000 HD
ENDBRANCH  32  42
ENDBRANCH  29  30
ENDBRANCH  28  29
ENDBRANCH   4  28
TORSDOF 17
ENDMDL
MODEL 3
REMARK VINA RESULT:      -6.0      4.424      8.382
REMARK  Name = 
REMARK  18 active torsions:
REMARK  status: ('A' for Active; 'I' for Inactive)
REMARK    1  A    between atoms: C_1  and  C_2
REMARK    2  A    between atoms: N_4  and  C_5
REMARK    3  A    between atoms: C_6  and  N_7
REMARK    4  A    between atoms: C_9  and  O_10
REMARK    5  A    between atoms: C_9  and  C_22
REMARK    6  A    between atoms: O_10  and  C_11
REMARK    7  A    between atoms: C_11  and  C_12
REMARK    8  A    between atoms: C_14  and  O_15
REMARK    9  A    between atoms: C_16  and  O_17
REMARK   10  A    between atoms: C_18  and  O_19
REMARK   11  A    between atoms: C_20  and  O_21
REMARK   12  A    between atoms: C_22  and  O_24
REMARK   13  A    between atoms: C_26  and  C_27
REMARK   14  A    between atoms: C_27  and  O_28
REMARK   15  A    between atoms: C_27  and  C_29
REMARK   16  A    between atoms: C_29  and  O_30
REMARK   17  A    between atoms: C_29  and  C_31
REMARK   18  A    between atoms: C_31  and  O_32
REMARK                            x       y       z     vdW  Elec       q    Type
REMARK                         _______ _______ _______ _____ _____    ______ ____
ROOT
ATOM      1  C   UNL     1      -0.079  13.643  19.978  0.00  0.00    +0.000 C 
ATOM      2  C   UNL     1       0.622  13.566  21.363  0.00  0.00    +0.000 C 
ATOM      3  C   UNL     1      -0.369  13.074  22.410  0.00  0.00    +0.000 C 
ATOM      4  C   UNL     1      -1.153  11.820  21.995  0.00  0.00    +0.000 C 
ATOM      5  O   UNL     1      -1.716  11.947  20.680  0.00  0.00    +0.000 OA
ATOM      6  C   UNL     1      -0.759  12.287  19.654  0.00  0.00    +0.000 C 
ENDROOT
BRANCH   1  10
ATOM      7  C   UNL     1       2.405  15.464  17.764  0.00  0.00    +0.000 C 
ATOM      8  C   UNL     1       1.398  15.295  18.870  0.00  0.00    +0.000 C 
ATOM      9  O   UNL     1       1.052  16.218  19.598  0.00  0.00    +0.000 OA
ATOM     10  N   UNL     1       0.910  14.013  18.970  0.00  0.00    +0.000 N 
ATOM     11  H   UNL     1       1.449  13.252  18.569  0.00  0.00    +0.000 HD
ENDBRANCH   1  10
BRANCH   2  12
ATOM     12  N   UNL     1       1.869  12.780  21.314  0.00  0.00    +0.000 NA
ATOM     13  H   UNL     1       2.701  13.377  21.265  0.00  0.00    +0.000 HD
ATOM     14  H   UNL     1       1.918  12.302  20.407  0.00  0.00    +0.000 HD
ENDBRANCH   2  12
BRANCH   4  15
ATOM     15  C   UNL     1      -0.295  10.516  22.087  0.00  0.00    +0.000 C 
ATOM     16  O   UNL     1       0.641  10.332  22.874  0.00  0.00    +0.000 OA
BRANCH  15  17
ATOM     17  O   UNL     1      -0.623   9.608  21.143  0.00  0.00    +0.000 OA
ATOM     18  H   UNL     1       0.149   9.436  20.557  0.00  0.00    +0.000 HD
ENDBRANCH  15  17
ENDBRANCH   4  15
BRANCH   6  19
ATOM     19  C   UNL     1      -1.464  12.269  18.258  0.00  0.00    +0.000 C 
BRANCH  19  20
ATOM     20  O   UNL     1      -0.809  13.091  17.273  0.00  0.00    +0.000 OA
ATOM     21  H   UNL     1      -0.655  12.553  16.476  0.00  0.00    +0.000 HD
ENDBRANCH  19  20
BRANCH  19  22
ATOM     22  C   UNL     1      -1.550  10.861  17.628  0.00  0.00    +0.000 C 
BRANCH  22  23
ATOM     23  O   UNL     1      -1.889   9.900  18.653  0.00  0.00    +0.000 OA
ATOM     24  H   UNL     1      -2.841   9.705  18.531  0.00  0.00    +0.000 HD
ENDBRANCH  22  23
BRANCH  22  25
ATOM     25  C   UNL     1      -2.647  10.755  16.559  0.00  0.00    +0.000 C 
BRANCH  25  26
ATOM     26  O   UNL     1      -3.535  11.866  16.654  0.00  0.00    +0.000 OA
ATOM     27  H   UNL     1      -3.276  12.473  15.934  0.00  0.00    +0.000 HD
ENDBRANCH  25  26
ENDBRANCH  22  25
ENDBRANCH  19  22
ENDBRANCH   6  19
BRANCH   4  28
ATOM     28  O   UNL     1      -2.204  11.526  22.946  0.00  0.00    +0.000 OA
BRANCH  28  29
ATOM     29  C   UNL     1      -2.916  12.662  23.430  0.00  0.00    +0.000 C 
BRANCH  29  30
ATOM     30  C   UNL     1      -4.435  12.445  23.351  0.00  0.00    +0.000 C 
ATOM     31  O   UNL     1      -4.975  12.462  22.021  0.00  0.00    +0.000 OA
ATOM     32  C   UNL     1      -4.946  13.718  21.335  0.00  0.00    +0.000 C 
ATOM     33  C   UNL     1      -5.673  14.812  22.147  0.00  0.00    +0.000 C 
ATOM     34  C   UNL     1      -5.155  14.846  23.594  0.00  0.00    +0.000 C 
ATOM     35  C   UNL     1      -5.174  13.453  24.244  0.00  0.00    +0.000 C 
BRANCH  35  36
ATOM     36  O   UNL     1      -6.529  13.038  24.468  0.00  0.00    +0.000 OA
ATOM     37  H   UNL     1      -6.521  12.198  24.960  0.00  0.00    +0.000 HD
ENDBRANCH  35  36
BRANCH  34  38
ATOM     38  O   UNL     1      -5.922  15.761  24.380  0.00  0.00    +0.000 OA
ATOM     39  H   UNL     1      -6.839  15.672  24.052  0.00  0.00    +0.000 HD
ENDBRANCH  34  38
BRANCH  33  40
ATOM     40  O   UNL     1      -7.097  14.585  22.150  0.00  0.00    +0.000 OA
ATOM     41  H   UNL     1      -7.252  13.631  22.269  0.00  0.00    +0.000 HD
ENDBRANCH  33  40
BRANCH  32  42
ATOM     42  O   UNL     1      -3.626  14.044  20.945  0.00  0.00    +0.000 OA
ATOM     43  H   UNL     1      -3.626  14.857  20.419  0.00  0.00    +0.000 HD
ENDBRANCH  32  42
ENDBRANCH  29  30
ENDBRANCH  28  29
ENDBRANCH   4  28
TORSDOF 17
ENDMDL
MODEL 4
REMARK VINA RESULT:      -5.9      4.584      8.661
REMARK  Name = 
REMARK  18 active torsions:
REMARK  status: ('A' for Active; 'I' for Inactive)
REMARK    1  A    between atoms: C_1  and  C_2
REMARK    2  A    between atoms: N_4  and  C_5
REMARK    3  A    between atoms: C_6  and  N_7
REMARK    4  A    between atoms: C_9  and  O_10
REMARK    5  A    between atoms: C_9  and  C_22
REMARK    6  A    between atoms: O_10  and  C_11
REMARK    7  A    between atoms: C_11  and  C_12
REMARK    8  A    between atoms: C_14  and  O_15
REMARK    9  A    between atoms: C_16  and  O_17
REMARK   10  A    between atoms: C_18  and  O_19
REMARK   11  A    between atoms: C_20  and  O_21
REMARK   12  A    between atoms: C_22  and  O_24
REMARK   13  A    between atoms: C_26  and  C_27
REMARK   14  A    between atoms: C_27  and  O_28
REMARK   15  A    between atoms: C_27  and  C_29
REMARK   16  A    between atoms: C_29  and  O_30
REMARK   17  A    between atoms: C_29  and  C_31
REMARK   18  A    between atoms: C_31  and  O_32
REMARK                            x       y       z     vdW  Elec       q    Type
REMARK                         _______ _______ _______ _____ _____    ______ ____
ROOT
ATOM      1  C   UNL     1      -0.233  13.994  20.181  0.00  0.00    +0.000 C 
ATOM      2  C   UNL     1       0.485  13.816  21.548  0.00  0.00    +0.000 C 
ATOM      3  C   UNL     1      -0.502  13.284  22.578  0.00  0.00    +0.000 C 
ATOM      4  C   UNL     1      -1.321  12.076  22.099  0.00  0.00    +0.000 C 
ATOM      5  O   UNL     1      -1.899  12.296  20.803  0.00  0.00    +0.000 OA
ATOM      6  C   UNL     1      -0.949  12.676  19.785  0.00  0.00    +0.000 C 
ENDROOT
BRANCH   1  10
ATOM      7  C   UNL     1       2.169  15.920  17.964  0.00  0.00    +0.000 C 
ATOM      8  C   UNL     1       1.151  15.713  19.053  0.00  0.00    +0.000 C 
ATOM      9  O   UNL     1       0.725  16.630  19.746  0.00  0.00    +0.000 OA
ATOM     10  N   UNL     1       0.750  14.403  19.183  0.00  0.00    +0.000 N 
ATOM     11  H   UNL     1       1.350  13.670  18.817  0.00  0.00    +0.000 HD
ENDBRANCH   1  10
BRANCH   2  12
ATOM     12  N   UNL     1       1.712  13.007  21.433  0.00  0.00    +0.000 NA
ATOM     13  H   UNL     1       1.792  12.315  22.185  0.00  0.00    +0.000 HD
ATOM     14  H   UNL     1       2.519  13.608  21.635  0.00  0.00    +0.000 HD
ENDBRANCH   2  12
BRANCH   4  15
ATOM     15  C   UNL     1      -0.493  10.750  22.099  0.00  0.00    +0.000 C 
ATOM     16  O   UNL     1      -0.354   9.996  21.129  0.00  0.00    +0.000 OA
BRANCH  15  17
ATOM     17  O   UNL     1       0.006  10.446  23.317  0.00  0.00    +0.000 OA
ATOM     18  H   UNL     1      -0.688  10.567  24.006  0.00  0.00    +0.000 HD
ENDBRANCH  15  17
ENDBRANCH   4  15
BRANCH   6  19
ATOM     19  C   UNL     1      -1.674  12.761  18.402  0.00  0.00    +0.000 C 
BRANCH  19  20
ATOM     20  O   UNL     1      -0.771  12.778  17.281  0.00  0.00    +0.000 OA
ATOM     21  H   UNL     1      -1.194  12.313  16.537  0.00  0.00    +0.000 HD
ENDBRANCH  19  20
BRANCH  19  22
ATOM     22  C   UNL     1      -2.636  11.581  18.137  0.00  0.00    +0.000 C 
BRANCH  22  23
ATOM     23  O   UNL     1      -3.986  12.086  18.018  0.00  0.00    +0.000 OA
ATOM     24  H   UNL     1      -4.513  11.594  18.682  0.00  0.00    +0.000 HD
ENDBRANCH  22  23
BRANCH  22  25
ATOM     25  C   UNL     1      -2.332  10.852  16.821  0.00  0.00    +0.000 C 
BRANCH  25  26
ATOM     26  O   UNL     1      -2.892  11.566  15.722  0.00  0.00    +0.000 OA
ATOM     27  H   UNL     1      -3.239  12.399  16.098  0.00  0.00    +0.000 HD
ENDBRANCH  25  26
ENDBRANCH  22  25
ENDBRANCH  19  22
ENDBRANCH   6  19
BRANCH   4  28
ATOM     28  O   UNL     1      -2.366  11.747  23.046  0.00  0.00    +0.000 OA
BRANCH  28  29
ATOM     29  C   UNL     1      -3.642  12.317  22.760  0.00  0.00    +0.000 C 
BRANCH  29  30
ATOM     30  C   UNL     1      -4.227  13.025  23.991  0.00  0.00    +0.000 C 
ATOM     31  O   UNL     1      -5.501  12.522  24.423  0.00  0.00    +0.000 OA
ATOM     32  C   UNL     1      -6.610  12.753  23.547  0.00  0.00    +0.000 C 
ATOM     33  C   UNL     1      -6.780  14.260  23.252  0.00  0.00    +0.000 C 
ATOM     34  C   UNL     1      -5.447  14.875  22.794  0.00  0.00    +0.000 C 
ATOM     35  C   UNL     1      -4.299  14.542  23.761  0.00  0.00    +0.000 C 
BRANCH  35  36
ATOM     36  O   UNL     1      -4.488  15.237  25.002  0.00  0.00    +0.000 OA
ATOM     37  H   UNL     1      -4.690  16.170  24.810  0.00  0.00    +0.000 HD
ENDBRANCH  35  36
BRANCH  34  38
ATOM     38  O   UNL     1      -5.572  16.293  22.656  0.00  0.00    +0.000 OA
ATOM     39  H   UNL     1      -5.570  16.455  21.692  0.00  0.00    +0.000 HD
ENDBRANCH  34  38
BRANCH  33  40
ATOM     40  O   UNL     1      -7.258  14.959  24.419  0.00  0.00    +0.000 OA
ATOM     41  H   UNL     1      -6.736  15.775  24.520  0.00  0.00    +0.000 HD
ENDBRANCH  33  40
BRANCH  32  42
ATOM     42  O   UNL     1      -6.524  11.928  22.401  0.00  0.00    +0.000 OA
ATOM     43  H   UNL     1      -5.725  11.383  22.443  0.00  0.00    +0.000 HD
ENDBRANCH  32  42
ENDBRANCH  29  30
ENDBRANCH  28  29
ENDBRANCH   4  28
TORSDOF 17
ENDMDL
MODEL 5
REMARK VINA RESULT:      -5.9      5.192      9.482
REMARK  Name = 
REMARK  18 active torsions:
REMARK  status: ('A' for Active; 'I' for Inactive)
REMARK    1  A    between atoms: C_1  and  C_2
REMARK    2  A    between atoms: N_4  and  C_5
REMARK    3  A    between atoms: C_6  and  N_7
REMARK    4  A    between atoms: C_9  and  O_10
REMARK    5  A    between atoms: C_9  and  C_22
REMARK    6  A    between atoms: O_10  and  C_11
REMARK    7  A    between atoms: C_11  and  C_12
REMARK    8  A    between atoms: C_14  and  O_15
REMARK    9  A    between atoms: C_16  and  O_17
REMARK   10  A    between atoms: C_18  and  O_19
REMARK   11  A    between atoms: C_20  and  O_21
REMARK   12  A    between atoms: C_22  and  O_24
REMARK   13  A    between atoms: C_26  and  C_27
REMARK   14  A    between atoms: C_27  and  O_28
REMARK   15  A    between atoms: C_27  and  C_29
REMARK   16  A    between atoms: C_29  and  O_30
REMARK   17  A    between atoms: C_29  and  C_31
REMARK   18  A    between atoms: C_31  and  O_32
REMARK                            x       y       z     vdW  Elec       q    Type
REMARK                         _______ _______ _______ _____ _____    ______ ____
ROOT
ATOM      1  C   UNL     1      -4.369  10.938  17.596  0.00  0.00    +0.000 C 
ATOM      2  C   UNL     1      -5.876  11.236  17.827  0.00  0.00    +0.000 C 
ATOM      3  C   UNL     1      -6.156  11.330  19.321  0.00  0.00    +0.000 C 
ATOM      4  C   UNL     1      -5.178  12.233  20.088  0.00  0.00    +0.000 C 
ATOM      5  O   UNL     1      -3.809  11.936  19.773  0.00  0.00    +0.000 OA
ATOM      6  C   UNL     1      -3.503  11.972  18.363  0.00  0.00    +0.000 C 
ENDROOT
BRANCH   1  10
ATOM      7  C   UNL     1      -3.140  10.219  14.080  0.00  0.00    +0.000 C 
ATOM      8  C   UNL     1      -3.286  10.020  15.565  0.00  0.00    +0.000 C 
ATOM      9  O   UNL     1      -2.728   9.113  16.170  0.00  0.00    +0.000 OA
ATOM     10  N   UNL     1      -4.099  10.956  16.162  0.00  0.00    +0.000 N 
ATOM     11  H   UNL     1      -4.764  11.465  15.587  0.00  0.00    +0.000 HD
ENDBRANCH   1  10
BRANCH   2  12
ATOM     12  N   UNL     1      -6.336  12.411  17.065  0.00  0.00    +0.000 NA
ATOM     13  H   UNL     1      -5.640  12.726  16.381  0.00  0.00    +0.000 HD
ATOM     14  H   UNL     1      -6.366  13.219  17.698  0.00  0.00    +0.000 HD
ENDBRANCH   2  12
BRANCH   4  15
ATOM     15  C   UNL     1      -5.462  13.754  19.864  0.00  0.00    +0.000 C 
ATOM     16  O   UNL     1      -6.516  14.226  19.420  0.00  0.00    +0.000 OA
BRANCH  15  17
ATOM     17  O   UNL     1      -4.389  14.530  20.129  0.00  0.00    +0.000 OA
ATOM     18  H   UNL     1      -4.505  15.419  19.722  0.00  0.00    +0.000 HD
ENDBRANCH  15  17
ENDBRANCH   4  15
BRANCH   6  19
ATOM     19  C   UNL     1      -1.967  11.761  18.158  0.00  0.00    +0.000 C 
BRANCH  19  20
ATOM     20  O   UNL     1      -1.424  12.519  17.062  0.00  0.00    +0.000 OA
ATOM     21  H   UNL     1      -0.882  11.925  16.513  0.00  0.00    +0.000 HD
ENDBRANCH  19  20
BRANCH  19  22
ATOM     22  C   UNL     1      -1.121  12.156  19.390  0.00  0.00    +0.000 C 
BRANCH  22  23
ATOM     23  O   UNL     1      -1.031  11.027  20.288  0.00  0.00    +0.000 OA
ATOM     24  H   UNL     1      -0.147  11.089  20.706  0.00  0.00    +0.000 HD
ENDBRANCH  22  23
BRANCH  22  25
ATOM     25  C   UNL     1       0.323  12.529  19.023  0.00  0.00    +0.000 C 
BRANCH  25  26
ATOM     26  O   UNL     1       0.652  13.808  19.559  0.00  0.00    +0.000 OA
ATOM     27  H   UNL     1      -0.179  14.324  19.540  0.00  0.00    +0.000 HD
ENDBRANCH  25  26
ENDBRANCH  22  25
ENDBRANCH  19  22
ENDBRANCH   6  19
BRANCH   4  28
ATOM     28  O   UNL     1      -5.381  12.123  21.518  0.00  0.00    +0.000 OA
BRANCH  28  29
ATOM     29  C   UNL     1      -6.396  12.971  22.050  0.00  0.00    +0.000 C 
BRANCH  29  30
ATOM     30  C   UNL     1      -6.181  13.228  23.549  0.00  0.00    +0.000 C 
ATOM     31  O   UNL     1      -6.577  14.534  23.997  0.00  0.00    +0.000 OA
ATOM     32  C   UNL     1      -5.800  15.637  23.519  0.00  0.00    +0.000 C 
ATOM     33  C   UNL     1      -4.307  15.458  23.871  0.00  0.00    +0.000 C 
ATOM     34  C   UNL     1      -3.810  14.071  23.431  0.00  0.00    +0.000 C 
ATOM     35  C   UNL     1      -4.723  12.946  23.943  0.00  0.00    +0.000 C 
BRANCH  35  36
ATOM     36  O   UNL     1      -4.595  12.823  25.368  0.00  0.00    +0.000 OA
ATOM     37  H   UNL     1      -4.030  13.546  25.694  0.00  0.00    +0.000 HD
ENDBRANCH  35  36
BRANCH  34  38
ATOM     38  O   UNL     1      -2.470  13.854  23.879  0.00  0.00    +0.000 OA
ATOM     39  H   UNL     1      -2.348  12.885  23.858  0.00  0.00    +0.000 HD
ENDBRANCH  34  38
BRANCH  33  40
ATOM     40  O   UNL     1      -4.091  15.621  25.287  0.00  0.00    +0.000 OA
ATOM     41  H   UNL     1      -4.961  15.671  25.723  0.00  0.00    +0.000 HD
ENDBRANCH  33  40
BRANCH  32  42
ATOM     42  O   UNL     1      -6.065  15.881  22.151  0.00  0.00    +0.000 OA
ATOM     43  H   UNL     1      -6.992  15.686  21.952  0.00  0.00    +0.000 HD
ENDBRANCH  32  42
ENDBRANCH  29  30
ENDBRANCH  28  29
ENDBRANCH   4  28
TORSDOF 17
ENDMDL
MODEL 6
REMARK VINA RESULT:      -5.9      3.496      7.985
REMARK  Name = 
REMARK  18 active torsions:
REMARK  status: ('A' for Active; 'I' for Inactive)
REMARK    1  A    between atoms: C_1  and  C_2
REMARK    2  A    between atoms: N_4  and  C_5
REMARK    3  A    between atoms: C_6  and  N_7
REMARK    4  A    between atoms: C_9  and  O_10
REMARK    5  A    between atoms: C_9  and  C_22
REMARK    6  A    between atoms: O_10  and  C_11
REMARK    7  A    between atoms: C_11  and  C_12
REMARK    8  A    between atoms: C_14  and  O_15
REMARK    9  A    between atoms: C_16  and  O_17
REMARK   10  A    between atoms: C_18  and  O_19
REMARK   11  A    between atoms: C_20  and  O_21
REMARK   12  A    between atoms: C_22  and  O_24
REMARK   13  A    between atoms: C_26  and  C_27
REMARK   14  A    between atoms: C_27  and  O_28
REMARK   15  A    between atoms: C_27  and  C_29
REMARK   16  A    between atoms: C_29  and  O_30
REMARK   17  A    between atoms: C_29  and  C_31
REMARK   18  A    between atoms: C_31  and  O_32
REMARK                            x       y       z     vdW  Elec       q    Type
REMARK                         _______ _______ _______ _____ _____    ______ ____
ROOT
ATOM      1  C   UNL     1       0.684  10.613  19.604  0.00  0.00    +0.000 C 
ATOM      2  C   UNL     1       1.190  10.986  21.025  0.00  0.00    +0.000 C 
ATOM      3  C   UNL     1       0.740  12.398  21.374  0.00  0.00    +0.000 C 
ATOM      4  C   UNL     1      -0.749  12.667  21.111  0.00  0.00    +0.000 C 
ATOM      5  O   UNL     1      -1.151  12.238  19.801  0.00  0.00    +0.000 OA
ATOM      6  C   UNL     1      -0.845  10.858  19.507  0.00  0.00    +0.000 C 
ENDROOT
BRANCH   1  10
ATOM      7  C   UNL     1       2.016   7.383  18.126  0.00  0.00    +0.000 C 
ATOM      8  C   UNL     1       1.769   8.864  18.223  0.00  0.00    +0.000 C 
ATOM      9  O   UNL     1       2.184   9.661  17.390  0.00  0.00    +0.000 OA
ATOM     10  N   UNL     1       1.033   9.222  19.329  0.00  0.00    +0.000 N 
ATOM     11  H   UNL     1       0.996   8.586  20.119  0.00  0.00    +0.000 HD
ENDBRANCH   1  10
BRANCH   2  12
ATOM     12  N   UNL     1       0.812   9.978  22.034  0.00  0.00    +0.000 NA
ATOM     13  H   UNL     1       1.625   9.469  22.396  0.00  0.00    +0.000 HD
ATOM     14  H   UNL     1       0.302   9.222  21.564  0.00  0.00    +0.000 HD
ENDBRANCH   2  12
BRANCH   4  15
ATOM     15  C   UNL     1      -1.676  12.024  22.194  0.00  0.00    +0.000 C 
ATOM     16  O   UNL     1      -2.903  11.901  22.101  0.00  0.00    +0.000 OA
BRANCH  15  17
ATOM     17  O   UNL     1      -1.007  11.678  23.315  0.00  0.00    +0.000 OA
ATOM     18  H   UNL     1      -0.037  11.772  23.172  0.00  0.00    +0.000 HD
ENDBRANCH  15  17
ENDBRANCH   4  15
BRANCH   6  19
ATOM     19  C   UNL     1      -1.442  10.478  18.112  0.00  0.00    +0.000 C 
BRANCH  19  20
ATOM     20  O   UNL     1      -2.422   9.425  18.175  0.00  0.00    +0.000 OA
ATOM     21  H   UNL     1      -2.909   9.505  19.014  0.00  0.00    +0.000 HD
ENDBRANCH  19  20
BRANCH  19  22
ATOM     22  C   UNL     1      -2.149  11.655  17.403  0.00  0.00    +0.000 C 
BRANCH  22  23
ATOM     23  O   UNL     1      -1.172  12.667  17.071  0.00  0.00    +0.000 OA
ATOM     24  H   UNL     1      -0.297  12.244  17.195  0.00  0.00    +0.000 HD
ENDBRANCH  22  23
BRANCH  22  25
ATOM     25  C   UNL     1      -2.806  11.241  16.079  0.00  0.00    +0.000 C 
BRANCH  25  26
ATOM     26  O   UNL     1      -4.204  11.035  16.267  0.00  0.00    +0.000 OA
ATOM     27  H   UNL     1      -4.294  10.624  17.149  0.00  0.00    +0.000 HD
ENDBRANCH  25  26
ENDBRANCH  22  25
ENDBRANCH  19  22
ENDBRANCH   6  19
BRANCH   4  28
ATOM     28  O   UNL     1      -1.062  14.070  21.279  0.00  0.00    +0.000 OA
BRANCH  28  29
ATOM     29  C   UNL     1       0.068  14.927  21.426  0.00  0.00    +0.000 C 
BRANCH  29  30
ATOM     30  C   UNL     1      -0.285  16.382  21.080  0.00  0.00    +0.000 C 
ATOM     31  O   UNL     1      -1.126  16.536  19.927  0.00  0.00    +0.000 OA
ATOM     32  C   UNL     1      -0.548  16.194  18.662  0.00  0.00    +0.000 C 
ATOM     33  C   UNL     1       0.745  17.000  18.407  0.00  0.00    +0.000 C 
ATOM     34  C   UNL     1       1.696  16.893  19.610  0.00  0.00    +0.000 C 
ATOM     35  C   UNL     1       0.988  17.229  20.933  0.00  0.00    +0.000 C 
BRANCH  35  36
ATOM     36  O   UNL     1       0.676  18.629  20.978  0.00  0.00    +0.000 OA
ATOM     37  H   UNL     1       0.408  18.860  21.885  0.00  0.00    +0.000 HD
ENDBRANCH  35  36
BRANCH  34  38
ATOM     38  O   UNL     1       2.828  17.748  19.432  0.00  0.00    +0.000 OA
ATOM     39  H   UNL     1       2.467  18.570  19.046  0.00  0.00    +0.000 HD
ENDBRANCH  34  38
BRANCH  33  40
ATOM     40  O   UNL     1       0.443  18.386  18.154  0.00  0.00    +0.000 OA
ATOM     41  H   UNL     1      -0.526  18.491  18.154  0.00  0.00    +0.000 HD
ENDBRANCH  33  40
BRANCH  32  42
ATOM     42  O   UNL     1      -0.410  14.792  18.538  0.00  0.00    +0.000 OA
ATOM     43  H   UNL     1       0.095  14.440  19.284  0.00  0.00    +0.000 HD
ENDBRANCH  32  42
ENDBRANCH  29  30
ENDBRANCH  28  29
ENDBRANCH   4  28
TORSDOF 17
ENDMDL
MODEL 7
REMARK VINA RESULT:      -5.9      2.972      8.713
REMARK  Name = 
REMARK  18 active torsions:
REMARK  status: ('A' for Active; 'I' for Inactive)
REMARK    1  A    between atoms: C_1  and  C_2
REMARK    2  A    between atoms: N_4  and  C_5
REMARK    3  A    between atoms: C_6  and  N_7
REMARK    4  A    between atoms: C_9  and  O_10
REMARK    5  A    between atoms: C_9  and  C_22
REMARK    6  A    between atoms: O_10  and  C_11
REMARK    7  A    between atoms: C_11  and  C_12
REMARK    8  A    between atoms: C_14  and  O_15
REMARK    9  A    between atoms: C_16  and  O_17
REMARK   10  A    between atoms: C_18  and  O_19
REMARK   11  A    between atoms: C_20  and  O_21
REMARK   12  A    between atoms: C_22  and  O_24
REMARK   13  A    between atoms: C_26  and  C_27
REMARK   14  A    between atoms: C_27  and  O_28
REMARK   15  A    between atoms: C_27  and  C_29
REMARK   16  A    between atoms: C_29  and  O_30
REMARK   17  A    between atoms: C_29  and  C_31
REMARK   18  A    between atoms: C_31  and  O_32
REMARK                            x       y       z     vdW  Elec       q    Type
REMARK                         _______ _______ _______ _____ _____    ______ ____
ROOT
ATOM      1  C   UNL     1       0.399  10.899  19.456  0.00  0.00    +0.000 C 
ATOM      2  C   UNL     1       0.907  11.424  20.829  0.00  0.00    +0.000 C 
ATOM      3  C   UNL     1       0.306  12.795  21.106  0.00  0.00    +0.000 C 
ATOM      4  C   UNL     1      -1.213  12.873  20.889  0.00  0.00    +0.000 C 
ATOM      5  O   UNL     1      -1.606  12.313  19.626  0.00  0.00    +0.000 OA
ATOM      6  C   UNL     1      -1.150  10.960  19.408  0.00  0.00    +0.000 C 
ENDROOT
BRANCH   1  10
ATOM      7  C   UNL     1       2.171   7.783  18.216  0.00  0.00    +0.000 C 
ATOM      8  C   UNL     1       1.784   9.238  18.248  0.00  0.00    +0.000 C 
ATOM      9  O   UNL     1       2.218  10.057  17.447  0.00  0.00    +0.000 OA
ATOM     10  N   UNL     1       0.899   9.543  19.256  0.00  0.00    +0.000 N 
ATOM     11  H   UNL     1       0.830   8.917  20.053  0.00  0.00    +0.000 HD
ENDBRANCH   1  10
BRANCH   2  12
ATOM     12  N   UNL     1       0.684  10.451  21.914  0.00  0.00    +0.000 NA
ATOM     13  H   UNL     1       0.951  10.825  22.830  0.00  0.00    +0.000 HD
ATOM     14  H   UNL     1       1.360   9.686  21.811  0.00  0.00    +0.000 HD
ENDBRANCH   2  12
BRANCH   4  15
ATOM     15  C   UNL     1      -2.021  12.203  22.048  0.00  0.00    +0.000 C 
ATOM     16  O   UNL     1      -1.526  11.661  23.043  0.00  0.00    +0.000 OA
BRANCH  15  17
ATOM     17  O   UNL     1      -3.352  12.194  21.818  0.00  0.00    +0.000 OA
ATOM     18  H   UNL     1      -3.539  11.812  20.929  0.00  0.00    +0.000 HD
ENDBRANCH  15  17
ENDBRANCH   4  15
BRANCH   6  19
ATOM     19  C   UNL     1      -1.746  10.421  18.067  0.00  0.00    +0.000 C 
BRANCH  19  20
ATOM     20  O   UNL     1      -2.785   9.441  18.252  0.00  0.00    +0.000 OA
ATOM     21  H   UNL     1      -2.936   9.329  19.208  0.00  0.00    +0.000 HD
ENDBRANCH  19  20
BRANCH  19  22
ATOM     22  C   UNL     1      -2.374  11.522  17.183  0.00  0.00    +0.000 C 
BRANCH  22  23
ATOM     23  O   UNL     1      -1.368  12.512  16.869  0.00  0.00    +0.000 OA
ATOM     24  H   UNL     1      -1.788  13.125  16.231  0.00  0.00    +0.000 HD
ENDBRANCH  22  23
BRANCH  22  25
ATOM     25  C   UNL     1      -2.883  10.985  15.838  0.00  0.00    +0.000 C 
BRANCH  25  26
ATOM     26  O   UNL     1      -4.292  10.777  15.893  0.00  0.00    +0.000 OA
ATOM     27  H   UNL     1      -4.414   9.917  16.340  0.00  0.00    +0.000 HD
ENDBRANCH  25  26
ENDBRANCH  22  25
ENDBRANCH  19  22
ENDBRANCH   6  19
BRANCH   4  28
ATOM     28  O   UNL     1      -1.682  14.239  20.980  0.00  0.00    +0.000 OA
BRANCH  28  29
ATOM     29  C   UNL     1      -1.165  14.983  22.082  0.00  0.00    +0.000 C 
BRANCH  29  30
ATOM     30  C   UNL     1      -2.071  16.175  22.426  0.00  0.00    +0.000 C 
ATOM     31  O   UNL     1      -1.627  16.963  23.540  0.00  0.00    +0.000 OA
ATOM     32  C   UNL     1      -1.672  16.336  24.826  0.00  0.00    +0.000 C 
ATOM     33  C   UNL     1      -3.096  15.833  25.150  0.00  0.00    +0.000 C 
ATOM     34  C   UNL     1      -3.647  14.987  23.991  0.00  0.00    +0.000 C 
ATOM     35  C   UNL     1      -3.520  15.710  22.641  0.00  0.00    +0.000 C 
BRANCH  35  36
ATOM     36  O   UNL     1      -4.424  16.824  22.596  0.00  0.00    +0.000 OA
ATOM     37  H   UNL     1      -4.132  17.489  23.245  0.00  0.00    +0.000 HD
ENDBRANCH  35  36
BRANCH  34  38
ATOM     38  O   UNL     1      -5.013  14.639  24.231  0.00  0.00    +0.000 OA
ATOM     39  H   UNL     1      -5.252  14.031  23.504  0.00  0.00    +0.000 HD
ENDBRANCH  34  38
BRANCH  33  40
ATOM     40  O   UNL     1      -3.984  16.941  25.403  0.00  0.00    +0.000 OA
ATOM     41  H   UNL     1      -4.221  17.341  24.548  0.00  0.00    +0.000 HD
ENDBRANCH  33  40
BRANCH  32  42
ATOM     42  O   UNL     1      -0.655  15.359  24.943  0.00  0.00    +0.000 OA
ATOM     43  H   UNL     1      -0.631  14.808  24.147  0.00  0.00    +0.000 HD
ENDBRANCH  32  42
ENDBRANCH  29  30
ENDBRANCH  28  29
ENDBRANCH   4  28
TORSDOF 17
ENDMDL
MODEL 8
REMARK VINA RESULT:      -5.9      4.749      9.240
REMARK  Name = 
REMARK  18 active torsions:
REMARK  status: ('A' for Active; 'I' for Inactive)
REMARK    1  A    between atoms: C_1  and  C_2
REMARK    2  A    between atoms: N_4  and  C_5
REMARK    3  A    between atoms: C_6  and  N_7
REMARK    4  A    between atoms: C_9  and  O_10
REMARK    5  A    between atoms: C_9  and  C_22
REMARK    6  A    between atoms: O_10  and  C_11
REMARK    7  A    between atoms: C_11  and  C_12
REMARK    8  A    between atoms: C_14  and  O_15
REMARK    9  A    between atoms: C_16  and  O_17
REMARK   10  A    between atoms: C_18  and  O_19
REMARK   11  A    between atoms: C_20  and  O_21
REMARK   12  A    between atoms: C_22  and  O_24
REMARK   13  A    between atoms: C_26  and  C_27
REMARK   14  A    between atoms: C_27  and  O_28
REMARK   15  A    between atoms: C_27  and  C_29
REMARK   16  A    between atoms: C_29  and  O_30
REMARK   17  A    between atoms: C_29  and  C_31
REMARK   18  A    between atoms: C_31  and  O_32
REMARK                            x       y       z     vdW  Elec       q    Type
REMARK                         _______ _______ _______ _____ _____    ______ ____
ROOT
ATOM      1  C   UNL     1      -0.328  15.634  20.174  0.00  0.00    +0.000 C 
ATOM      2  C   UNL     1      -0.346  16.587  21.401  0.00  0.00    +0.000 C 
ATOM      3  C   UNL     1      -1.673  16.450  22.135  0.00  0.00    +0.000 C 
ATOM      4  C   UNL     1      -2.089  14.999  22.419  0.00  0.00    +0.000 C 
ATOM      5  O   UNL     1      -1.985  14.170  21.251  0.00  0.00    +0.000 OA
ATOM      6  C   UNL     1      -0.687  14.192  20.620  0.00  0.00    +0.000 C 
ENDROOT
BRANCH   1  10
ATOM      7  C   UNL     1       2.663  16.456  17.991  0.00  0.00    +0.000 C 
ATOM      8  C   UNL     1       1.246  16.545  18.492  0.00  0.00    +0.000 C 
ATOM      9  O   UNL     1       0.415  17.297  17.998  0.00  0.00    +0.000 OA
ATOM     10  N   UNL     1       0.988  15.700  19.545  0.00  0.00    +0.000 N 
ATOM     11  H   UNL     1       1.767  15.353  20.098  0.00  0.00    +0.000 HD
ENDBRANCH   1  10
BRANCH   2  12
ATOM     12  N   UNL     1       0.831  16.400  22.270  0.00  0.00    +0.000 NA
ATOM     13  H   UNL     1       0.569  16.157  23.230  0.00  0.00    +0.000 HD
ATOM     14  H   UNL     1       1.277  17.314  22.415  0.00  0.00    +0.000 HD
ENDBRANCH   2  12
BRANCH   4  15
ATOM     15  C   UNL     1      -1.286  14.363  23.600  0.00  0.00    +0.000 C 
ATOM     16  O   UNL     1      -0.709  14.995  24.493  0.00  0.00    +0.000 OA
BRANCH  15  17
ATOM     17  O   UNL     1      -1.204  13.018  23.511  0.00  0.00    +0.000 OA
ATOM     18  H   UNL     1      -0.297  12.718  23.750  0.00  0.00    +0.000 HD
ENDBRANCH  15  17
ENDBRANCH   4  15
BRANCH   6  19
ATOM     19  C   UNL     1      -0.662  13.160  19.445  0.00  0.00    +0.000 C 
BRANCH  19  20
ATOM     20  O   UNL     1      -0.626  13.773  18.143  0.00  0.00    +0.000 OA
ATOM     21  H   UNL     1      -1.541  13.905  17.838  0.00  0.00    +0.000 HD
ENDBRANCH  19  20
BRANCH  19  22
ATOM     22  C   UNL     1       0.555  12.209  19.485  0.00  0.00    +0.000 C 
BRANCH  22  23
ATOM     23  O   UNL     1       1.684  12.903  20.063  0.00  0.00    +0.000 OA
ATOM     24  H   UNL     1       1.570  12.835  21.033  0.00  0.00    +0.000 HD
ENDBRANCH  22  23
BRANCH  22  25
ATOM     25  C   UNL     1       0.314  10.974  20.365  0.00  0.00    +0.000 C 
BRANCH  25  26
ATOM     26  O   UNL     1       1.038  11.092  21.588  0.00  0.00    +0.000 OA
ATOM     27  H   UNL     1       1.700  11.795  21.435  0.00  0.00    +0.000 HD
ENDBRANCH  25  26
ENDBRANCH  22  25
ENDBRANCH  19  22
ENDBRANCH   6  19
BRANCH   4  28
ATOM     28  O   UNL     1      -3.439  14.937  22.939  0.00  0.00    +0.000 OA
BRANCH  28  29
ATOM     29  C   UNL     1      -4.373  14.248  22.111  0.00  0.00    +0.000 C 
BRANCH  29  30
ATOM     30  C   UNL     1      -4.711  12.862  22.683  0.00  0.00    +0.000 C 
ATOM     31  O   UNL     1      -5.440  12.007  21.790  0.00  0.00    +0.000 OA
ATOM     32  C   UNL     1      -6.783  12.398  21.483  0.00  0.00    +0.000 C 
ATOM     33  C   UNL     1      -7.624  12.555  22.769  0.00  0.00    +0.000 C 
ATOM     34  C   UNL     1      -6.898  13.452  23.785  0.00  0.00    +0.000 C 
ATOM     35  C   UNL     1      -5.450  12.994  24.023  0.00  0.00    +0.000 C 
BRANCH  35  36
ATOM     36  O   UNL     1      -5.443  11.747  24.734  0.00  0.00    +0.000 OA
ATOM     37  H   UNL     1      -4.653  11.716  25.302  0.00  0.00    +0.000 HD
ENDBRANCH  35  36
BRANCH  34  38
ATOM     38  O   UNL     1      -7.610  13.483  25.024  0.00  0.00    +0.000 OA
ATOM     39  H   UNL     1      -7.055  14.021  25.623  0.00  0.00    +0.000 HD
ENDBRANCH  34  38
BRANCH  33  40
ATOM     40  O   UNL     1      -7.890  11.269  23.365  0.00  0.00    +0.000 OA
ATOM     41  H   UNL     1      -8.851  11.194  23.509  0.00  0.00    +0.000 HD
ENDBRANCH  33  40
BRANCH  32  42
ATOM     42  O   UNL     1      -6.793  13.523  20.625  0.00  0.00    +0.000 OA
ATOM     43  H   UNL     1      -6.533  13.261  19.730  0.00  0.00    +0.000 HD
ENDBRANCH  32  42
ENDBRANCH  29  30
ENDBRANCH  28  29
ENDBRANCH   4  28
TORSDOF 17
ENDMDL
MODEL 9
REMARK VINA RESULT:      -5.9      3.581      7.270
REMARK  Name = 
REMARK  18 active torsions:
REMARK  status: ('A' for Active; 'I' for Inactive)
REMARK    1  A    between atoms: C_1  and  C_2
REMARK    2  A    between atoms: N_4  and  C_5
REMARK    3  A    between atoms: C_6  and  N_7
REMARK    4  A    between atoms: C_9  and  O_10
REMARK    5  A    between atoms: C_9  and  C_22
REMARK    6  A    between atoms: O_10  and  C_11
REMARK    7  A    between atoms: C_11  and  C_12
REMARK    8  A    between atoms: C_14  and  O_15
REMARK    9  A    between atoms: C_16  and  O_17
REMARK   10  A    between atoms: C_18  and  O_19
REMARK   11  A    between atoms: C_20  and  O_21
REMARK   12  A    between atoms: C_22  and  O_24
REMARK   13  A    between atoms: C_26  and  C_27
REMARK   14  A    between atoms: C_27  and  O_28
REMARK   15  A    between atoms: C_27  and  C_29
REMARK   16  A    between atoms: C_29  and  O_30
REMARK   17  A    between atoms: C_29  and  C_31
REMARK   18  A    between atoms: C_31  and  O_32
REMARK                            x       y       z     vdW  Elec       q    Type
REMARK                         _______ _______ _______ _____ _____    ______ ____
ROOT
ATOM      1  C   UNL     1      -1.928  12.903  22.126  0.00  0.00    +0.000 C 
ATOM      2  C   UNL     1      -2.477  13.875  21.044  0.00  0.00    +0.000 C 
ATOM      3  C   UNL     1      -1.339  14.327  20.139  0.00  0.00    +0.000 C 
ATOM      4  C   UNL     1      -0.459  13.183  19.614  0.00  0.00    +0.000 C 
ATOM      5  O   UNL     1      -0.045  12.296  20.665  0.00  0.00    +0.000 OA
ATOM      6  C   UNL     1      -1.130  11.757  21.450  0.00  0.00    +0.000 C 
ENDROOT
BRANCH   1  10
ATOM      7  C   UNL     1      -4.654  12.365  24.708  0.00  0.00    +0.000 C 
ATOM      8  C   UNL     1      -3.495  13.055  24.040  0.00  0.00    +0.000 C 
ATOM      9  O   UNL     1      -3.006  14.094  24.466  0.00  0.00    +0.000 OA
ATOM     10  N   UNL     1      -3.046  12.398  22.917  0.00  0.00    +0.000 N 
ATOM     11  H   UNL     1      -3.669  11.747  22.449  0.00  0.00    +0.000 HD
ENDBRANCH   1  10
BRANCH   2  12
ATOM     12  N   UNL     1      -3.624  13.304  20.313  0.00  0.00    +0.000 NA
ATOM     13  H   UNL     1      -3.529  13.414  19.298  0.00  0.00    +0.000 HD
ATOM     14  H   UNL     1      -4.449  13.887  20.495  0.00  0.00    +0.000 HD
ENDBRANCH   2  12
BRANCH   4  15
ATOM     15  C   UNL     1      -1.148  12.372  18.468  0.00  0.00    +0.000 C 
ATOM     16  O   UNL     1      -1.754  11.304  18.614  0.00  0.00    +0.000 OA
BRANCH  15  17
ATOM     17  O   UNL     1      -0.943  12.916  17.249  0.00  0.00    +0.000 OA
ATOM     18  H   UNL     1      -1.414  12.391  16.561  0.00  0.00    +0.000 HD
ENDBRANCH  15  17
ENDBRANCH   4  15
BRANCH   6  19
ATOM     19  C   UNL     1      -0.566  10.715  22.470  0.00  0.00    +0.000 C 
BRANCH  19  20
ATOM     20  O   UNL     1      -1.524  10.309  23.466  0.00  0.00    +0.000 OA
ATOM     21  H   UNL     1      -1.542  10.982  24.169  0.00  0.00    +0.000 HD
ENDBRANCH  19  20
BRANCH  19  22
ATOM     22  C   UNL     1      -0.081   9.405  21.809  0.00  0.00    +0.000 C 
BRANCH  22  23
ATOM     23  O   UNL     1      -0.187   9.529  20.372  0.00  0.00    +0.000 OA
ATOM     24  H   UNL     1      -0.341   8.621  20.038  0.00  0.00    +0.000 HD
ENDBRANCH  22  23
BRANCH  22  25
ATOM     25  C   UNL     1       1.395   9.101  22.107  0.00  0.00    +0.000 C 
BRANCH  25  26
ATOM     26  O   UNL     1       1.784   7.886  21.472  0.00  0.00    +0.000 OA
ATOM     27  H   UNL     1       1.081   7.241  21.683  0.00  0.00    +0.000 HD
ENDBRANCH  25  26
ENDBRANCH  22  25
ENDBRANCH  19  22
ENDBRANCH   6  19
BRANCH   4  28
ATOM     28  O   UNL     1       0.706  13.697  18.926  0.00  0.00    +0.000 OA
BRANCH  28  29
ATOM     29  C   UNL     1       1.854  13.896  19.748  0.00  0.00    +0.000 C 
BRANCH  29  30
ATOM     30  C   UNL     1       2.203  15.387  19.870  0.00  0.00    +0.000 C 
ATOM     31  O   UNL     1       2.333  16.076  18.617  0.00  0.00    +0.000 OA
ATOM     32  C   UNL     1       3.445  15.706  17.795  0.00  0.00    +0.000 C 
ATOM     33  C   UNL     1       4.779  15.870  18.558  0.00  0.00    +0.000 C 
ATOM     34  C   UNL     1       4.712  15.165  19.922  0.00  0.00    +0.000 C 
ATOM     35  C   UNL     1       3.466  15.580  20.722  0.00  0.00    +0.000 C 
BRANCH  35  36
ATOM     36  O   UNL     1       3.590  16.946  21.146  0.00  0.00    +0.000 OA
ATOM     37  H   UNL     1       3.074  17.067  21.962  0.00  0.00    +0.000 HD
ENDBRANCH  35  36
BRANCH  34  38
ATOM     38  O   UNL     1       5.892  15.434  20.683  0.00  0.00    +0.000 OA
ATOM     39  H   UNL     1       5.877  16.398  20.843  0.00  0.00    +0.000 HD
ENDBRANCH  34  38
BRANCH  33  40
ATOM     40  O   UNL     1       5.089  17.264  18.750  0.00  0.00    +0.000 OA
ATOM     41  H   UNL     1       5.452  17.374  19.647  0.00  0.00    +0.000 HD
ENDBRANCH  33  40
BRANCH  32  42
ATOM     42  O   UNL     1       3.240  14.429  17.222  0.00  0.00    +0.000 OA
ATOM     43  H   UNL     1       2.971  14.519  16.296  0.00  0.00    +0.000 HD
ENDBRANCH  32  42
ENDBRANCH  29  30
ENDBRANCH  28  29
ENDBRANCH   4  28
TORSDOF 17
ENDMDL
