MODEL 1
REMARK VINA RESULT:      -8.0      0.000      0.000
REMARK  Name = 
REMARK  7 active torsions:
REMARK  status: ('A' for Active; 'I' for Inactive)
REMARK    1  A    between atoms: C_1  and  N_2
REMARK    2  A    between atoms: C_6  and  C_8
REMARK    3  A    between atoms: C_8  and  O_9
REMARK    4  A    between atoms: O_9  and  C_10
REMARK    5  A    between atoms: C_13  and  C_14
REMARK    6  A    between atoms: C_14  and  C_16
REMARK    7  A    between atoms: C_17  and  C_18
REMARK                            x       y       z     vdW  Elec       q    Type
REMARK                         _______ _______ _______ _____ _____    ______ ____
ROOT
ATOM      1  C   UNL     1       8.182   7.774  18.346  0.00  0.00    +0.000 A 
ATOM      2  C   UNL     1       7.448   7.861  17.165  0.00  0.00    +0.000 A 
ATOM      3  C   UNL     1       6.752   6.750  16.690  0.00  0.00    +0.000 A 
ATOM      4  C   UNL     1       6.789   5.532  17.383  0.00  0.00    +0.000 A 
ATOM      5  C   UNL     1       7.567   5.429  18.543  0.00  0.00    +0.000 A 
ATOM      6  C   UNL     1       8.264   6.551  19.015  0.00  0.00    +0.000 A 
ENDROOT
BRANCH   4   7
ATOM      7  C   UNL     1       6.013   4.400  16.813  0.00  0.00    +0.000 C 
ATOM      8  O   UNL     1       6.273   3.997  15.682  0.00  0.00    +0.000 OA
BRANCH   7   9
ATOM      9  C   UNL     1       4.894   3.830  17.607  0.00  0.00    +0.000 C 
ATOM     10  C   UNL     1       3.781   4.559  17.780  0.00  0.00    +0.000 C 
BRANCH  10  11
ATOM     11  C   UNL     1       2.674   4.071  18.598  0.00  0.00    +0.000 A 
ATOM     12  C   UNL     1       1.877   3.017  18.139  0.00  0.00    +0.000 A 
ATOM     13  C   UNL     1       0.802   2.566  18.905  0.00  0.00    +0.000 A 
ATOM     14  C   UNL     1       0.519   3.165  20.132  0.00  0.00    +0.000 A 
ATOM     15  C   UNL     1       1.316   4.212  20.597  0.00  0.00    +0.000 A 
ATOM     16  C   UNL     1       2.392   4.665  19.833  0.00  0.00    +0.000 A 
ENDBRANCH  10  11
ENDBRANCH   7   9
ENDBRANCH   4   7
BRANCH   1  17
ATOM     17  O   UNL     1       8.864   8.817  18.913  0.00  0.00    +0.000 OA
BRANCH  17  18
ATOM     18  C   UNL     1       8.550  10.100  18.375  0.00  0.00    +0.000 C 
BRANCH  18  24
ATOM     19  C   UNL     1       9.512  14.979  22.501  0.00  0.00    +0.000 C 
ATOM     20  N   UNL     1       9.900  13.727  21.854  0.00  0.00    +0.000 NA
ATOM     21  C   UNL     1      10.574  13.997  20.565  0.00  0.00    +0.000 C 
ATOM     22  C   UNL     1      10.981  12.700  19.844  0.00  0.00    +0.000 C 
ATOM     23  N   UNL     1       9.845  11.793  19.687  0.00  0.00    +0.000 N 
ATOM     24  C   UNL     1       9.737  11.049  18.524  0.00  0.00    +0.000 C 
ATOM     25  O   UNL     1      10.568  11.133  17.616  0.00  0.00    +0.000 OA
ATOM     26  C   UNL     1       9.086  11.553  20.918  0.00  0.00    +0.000 C 
ATOM     27  C   UNL     1       8.718  12.872  21.625  0.00  0.00    +0.000 C 
ENDBRANCH  18  24
ENDBRANCH  17  18
ENDBRANCH   1  17
TORSDOF 6
ENDMDL
MODEL 2
REMARK VINA RESULT:      -7.9      1.474      2.036
REMARK  Name = 
REMARK  7 active torsions:
REMARK  status: ('A' for Active; 'I' for Inactive)
REMARK    1  A    between atoms: C_1  and  N_2
REMARK    2  A    between atoms: C_6  and  C_8
REMARK    3  A    between atoms: C_8  and  O_9
REMARK    4  A    between atoms: O_9  and  C_10
REMARK    5  A    between atoms: C_13  and  C_14
REMARK    6  A    between atoms: C_14  and  C_16
REMARK    7  A    between atoms: C_17  and  C_18
REMARK                            x       y       z     vdW  Elec       q    Type
REMARK                         _______ _______ _______ _____ _____    ______ ____
ROOT
ATOM      1  C   UNL     1       8.135   7.841  18.433  0.00  0.00    +0.000 A 
ATOM      2  C   UNL     1       7.372   8.122  17.302  0.00  0.00    +0.000 A 
ATOM      3  C   UNL     1       6.638   7.111  16.682  0.00  0.00    +0.000 A 
ATOM      4  C   UNL     1       6.667   5.800  17.179  0.00  0.00    +0.000 A 
ATOM      5  C   UNL     1       7.472   5.505  18.285  0.00  0.00    +0.000 A 
ATOM      6  C   UNL     1       8.207   6.527  18.903  0.00  0.00    +0.000 A 
ENDROOT
BRANCH   4   7
ATOM      7  C   UNL     1       5.850   4.785  16.464  0.00  0.00    +0.000 C 
ATOM      8  O   UNL     1       6.103   4.519  15.292  0.00  0.00    +0.000 OA
BRANCH   7   9
ATOM      9  C   UNL     1       4.701   4.165  17.174  0.00  0.00    +0.000 C 
ATOM     10  C   UNL     1       4.133   4.826  18.194  0.00  0.00    +0.000 C 
BRANCH  10  11
ATOM     11  C   UNL     1       3.038   4.239  18.962  0.00  0.00    +0.000 A 
ATOM     12  C   UNL     1       2.734   2.881  18.820  0.00  0.00    +0.000 A 
ATOM     13  C   UNL     1       1.671   2.323  19.531  0.00  0.00    +0.000 A 
ATOM     14  C   UNL     1       0.909   3.118  20.386  0.00  0.00    +0.000 A 
ATOM     15  C   UNL     1       1.214   4.471  20.537  0.00  0.00    +0.000 A 
ATOM     16  C   UNL     1       2.277   5.032  19.827  0.00  0.00    +0.000 A 
ENDBRANCH  10  11
ENDBRANCH   7   9
ENDBRANCH   4   7
BRANCH   1  17
ATOM     17  O   UNL     1       8.856   8.771  19.133  0.00  0.00    +0.000 OA
BRANCH  17  18
ATOM     18  C   UNL     1       9.100   9.989  18.432  0.00  0.00    +0.000 C 
BRANCH  18  24
ATOM     19  C   UNL     1      12.332  15.509  17.521  0.00  0.00    +0.000 C 
ATOM     20  N   UNL     1      11.169  14.740  17.958  0.00  0.00    +0.000 NA
ATOM     21  C   UNL     1      11.363  14.248  19.339  0.00  0.00    +0.000 C 
ATOM     22  C   UNL     1      10.165  13.416  19.829  0.00  0.00    +0.000 C 
ATOM     23  N   UNL     1       9.848  12.331  18.901  0.00  0.00    +0.000 N 
ATOM     24  C   UNL     1       9.434  11.112  19.411  0.00  0.00    +0.000 C 
ATOM     25  O   UNL     1       9.330  10.915  20.625  0.00  0.00    +0.000 OA
ATOM     26  C   UNL     1       9.726  12.747  17.501  0.00  0.00    +0.000 C 
ATOM     27  C   UNL     1      10.930  13.598  17.053  0.00  0.00    +0.000 C 
ENDBRANCH  18  24
ENDBRANCH  17  18
ENDBRANCH   1  17
TORSDOF 6
ENDMDL
MODEL 3
REMARK VINA RESULT:      -7.8      5.879      8.895
REMARK  Name = 
REMARK  7 active torsions:
REMARK  status: ('A' for Active; 'I' for Inactive)
REMARK    1  A    between atoms: C_1  and  N_2
REMARK    2  A    between atoms: C_6  and  C_8
REMARK    3  A    between atoms: C_8  and  O_9
REMARK    4  A    between atoms: O_9  and  C_10
REMARK    5  A    between atoms: C_13  and  C_14
REMARK    6  A    between atoms: C_14  and  C_16
REMARK    7  A    between atoms: C_17  and  C_18
REMARK                            x       y       z     vdW  Elec       q    Type
REMARK                         _______ _______ _______ _____ _____    ______ ____
ROOT
ATOM      1  C   UNL     1       2.161   6.132  19.988  0.00  0.00    +0.000 A 
ATOM      2  C   UNL     1       1.421   6.521  21.102  0.00  0.00    +0.000 A 
ATOM      3  C   UNL     1       0.941   7.828  21.203  0.00  0.00    +0.000 A 
ATOM      4  C   UNL     1       1.206   8.766  20.195  0.00  0.00    +0.000 A 
ATOM      5  C   UNL     1       1.992   8.390  19.100  0.00  0.00    +0.000 A 
ATOM      6  C   UNL     1       2.470   7.075  19.005  0.00  0.00    +0.000 A 
ENDROOT
BRANCH   4   7
ATOM      7  C   UNL     1       0.651  10.133  20.377  0.00  0.00    +0.000 C 
ATOM      8  O   UNL     1       1.237  10.933  21.101  0.00  0.00    +0.000 OA
BRANCH   7   9
ATOM      9  C   UNL     1      -0.641  10.471  19.725  0.00  0.00    +0.000 C 
ATOM     10  C   UNL     1      -0.810  10.179  18.426  0.00  0.00    +0.000 C 
BRANCH  10  11
ATOM     11  C   UNL     1      -2.038  10.540  17.722  0.00  0.00    +0.000 A 
ATOM     12  C   UNL     1      -3.008  11.319  18.362  0.00  0.00    +0.000 A 
ATOM     13  C   UNL     1      -4.194  11.641  17.703  0.00  0.00    +0.000 A 
ATOM     14  C   UNL     1      -4.415  11.190  16.402  0.00  0.00    +0.000 A 
ATOM     15  C   UNL     1      -3.447  10.420  15.757  0.00  0.00    +0.000 A 
ATOM     16  C   UNL     1      -2.260  10.095  16.415  0.00  0.00    +0.000 A 
ENDBRANCH  10  11
ENDBRANCH   7   9
ENDBRANCH   4   7
BRANCH   1  17
ATOM     17  O   UNL     1       2.640   4.867  19.780  0.00  0.00    +0.000 OA
BRANCH  17  18
ATOM     18  C   UNL     1       3.122   4.618  18.460  0.00  0.00    +0.000 C 
BRANCH  18  24
ATOM     19  C   UNL     1       7.525   5.123  13.759  0.00  0.00    +0.000 C 
ATOM     20  N   UNL     1       7.011   5.413  15.095  0.00  0.00    +0.000 NA
ATOM     21  C   UNL     1       7.380   4.336  16.038  0.00  0.00    +0.000 C 
ATOM     22  C   UNL     1       6.839   4.597  17.455  0.00  0.00    +0.000 C 
ATOM     23  N   UNL     1       5.397   4.842  17.443  0.00  0.00    +0.000 N 
ATOM     24  C   UNL     1       4.625   4.350  18.481  0.00  0.00    +0.000 C 
ATOM     25  O   UNL     1       5.117   3.706  19.411  0.00  0.00    +0.000 OA
ATOM     26  C   UNL     1       4.961   5.845  16.465  0.00  0.00    +0.000 C 
ATOM     27  C   UNL     1       5.542   5.565  15.066  0.00  0.00    +0.000 C 
ENDBRANCH  18  24
ENDBRANCH  17  18
ENDBRANCH   1  17
TORSDOF 6
ENDMDL
MODEL 4
REMARK VINA RESULT:      -7.7      8.117      9.723
REMARK  Name = 
REMARK  7 active torsions:
REMARK  status: ('A' for Active; 'I' for Inactive)
REMARK    1  A    between atoms: C_1  and  N_2
REMARK    2  A    between atoms: C_6  and  C_8
REMARK    3  A    between atoms: C_8  and  O_9
REMARK    4  A    between atoms: O_9  and  C_10
REMARK    5  A    between atoms: C_13  and  C_14
REMARK    6  A    between atoms: C_14  and  C_16
REMARK    7  A    between atoms: C_17  and  C_18
REMARK                            x       y       z     vdW  Elec       q    Type
REMARK                         _______ _______ _______ _____ _____    ______ ____
ROOT
ATOM      1  C   UNL     1       0.331  10.113  21.988  0.00  0.00    +0.000 A 
ATOM      2  C   UNL     1       0.891   8.838  22.043  0.00  0.00    +0.000 A 
ATOM      3  C   UNL     1       1.454   8.272  20.899  0.00  0.00    +0.000 A 
ATOM      4  C   UNL     1       1.454   8.968  19.682  0.00  0.00    +0.000 A 
ATOM      5  C   UNL     1       0.847  10.227  19.615  0.00  0.00    +0.000 A 
ATOM      6  C   UNL     1       0.284  10.792  20.768  0.00  0.00    +0.000 A 
ENDROOT
BRANCH   4   7
ATOM      7  C   UNL     1       2.081   8.295  18.514  0.00  0.00    +0.000 C 
ATOM      8  O   UNL     1       2.047   8.837  17.413  0.00  0.00    +0.000 OA
BRANCH   7   9
ATOM      9  C   UNL     1       2.677   6.947  18.703  0.00  0.00    +0.000 C 
ATOM     10  C   UNL     1       2.109   5.894  18.097  0.00  0.00    +0.000 C 
BRANCH  10  11
ATOM     11  C   UNL     1       2.620   4.540  18.293  0.00  0.00    +0.000 A 
ATOM     12  C   UNL     1       3.611   4.298  19.250  0.00  0.00    +0.000 A 
ATOM     13  C   UNL     1       4.122   3.011  19.420  0.00  0.00    +0.000 A 
ATOM     14  C   UNL     1       3.643   1.961  18.638  0.00  0.00    +0.000 A 
ATOM     15  C   UNL     1       2.649   2.196  17.688  0.00  0.00    +0.000 A 
ATOM     16  C   UNL     1       2.137   3.482  17.515  0.00  0.00    +0.000 A 
ENDBRANCH  10  11
ENDBRANCH   7   9
ENDBRANCH   4   7
BRANCH   1  17
ATOM     17  O   UNL     1      -0.208  10.768  23.063  0.00  0.00    +0.000 OA
BRANCH  17  18
ATOM     18  C   UNL     1      -1.481  11.367  22.821  0.00  0.00    +0.000 C 
BRANCH  18  24
ATOM     19  C   UNL     1      -6.368  15.546  23.453  0.00  0.00    +0.000 C 
ATOM     20  N   UNL     1      -5.200  14.824  23.956  0.00  0.00    +0.000 NA
ATOM     21  C   UNL     1      -3.956  15.533  23.589  0.00  0.00    +0.000 C 
ATOM     22  C   UNL     1      -2.702  14.793  24.084  0.00  0.00    +0.000 C 
ATOM     23  N   UNL     1      -2.688  13.400  23.640  0.00  0.00    +0.000 N 
ATOM     24  C   UNL     1      -1.483  12.824  23.278  0.00  0.00    +0.000 C 
ATOM     25  O   UNL     1      -0.422  13.452  23.315  0.00  0.00    +0.000 OA
ATOM     26  C   UNL     1      -3.931  12.668  23.903  0.00  0.00    +0.000 C 
ATOM     27  C   UNL     1      -5.166  13.450  23.415  0.00  0.00    +0.000 C 
ENDBRANCH  18  24
ENDBRANCH  17  18
ENDBRANCH   1  17
TORSDOF 6
ENDMDL
MODEL 5
REMARK VINA RESULT:      -7.6      6.210      9.275
REMARK  Name = 
REMARK  7 active torsions:
REMARK  status: ('A' for Active; 'I' for Inactive)
REMARK    1  A    between atoms: C_1  and  N_2
REMARK    2  A    between atoms: C_6  and  C_8
REMARK    3  A    between atoms: C_8  and  O_9
REMARK    4  A    between atoms: O_9  and  C_10
REMARK    5  A    between atoms: C_13  and  C_14
REMARK    6  A    between atoms: C_14  and  C_16
REMARK    7  A    between atoms: C_17  and  C_18
REMARK                            x       y       z     vdW  Elec       q    Type
REMARK                         _______ _______ _______ _____ _____    ______ ____
ROOT
ATOM      1  C   UNL     1       1.942   6.761  20.307  0.00  0.00    +0.000 A 
ATOM      2  C   UNL     1       1.225   7.445  21.286  0.00  0.00    +0.000 A 
ATOM      3  C   UNL     1       0.824   8.763  21.067  0.00  0.00    +0.000 A 
ATOM      4  C   UNL     1       1.143   9.419  19.870  0.00  0.00    +0.000 A 
ATOM      5  C   UNL     1       1.907   8.749  18.906  0.00  0.00    +0.000 A 
ATOM      6  C   UNL     1       2.306   7.424  19.133  0.00  0.00    +0.000 A 
ENDROOT
BRANCH   4   7
ATOM      7  C   UNL     1       0.670  10.819  19.714  0.00  0.00    +0.000 C 
ATOM      8  O   UNL     1       1.075  11.684  20.486  0.00  0.00    +0.000 OA
BRANCH   7   9
ATOM      9  C   UNL     1      -0.336  11.119  18.663  0.00  0.00    +0.000 C 
ATOM     10  C   UNL     1      -1.334  10.248  18.450  0.00  0.00    +0.000 C 
BRANCH  10  11
ATOM     11  C   UNL     1      -2.318  10.465  17.392  0.00  0.00    +0.000 A 
ATOM     12  C   UNL     1      -3.418  11.299  17.621  0.00  0.00    +0.000 A 
ATOM     13  C   UNL     1      -4.374  11.487  16.624  0.00  0.00    +0.000 A 
ATOM     14  C   UNL     1      -4.235  10.845  15.394  0.00  0.00    +0.000 A 
ATOM     15  C   UNL     1      -3.136  10.019  15.158  0.00  0.00    +0.000 A 
ATOM     16  C   UNL     1      -2.178   9.829  16.155  0.00  0.00    +0.000 A 
ENDBRANCH  10  11
ENDBRANCH   7   9
ENDBRANCH   4   7
BRANCH   1  17
ATOM     17  O   UNL     1       2.345   5.457  20.412  0.00  0.00    +0.000 OA
BRANCH  17  18
ATOM     18  C   UNL     1       1.498   4.514  19.758  0.00  0.00    +0.000 C 
BRANCH  18  24
ATOM     19  C   UNL     1       7.469   4.964  17.330  0.00  0.00    +0.000 C 
ATOM     20  N   UNL     1       6.233   4.239  17.617  0.00  0.00    +0.000 NA
ATOM     21  C   UNL     1       5.225   4.497  16.566  0.00  0.00    +0.000 C 
ATOM     22  C   UNL     1       3.901   3.765  16.843  0.00  0.00    +0.000 C 
ATOM     23  N   UNL     1       3.387   4.068  18.179  0.00  0.00    +0.000 N 
ATOM     24  C   UNL     1       2.022   4.204  18.357  0.00  0.00    +0.000 C 
ATOM     25  O   UNL     1       1.226   4.081  17.422  0.00  0.00    +0.000 OA
ATOM     26  C   UNL     1       4.370   3.910  19.256  0.00  0.00    +0.000 C 
ATOM     27  C   UNL     1       5.690   4.635  18.932  0.00  0.00    +0.000 C 
ENDBRANCH  18  24
ENDBRANCH  17  18
ENDBRANCH   1  17
TORSDOF 6
ENDMDL
MODEL 6
REMARK VINA RESULT:      -7.5      6.112      7.897
REMARK  Name = 
REMARK  7 active torsions:
REMARK  status: ('A' for Active; 'I' for Inactive)
REMARK    1  A    between atoms: C_1  and  N_2
REMARK    2  A    between atoms: C_6  and  C_8
REMARK    3  A    between atoms: C_8  and  O_9
REMARK    4  A    between atoms: O_9  and  C_10
REMARK    5  A    between atoms: C_13  and  C_14
REMARK    6  A    between atoms: C_14  and  C_16
REMARK    7  A    between atoms: C_17  and  C_18
REMARK                            x       y       z     vdW  Elec       q    Type
REMARK                         _______ _______ _______ _____ _____    ______ ____
ROOT
ATOM      1  C   UNL     1       2.242   7.370  19.346  0.00  0.00    +0.000 A 
ATOM      2  C   UNL     1       3.030   7.458  18.201  0.00  0.00    +0.000 A 
ATOM      3  C   UNL     1       3.625   6.313  17.670  0.00  0.00    +0.000 A 
ATOM      4  C   UNL     1       3.449   5.065  18.285  0.00  0.00    +0.000 A 
ATOM      5  C   UNL     1       2.698   4.984  19.464  0.00  0.00    +0.000 A 
ATOM      6  C   UNL     1       2.103   6.139  19.991  0.00  0.00    +0.000 A 
ENDROOT
BRANCH   4   7
ATOM      7  C   UNL     1       4.110   3.895  17.650  0.00  0.00    +0.000 C 
ATOM      8  O   UNL     1       4.336   2.891  18.320  0.00  0.00    +0.000 OA
BRANCH   7   9
ATOM      9  C   UNL     1       4.542   4.002  16.232  0.00  0.00    +0.000 C 
ATOM     10  C   UNL     1       5.853   4.018  15.951  0.00  0.00    +0.000 C 
BRANCH  10  11
ATOM     11  C   UNL     1       6.332   4.177  14.580  0.00  0.00    +0.000 A 
ATOM     12  C   UNL     1       5.810   3.376  13.559  0.00  0.00    +0.000 A 
ATOM     13  C   UNL     1       6.286   3.506  12.254  0.00  0.00    +0.000 A 
ATOM     14  C   UNL     1       7.282   4.437  11.964  0.00  0.00    +0.000 A 
ATOM     15  C   UNL     1       7.800   5.244  12.977  0.00  0.00    +0.000 A 
ATOM     16  C   UNL     1       7.327   5.115  14.284  0.00  0.00    +0.000 A 
ENDBRANCH  10  11
ENDBRANCH   7   9
ENDBRANCH   4   7
BRANCH   1  17
ATOM     17  O   UNL     1       1.587   8.427  19.918  0.00  0.00    +0.000 OA
BRANCH  17  18
ATOM     18  C   UNL     1       1.013   8.155  21.195  0.00  0.00    +0.000 C 
BRANCH  18  24
ATOM     19  C   UNL     1      -0.470  14.012  18.906  0.00  0.00    +0.000 C 
ATOM     20  N   UNL     1      -0.719  12.843  19.748  0.00  0.00    +0.000 NA
ATOM     21  C   UNL     1       0.019  12.957  21.024  0.00  0.00    +0.000 C 
ATOM     22  C   UNL     1      -0.203  11.734  21.931  0.00  0.00    +0.000 C 
ATOM     23  N   UNL     1       0.101  10.485  21.233  0.00  0.00    +0.000 N 
ATOM     24  C   UNL     1       0.707   9.456  21.933  0.00  0.00    +0.000 C 
ATOM     25  O   UNL     1       1.001   9.564  23.127  0.00  0.00    +0.000 OA
ATOM     26  C   UNL     1      -0.539  10.353  19.920  0.00  0.00    +0.000 C 
ATOM     27  C   UNL     1      -0.316  11.605  19.051  0.00  0.00    +0.000 C 
ENDBRANCH  18  24
ENDBRANCH  17  18
ENDBRANCH   1  17
TORSDOF 6
ENDMDL
MODEL 7
REMARK VINA RESULT:      -7.5      5.845      7.879
REMARK  Name = 
REMARK  7 active torsions:
REMARK  status: ('A' for Active; 'I' for Inactive)
REMARK    1  A    between atoms: C_1  and  N_2
REMARK    2  A    between atoms: C_6  and  C_8
REMARK    3  A    between atoms: C_8  and  O_9
REMARK    4  A    between atoms: O_9  and  C_10
REMARK    5  A    between atoms: C_13  and  C_14
REMARK    6  A    between atoms: C_14  and  C_16
REMARK    7  A    between atoms: C_17  and  C_18
REMARK                            x       y       z     vdW  Elec       q    Type
REMARK                         _______ _______ _______ _____ _____    ______ ____
ROOT
ATOM      1  C   UNL     1       2.247   7.435  19.358  0.00  0.00    +0.000 A 
ATOM      2  C   UNL     1       2.550   6.262  20.047  0.00  0.00    +0.000 A 
ATOM      3  C   UNL     1       3.571   5.427  19.591  0.00  0.00    +0.000 A 
ATOM      4  C   UNL     1       4.294   5.747  18.434  0.00  0.00    +0.000 A 
ATOM      5  C   UNL     1       3.957   6.899  17.714  0.00  0.00    +0.000 A 
ATOM      6  C   UNL     1       2.931   7.735  18.178  0.00  0.00    +0.000 A 
ENDROOT
BRANCH   4   7
ATOM      7  C   UNL     1       5.370   4.807  18.023  0.00  0.00    +0.000 C 
ATOM      8  O   UNL     1       5.780   3.970  18.822  0.00  0.00    +0.000 OA
BRANCH   7   9
ATOM      9  C   UNL     1       5.967   4.954  16.670  0.00  0.00    +0.000 C 
ATOM     10  C   UNL     1       5.537   4.158  15.679  0.00  0.00    +0.000 C 
BRANCH  10  11
ATOM     11  C   UNL     1       6.128   4.222  14.345  0.00  0.00    +0.000 A 
ATOM     12  C   UNL     1       5.596   3.450  13.307  0.00  0.00    +0.000 A 
ATOM     13  C   UNL     1       6.176   3.486  12.039  0.00  0.00    +0.000 A 
ATOM     14  C   UNL     1       7.287   4.294  11.802  0.00  0.00    +0.000 A 
ATOM     15  C   UNL     1       7.817   5.071  12.832  0.00  0.00    +0.000 A 
ATOM     16  C   UNL     1       7.239   5.036  14.102  0.00  0.00    +0.000 A 
ENDBRANCH  10  11
ENDBRANCH   7   9
ENDBRANCH   4   7
BRANCH   1  17
ATOM     17  O   UNL     1       1.293   8.336  19.747  0.00  0.00    +0.000 OA
BRANCH  17  18
ATOM     18  C   UNL     1       0.854   8.198  21.097  0.00  0.00    +0.000 C 
BRANCH  18  24
ATOM     19  C   UNL     1      -0.367  14.023  18.580  0.00  0.00    +0.000 C 
ATOM     20  N   UNL     1      -0.617  12.936  19.525  0.00  0.00    +0.000 NA
ATOM     21  C   UNL     1       0.276  13.055  20.698  0.00  0.00    +0.000 C 
ATOM     22  C   UNL     1       0.056  11.916  21.709  0.00  0.00    +0.000 C 
ATOM     23  N   UNL     1       0.163  10.603  21.071  0.00  0.00    +0.000 N 
ATOM     24  C   UNL     1       0.754   9.565  21.770  0.00  0.00    +0.000 C 
ATOM     25  O   UNL     1       1.197   9.716  22.912  0.00  0.00    +0.000 OA
ATOM     26  C   UNL     1      -0.638  10.455  19.852  0.00  0.00    +0.000 C 
ATOM     27  C   UNL     1      -0.410  11.625  18.876  0.00  0.00    +0.000 C 
ENDBRANCH  18  24
ENDBRANCH  17  18
ENDBRANCH   1  17
TORSDOF 6
ENDMDL
MODEL 8
REMARK VINA RESULT:      -7.5      5.685      9.564
REMARK  Name = 
REMARK  7 active torsions:
REMARK  status: ('A' for Active; 'I' for Inactive)
REMARK    1  A    between atoms: C_1  and  N_2
REMARK    2  A    between atoms: C_6  and  C_8
REMARK    3  A    between atoms: C_8  and  O_9
REMARK    4  A    between atoms: O_9  and  C_10
REMARK    5  A    between atoms: C_13  and  C_14
REMARK    6  A    between atoms: C_14  and  C_16
REMARK    7  A    between atoms: C_17  and  C_18
REMARK                            x       y       z     vdW  Elec       q    Type
REMARK                         _______ _______ _______ _____ _____    ______ ____
ROOT
ATOM      1  C   UNL     1       2.388   6.909  19.524  0.00  0.00    +0.000 A 
ATOM      2  C   UNL     1       2.425   7.499  18.262  0.00  0.00    +0.000 A 
ATOM      3  C   UNL     1       1.871   8.765  18.065  0.00  0.00    +0.000 A 
ATOM      4  C   UNL     1       1.263   9.452  19.124  0.00  0.00    +0.000 A 
ATOM      5  C   UNL     1       1.181   8.839  20.380  0.00  0.00    +0.000 A 
ATOM      6  C   UNL     1       1.740   7.568  20.571  0.00  0.00    +0.000 A 
ENDROOT
BRANCH   4   7
ATOM      7  C   UNL     1       0.705  10.798  18.830  0.00  0.00    +0.000 C 
ATOM      8  O   UNL     1      -0.508  10.936  18.699  0.00  0.00    +0.000 OA
BRANCH   7   9
ATOM      9  C   UNL     1       1.645  11.933  18.635  0.00  0.00    +0.000 C 
ATOM     10  C   UNL     1       1.179  13.187  18.729  0.00  0.00    +0.000 C 
BRANCH  10  11
ATOM     11  C   UNL     1       2.047  14.338  18.492  0.00  0.00    +0.000 A 
ATOM     12  C   UNL     1       3.374  14.143  18.094  0.00  0.00    +0.000 A 
ATOM     13  C   UNL     1       4.214  15.239  17.895  0.00  0.00    +0.000 A 
ATOM     14  C   UNL     1       3.731  16.532  18.088  0.00  0.00    +0.000 A 
ATOM     15  C   UNL     1       2.407  16.732  18.477  0.00  0.00    +0.000 A 
ATOM     16  C   UNL     1       1.564  15.637  18.678  0.00  0.00    +0.000 A 
ENDBRANCH  10  11
ENDBRANCH   7   9
ENDBRANCH   4   7
BRANCH   1  17
ATOM     17  O   UNL     1       2.937   5.692  19.825  0.00  0.00    +0.000 OA
BRANCH  17  18
ATOM     18  C   UNL     1       3.227   4.869  18.697  0.00  0.00    +0.000 C 
BRANCH  18  24
ATOM     19  C   UNL     1       7.434   5.060  13.796  0.00  0.00    +0.000 C 
ATOM     20  N   UNL     1       6.996   5.399  15.149  0.00  0.00    +0.000 NA
ATOM     21  C   UNL     1       7.349   4.318  16.093  0.00  0.00    +0.000 C 
ATOM     22  C   UNL     1       6.888   4.630  17.527  0.00  0.00    +0.000 C 
ATOM     23  N   UNL     1       5.462   4.954  17.575  0.00  0.00    +0.000 N 
ATOM     24  C   UNL     1       4.712   4.520  18.655  0.00  0.00    +0.000 C 
ATOM     25  O   UNL     1       5.211   3.865  19.574  0.00  0.00    +0.000 OA
ATOM     26  C   UNL     1       5.037   5.963  16.600  0.00  0.00    +0.000 C 
ATOM     27  C   UNL     1       5.538   5.630  15.182  0.00  0.00    +0.000 C 
ENDBRANCH  18  24
ENDBRANCH  17  18
ENDBRANCH   1  17
TORSDOF 6
ENDMDL
MODEL 9
REMARK VINA RESULT:      -7.5      5.716      7.558
REMARK  Name = 
REMARK  7 active torsions:
REMARK  status: ('A' for Active; 'I' for Inactive)
REMARK    1  A    between atoms: C_1  and  N_2
REMARK    2  A    between atoms: C_6  and  C_8
REMARK    3  A    between atoms: C_8  and  O_9
REMARK    4  A    between atoms: O_9  and  C_10
REMARK    5  A    between atoms: C_13  and  C_14
REMARK    6  A    between atoms: C_14  and  C_16
REMARK    7  A    between atoms: C_17  and  C_18
REMARK                            x       y       z     vdW  Elec       q    Type
REMARK                         _______ _______ _______ _____ _____    ______ ____
ROOT
ATOM      1  C   UNL     1       2.174   8.013  19.018  0.00  0.00    +0.000 A 
ATOM      2  C   UNL     1       2.293   6.869  19.805  0.00  0.00    +0.000 A 
ATOM      3  C   UNL     1       3.202   5.870  19.455  0.00  0.00    +0.000 A 
ATOM      4  C   UNL     1       3.996   5.996  18.306  0.00  0.00    +0.000 A 
ATOM      5  C   UNL     1       3.841   7.121  17.488  0.00  0.00    +0.000 A 
ATOM      6  C   UNL     1       2.927   8.122  17.846  0.00  0.00    +0.000 A 
ENDROOT
BRANCH   4   7
ATOM      7  C   UNL     1       4.944   4.890  18.010  0.00  0.00    +0.000 C 
ATOM      8  O   UNL     1       5.129   4.011  18.848  0.00  0.00    +0.000 OA
BRANCH   7   9
ATOM      9  C   UNL     1       5.694   4.917  16.728  0.00  0.00    +0.000 C 
ATOM     10  C   UNL     1       5.144   4.357  15.640  0.00  0.00    +0.000 C 
BRANCH  10  11
ATOM     11  C   UNL     1       5.861   4.307  14.369  0.00  0.00    +0.000 A 
ATOM     12  C   UNL     1       5.389   3.496  13.331  0.00  0.00    +0.000 A 
ATOM     13  C   UNL     1       6.087   3.423  12.125  0.00  0.00    +0.000 A 
ATOM     14  C   UNL     1       7.257   4.160  11.951  0.00  0.00    +0.000 A 
ATOM     15  C   UNL     1       7.728   4.976  12.980  0.00  0.00    +0.000 A 
ATOM     16  C   UNL     1       7.032   5.050  14.187  0.00  0.00    +0.000 A 
ENDBRANCH  10  11
ENDBRANCH   7   9
ENDBRANCH   4   7
BRANCH   1  17
ATOM     17  O   UNL     1       1.342   9.063  19.299  0.00  0.00    +0.000 OA
BRANCH  17  18
ATOM     18  C   UNL     1       0.721   9.656  18.160  0.00  0.00    +0.000 C 
BRANCH  18  24
ATOM     19  C   UNL     1       1.569  14.967  21.742  0.00  0.00    +0.000 C 
ATOM     20  N   UNL     1       1.124  14.267  20.538  0.00  0.00    +0.000 NA
ATOM     21  C   UNL     1      -0.239  13.726  20.728  0.00  0.00    +0.000 C 
ATOM     22  C   UNL     1      -0.736  12.964  19.486  0.00  0.00    +0.000 C 
ATOM     23  N   UNL     1       0.211  11.928  19.076  0.00  0.00    +0.000 N 
ATOM     24  C   UNL     1      -0.278  10.727  18.591  0.00  0.00    +0.000 C 
ATOM     25  O   UNL     1      -1.488  10.505  18.500  0.00  0.00    +0.000 OA
ATOM     26  C   UNL     1       1.598  12.389  18.953  0.00  0.00    +0.000 C 
ATOM     27  C   UNL     1       2.051  13.167  20.203  0.00  0.00    +0.000 C 
ENDBRANCH  18  24
ENDBRANCH  17  18
ENDBRANCH   1  17
TORSDOF 6
ENDMDL
