MODEL 1
REMARK VINA RESULT:      -7.7      0.000      0.000
REMARK  Name = 
REMARK  8 active torsions:
REMARK  status: ('A' for Active; 'I' for Inactive)
REMARK    1  A    between atoms: C_1  and  C_2
REMARK    2  A    between atoms: C_2  and  C_3
REMARK    3  A    between atoms: C_3  and  N_4
REMARK    4  A    between atoms: C_3  and  C_8
REMARK    5  A    between atoms: C_5  and  C_6
REMARK    6  A    between atoms: C_11  and  C_12
REMARK    7  A    between atoms: C_12  and  N_13
REMARK    8  A    between atoms: N_16  and  C_17
REMARK                            x       y       z     vdW  Elec       q    Type
REMARK                         _______ _______ _______ _____ _____    ______ ____
ROOT
ATOM      1  C   UNL     1       1.231   9.659  19.572  0.00  0.00    +0.000 A 
ATOM      2  C   UNL     1       1.391   8.581  20.455  0.00  0.00    +0.000 A 
ATOM      3  C   UNL     1       1.938   7.358  20.011  0.00  0.00    +0.000 A 
ATOM      4  C   UNL     1       2.283   7.169  18.664  0.00  0.00    +0.000 A 
ATOM      5  C   UNL     1       2.110   8.251  17.789  0.00  0.00    +0.000 A 
ATOM      6  C   UNL     1       1.611   9.475  18.236  0.00  0.00    +0.000 A 
ENDROOT
BRANCH   1   7
ATOM      7  C   UNL     1       0.722  11.034  20.031  0.00  0.00    +0.000 C 
BRANCH   7   8
ATOM      8  N   UNL     1      -0.209  10.832  21.155  0.00  0.00    +0.000 N 
ATOM      9  C   UNL     1      -0.516  11.759  22.119  0.00  0.00    +0.000 C 
ATOM     10  C   UNL     1      -1.552  11.269  23.102  0.00  0.00    +0.000 C 
ATOM     11  O   UNL     1      -0.020  12.876  22.197  0.00  0.00    +0.000 OA
ATOM     12  H   UNL     1      -0.425   9.870  21.381  0.00  0.00    +0.000 HD
ENDBRANCH   7   8
BRANCH   7  14
ATOM     13  C   UNL     1       0.563  13.191  18.624  0.00  0.00    +0.000 C 
ATOM     14  C   UNL     1       0.042  11.777  18.856  0.00  0.00    +0.000 C 
ENDBRANCH   7  14
ENDBRANCH   1   7
BRANCH   4  15
ATOM     15  C   UNL     1       2.972   5.935  18.102  0.00  0.00    +0.000 C 
BRANCH  15  16
ATOM     16  N   UNL     1       4.429   5.839  18.254  0.00  0.00    +0.000 NA
ATOM     17  C   UNL     1       4.965   4.481  18.008  0.00  0.00    +0.000 C 
ATOM     18  C   UNL     1       5.061   3.997  16.535  0.00  0.00    +0.000 C 
ATOM     19  N   UNL     1       5.679   5.013  15.668  0.00  0.00    +0.000 N 
ATOM     20  C   UNL     1       5.142   6.376  15.826  0.00  0.00    +0.000 C 
ATOM     21  C   UNL     1       5.113   6.778  17.324  0.00  0.00    +0.000 C 
BRANCH  19  22
ATOM     22  C   UNL     1       6.232   4.641  14.443  0.00  0.00    +0.000 A 
ATOM     23  C   UNL     1       7.364   5.262  13.889  0.00  0.00    +0.000 A 
ATOM     24  C   UNL     1       7.819   4.960  12.596  0.00  0.00    +0.000 A 
ATOM     25  C   UNL     1       7.149   4.021  11.821  0.00  0.00    +0.000 A 
ATOM     26  C   UNL     1       6.046   3.366  12.351  0.00  0.00    +0.000 A 
ATOM     27  C   UNL     1       5.603   3.669  13.645  0.00  0.00    +0.000 A 
ENDBRANCH  19  22
ENDBRANCH  15  16
ENDBRANCH   4  15
TORSDOF 6
ENDMDL
MODEL 2
REMARK VINA RESULT:      -7.6      0.954      2.309
REMARK  Name = 
REMARK  8 active torsions:
REMARK  status: ('A' for Active; 'I' for Inactive)
REMARK    1  A    between atoms: C_1  and  C_2
REMARK    2  A    between atoms: C_2  and  C_3
REMARK    3  A    between atoms: C_3  and  N_4
REMARK    4  A    between atoms: C_3  and  C_8
REMARK    5  A    between atoms: C_5  and  C_6
REMARK    6  A    between atoms: C_11  and  C_12
REMARK    7  A    between atoms: C_12  and  N_13
REMARK    8  A    between atoms: N_16  and  C_17
REMARK                            x       y       z     vdW  Elec       q    Type
REMARK                         _______ _______ _______ _____ _____    ______ ____
ROOT
ATOM      1  C   UNL     1       0.994   9.093  19.936  0.00  0.00    +0.000 A 
ATOM      2  C   UNL     1       1.450   9.103  18.609  0.00  0.00    +0.000 A 
ATOM      3  C   UNL     1       2.218   8.032  18.102  0.00  0.00    +0.000 A 
ATOM      4  C   UNL     1       2.592   6.959  18.924  0.00  0.00    +0.000 A 
ATOM      5  C   UNL     1       2.137   6.965  20.251  0.00  0.00    +0.000 A 
ATOM      6  C   UNL     1       1.342   8.001  20.741  0.00  0.00    +0.000 A 
ENDROOT
BRANCH   1   7
ATOM      7  C   UNL     1       0.085  10.193  20.503  0.00  0.00    +0.000 C 
BRANCH   7   8
ATOM      8  N   UNL     1       0.308  11.426  19.727  0.00  0.00    +0.000 N 
ATOM      9  C   UNL     1      -0.671  12.262  19.252  0.00  0.00    +0.000 C 
ATOM     10  C   UNL     1      -0.118  13.476  18.543  0.00  0.00    +0.000 C 
ATOM     11  O   UNL     1      -1.874  12.071  19.376  0.00  0.00    +0.000 OA
ATOM     12  H   UNL     1       1.216  11.514  19.291  0.00  0.00    +0.000 HD
ENDBRANCH   7   8
BRANCH   7  14
ATOM     13  C   UNL     1      -0.859  10.731  22.845  0.00  0.00    +0.000 C 
ATOM     14  C   UNL     1       0.375  10.410  22.008  0.00  0.00    +0.000 C 
ENDBRANCH   7  14
ENDBRANCH   1   7
BRANCH   4  15
ATOM     15  C   UNL     1       3.324   5.711  18.456  0.00  0.00    +0.000 C 
BRANCH  15  16
ATOM     16  N   UNL     1       4.791   5.762  18.402  0.00  0.00    +0.000 NA
ATOM     17  C   UNL     1       5.420   4.462  18.072  0.00  0.00    +0.000 C 
ATOM     18  C   UNL     1       5.357   3.983  16.596  0.00  0.00    +0.000 C 
ATOM     19  N   UNL     1       5.743   5.050  15.659  0.00  0.00    +0.000 N 
ATOM     20  C   UNL     1       5.101   6.353  15.902  0.00  0.00    +0.000 C 
ATOM     21  C   UNL     1       5.241   6.759  17.393  0.00  0.00    +0.000 C 
BRANCH  19  22
ATOM     22  C   UNL     1       6.153   4.728  14.366  0.00  0.00    +0.000 A 
ATOM     23  C   UNL     1       5.518   3.755  13.577  0.00  0.00    +0.000 A 
ATOM     24  C   UNL     1       6.032   3.355  12.333  0.00  0.00    +0.000 A 
ATOM     25  C   UNL     1       7.201   3.925  11.845  0.00  0.00    +0.000 A 
ATOM     26  C   UNL     1       7.837   4.912  12.586  0.00  0.00    +0.000 A 
ATOM     27  C   UNL     1       7.313   5.309  13.823  0.00  0.00    +0.000 A 
ENDBRANCH  19  22
ENDBRANCH  15  16
ENDBRANCH   4  15
TORSDOF 6
ENDMDL
MODEL 3
REMARK VINA RESULT:      -7.5      1.005      2.215
REMARK  Name = 
REMARK  8 active torsions:
REMARK  status: ('A' for Active; 'I' for Inactive)
REMARK    1  A    between atoms: C_1  and  C_2
REMARK    2  A    between atoms: C_2  and  C_3
REMARK    3  A    between atoms: C_3  and  N_4
REMARK    4  A    between atoms: C_3  and  C_8
REMARK    5  A    between atoms: C_5  and  C_6
REMARK    6  A    between atoms: C_11  and  C_12
REMARK    7  A    between atoms: C_12  and  N_13
REMARK    8  A    between atoms: N_16  and  C_17
REMARK                            x       y       z     vdW  Elec       q    Type
REMARK                         _______ _______ _______ _____ _____    ______ ____
ROOT
ATOM      1  C   UNL     1       1.014   9.486  19.877  0.00  0.00    +0.000 A 
ATOM      2  C   UNL     1       1.210   9.427  18.489  0.00  0.00    +0.000 A 
ATOM      3  C   UNL     1       1.816   8.300  17.892  0.00  0.00    +0.000 A 
ATOM      4  C   UNL     1       2.289   7.236  18.674  0.00  0.00    +0.000 A 
ATOM      5  C   UNL     1       2.095   7.311  20.061  0.00  0.00    +0.000 A 
ATOM      6  C   UNL     1       1.457   8.403  20.648  0.00  0.00    +0.000 A 
ENDROOT
BRANCH   1   7
ATOM      7  C   UNL     1       0.282  10.651  20.558  0.00  0.00    +0.000 C 
BRANCH   7   8
ATOM      8  N   UNL     1       0.818  11.914  20.020  0.00  0.00    +0.000 N 
ATOM      9  C   UNL     1       0.209  12.709  19.083  0.00  0.00    +0.000 C 
ATOM     10  C   UNL     1       0.985  13.969  18.781  0.00  0.00    +0.000 C 
ATOM     11  O   UNL     1      -0.855  12.452  18.533  0.00  0.00    +0.000 OA
ATOM     12  H   UNL     1       1.810  12.061  20.149  0.00  0.00    +0.000 HD
ENDBRANCH   7   8
BRANCH   7  14
ATOM     13  C   UNL     1      -0.674   9.833  22.811  0.00  0.00    +0.000 C 
ATOM     14  C   UNL     1       0.451  10.571  22.095  0.00  0.00    +0.000 C 
ENDBRANCH   7  14
ENDBRANCH   1   7
BRANCH   4  15
ATOM     15  C   UNL     1       2.860   5.936  18.129  0.00  0.00    +0.000 C 
BRANCH  15  16
ATOM     16  N   UNL     1       4.291   5.681  18.336  0.00  0.00    +0.000 NA
ATOM     17  C   UNL     1       4.705   4.300  17.998  0.00  0.00    +0.000 C 
ATOM     18  C   UNL     1       4.831   3.930  16.495  0.00  0.00    +0.000 C 
ATOM     19  N   UNL     1       5.589   4.945  15.746  0.00  0.00    +0.000 N 
ATOM     20  C   UNL     1       5.179   6.337  15.997  0.00  0.00    +0.000 C 
ATOM     21  C   UNL     1       5.111   6.618  17.521  0.00  0.00    +0.000 C 
BRANCH  19  22
ATOM     22  C   UNL     1       6.166   4.619  14.520  0.00  0.00    +0.000 A 
ATOM     23  C   UNL     1       7.329   5.235  14.028  0.00  0.00    +0.000 A 
ATOM     24  C   UNL     1       7.812   4.986  12.734  0.00  0.00    +0.000 A 
ATOM     25  C   UNL     1       7.140   4.105  11.895  0.00  0.00    +0.000 A 
ATOM     26  C   UNL     1       6.005   3.455  12.362  0.00  0.00    +0.000 A 
ATOM     27  C   UNL     1       5.534   3.706  13.657  0.00  0.00    +0.000 A 
ENDBRANCH  19  22
ENDBRANCH  15  16
ENDBRANCH   4  15
TORSDOF 6
ENDMDL
MODEL 4
REMARK VINA RESULT:      -7.4      1.157      2.321
REMARK  Name = 
REMARK  8 active torsions:
REMARK  status: ('A' for Active; 'I' for Inactive)
REMARK    1  A    between atoms: C_1  and  C_2
REMARK    2  A    between atoms: C_2  and  C_3
REMARK    3  A    between atoms: C_3  and  N_4
REMARK    4  A    between atoms: C_3  and  C_8
REMARK    5  A    between atoms: C_5  and  C_6
REMARK    6  A    between atoms: C_11  and  C_12
REMARK    7  A    between atoms: C_12  and  N_13
REMARK    8  A    between atoms: N_16  and  C_17
REMARK                            x       y       z     vdW  Elec       q    Type
REMARK                         _______ _______ _______ _____ _____    ______ ____
ROOT
ATOM      1  C   UNL     1       1.145   9.743  19.658  0.00  0.00    +0.000 A 
ATOM      2  C   UNL     1       1.465   9.622  18.298  0.00  0.00    +0.000 A 
ATOM      3  C   UNL     1       2.039   8.435  17.793  0.00  0.00    +0.000 A 
ATOM      4  C   UNL     1       2.356   7.368  18.647  0.00  0.00    +0.000 A 
ATOM      5  C   UNL     1       2.040   7.504  20.006  0.00  0.00    +0.000 A 
ATOM      6  C   UNL     1       1.432   8.659  20.498  0.00  0.00    +0.000 A 
ENDROOT
BRANCH   1   7
ATOM      7  C   UNL     1       0.440  10.981  20.233  0.00  0.00    +0.000 C 
BRANCH   7   8
ATOM      8  N   UNL     1       1.461  12.002  20.523  0.00  0.00    +0.000 N 
ATOM      9  C   UNL     1       1.843  13.015  19.680  0.00  0.00    +0.000 C 
ATOM     10  C   UNL     1       2.872  13.936  20.292  0.00  0.00    +0.000 C 
ATOM     11  O   UNL     1       1.411  13.183  18.547  0.00  0.00    +0.000 OA
ATOM     12  H   UNL     1       2.104  11.783  21.272  0.00  0.00    +0.000 HD
ENDBRANCH   7   8
BRANCH   7  14
ATOM     13  C   UNL     1      -1.319  11.689  21.983  0.00  0.00    +0.000 C 
ATOM     14  C   UNL     1      -0.363  10.603  21.501  0.00  0.00    +0.000 C 
ENDBRANCH   7  14
ENDBRANCH   1   7
BRANCH   4  15
ATOM     15  C   UNL     1       2.878   6.012  18.197  0.00  0.00    +0.000 C 
BRANCH  15  16
ATOM     16  N   UNL     1       4.319   5.759  18.326  0.00  0.00    +0.000 NA
ATOM     17  C   UNL     1       4.715   4.377  17.969  0.00  0.00    +0.000 C 
ATOM     18  C   UNL     1       4.760   4.004  16.462  0.00  0.00    +0.000 C 
ATOM     19  N   UNL     1       5.474   5.019  15.670  0.00  0.00    +0.000 N 
ATOM     20  C   UNL     1       5.078   6.411  15.940  0.00  0.00    +0.000 C 
ATOM     21  C   UNL     1       5.092   6.695  17.465  0.00  0.00    +0.000 C 
BRANCH  19  22
ATOM     22  C   UNL     1       5.984   4.691  14.415  0.00  0.00    +0.000 A 
ATOM     23  C   UNL     1       5.388   3.744  13.565  0.00  0.00    +0.000 A 
ATOM     24  C   UNL     1       5.995   3.335  12.367  0.00  0.00    +0.000 A 
ATOM     25  C   UNL     1       7.220   3.868  11.986  0.00  0.00    +0.000 A 
ATOM     26  C   UNL     1       7.821   4.829  12.788  0.00  0.00    +0.000 A 
ATOM     27  C   UNL     1       7.205   5.237  13.979  0.00  0.00    +0.000 A 
ENDBRANCH  19  22
ENDBRANCH  15  16
ENDBRANCH   4  15
TORSDOF 6
ENDMDL
MODEL 5
REMARK VINA RESULT:      -7.3      3.318      9.951
REMARK  Name = 
REMARK  8 active torsions:
REMARK  status: ('A' for Active; 'I' for Inactive)
REMARK    1  A    between atoms: C_1  and  C_2
REMARK    2  A    between atoms: C_2  and  C_3
REMARK    3  A    between atoms: C_3  and  N_4
REMARK    4  A    between atoms: C_3  and  C_8
REMARK    5  A    between atoms: C_5  and  C_6
REMARK    6  A    between atoms: C_11  and  C_12
REMARK    7  A    between atoms: C_12  and  N_13
REMARK    8  A    between atoms: N_16  and  C_17
REMARK                            x       y       z     vdW  Elec       q    Type
REMARK                         _______ _______ _______ _____ _____    ______ ____
ROOT
ATOM      1  C   UNL     1       2.429   6.686  19.512  0.00  0.00    +0.000 A 
ATOM      2  C   UNL     1       1.783   7.341  20.570  0.00  0.00    +0.000 A 
ATOM      3  C   UNL     1       1.232   8.629  20.394  0.00  0.00    +0.000 A 
ATOM      4  C   UNL     1       1.366   9.310  19.175  0.00  0.00    +0.000 A 
ATOM      5  C   UNL     1       2.022   8.648  18.127  0.00  0.00    +0.000 A 
ATOM      6  C   UNL     1       2.527   7.357  18.286  0.00  0.00    +0.000 A 
ENDROOT
BRANCH   1   7
ATOM      7  C   UNL     1       2.964   5.251  19.634  0.00  0.00    +0.000 C 
BRANCH   7   8
ATOM      8  N   UNL     1       3.579   4.875  18.349  0.00  0.00    +0.000 N 
ATOM      9  C   UNL     1       4.787   4.243  18.194  0.00  0.00    +0.000 C 
ATOM     10  C   UNL     1       5.115   3.940  16.751  0.00  0.00    +0.000 C 
ATOM     11  O   UNL     1       5.542   3.941  19.110  0.00  0.00    +0.000 OA
ATOM     12  H   UNL     1       3.219   5.349  17.532  0.00  0.00    +0.000 HD
ENDBRANCH   7   8
BRANCH   7  14
ATOM     13  C   UNL     1       2.014   3.597  21.373  0.00  0.00    +0.000 C 
ATOM     14  C   UNL     1       1.823   4.281  20.023  0.00  0.00    +0.000 C 
ENDBRANCH   7  14
ENDBRANCH   1   7
BRANCH   4  15
ATOM     15  C   UNL     1       0.726  10.650  18.845  0.00  0.00    +0.000 C 
BRANCH  15  16
ATOM     16  N   UNL     1       0.364  11.526  19.966  0.00  0.00    +0.000 NA
ATOM     17  C   UNL     1       1.453  12.440  20.383  0.00  0.00    +0.000 C 
ATOM     18  C   UNL     1       1.748  13.671  19.484  0.00  0.00    +0.000 C 
ATOM     19  N   UNL     1       0.516  14.390  19.123  0.00  0.00    +0.000 N 
ATOM     20  C   UNL     1      -0.584  13.536  18.642  0.00  0.00    +0.000 C 
ATOM     21  C   UNL     1      -0.822  12.355  19.619  0.00  0.00    +0.000 C 
BRANCH  19  22
ATOM     22  C   UNL     1       0.582  15.714  18.693  0.00  0.00    +0.000 A 
ATOM     23  C   UNL     1      -0.545  16.546  18.586  0.00  0.00    +0.000 A 
ATOM     24  C   UNL     1      -0.470  17.831  18.024  0.00  0.00    +0.000 A 
ATOM     25  C   UNL     1       0.744  18.318  17.555  0.00  0.00    +0.000 A 
ATOM     26  C   UNL     1       1.883  17.533  17.675  0.00  0.00    +0.000 A 
ATOM     27  C   UNL     1       1.800  16.256  18.243  0.00  0.00    +0.000 A 
ENDBRANCH  19  22
ENDBRANCH  15  16
ENDBRANCH   4  15
TORSDOF 6
ENDMDL
MODEL 6
REMARK VINA RESULT:      -7.3      1.133      1.285
REMARK  Name = 
REMARK  8 active torsions:
REMARK  status: ('A' for Active; 'I' for Inactive)
REMARK    1  A    between atoms: C_1  and  C_2
REMARK    2  A    between atoms: C_2  and  C_3
REMARK    3  A    between atoms: C_3  and  N_4
REMARK    4  A    between atoms: C_3  and  C_8
REMARK    5  A    between atoms: C_5  and  C_6
REMARK    6  A    between atoms: C_11  and  C_12
REMARK    7  A    between atoms: C_12  and  N_13
REMARK    8  A    between atoms: N_16  and  C_17
REMARK                            x       y       z     vdW  Elec       q    Type
REMARK                         _______ _______ _______ _____ _____    ______ ____
ROOT
ATOM      1  C   UNL     1       1.285   9.713  19.281  0.00  0.00    +0.000 A 
ATOM      2  C   UNL     1       1.377   8.727  20.275  0.00  0.00    +0.000 A 
ATOM      3  C   UNL     1       1.949   7.468  19.992  0.00  0.00    +0.000 A 
ATOM      4  C   UNL     1       2.389   7.149  18.699  0.00  0.00    +0.000 A 
ATOM      5  C   UNL     1       2.283   8.140  17.712  0.00  0.00    +0.000 A 
ATOM      6  C   UNL     1       1.759   9.400  18.000  0.00  0.00    +0.000 A 
ENDROOT
BRANCH   1   7
ATOM      7  C   UNL     1       0.751  11.125  19.567  0.00  0.00    +0.000 C 
BRANCH   7   8
ATOM      8  N   UNL     1      -0.670  11.169  19.180  0.00  0.00    +0.000 N 
ATOM      9  C   UNL     1      -1.598  12.069  19.642  0.00  0.00    +0.000 C 
ATOM     10  C   UNL     1      -2.959  11.891  19.011  0.00  0.00    +0.000 C 
ATOM     11  O   UNL     1      -1.376  12.937  20.475  0.00  0.00    +0.000 OA
ATOM     12  H   UNL     1      -1.040  10.327  18.762  0.00  0.00    +0.000 HD
ENDBRANCH   7   8
BRANCH   7  14
ATOM     13  C   UNL     1       2.259  13.215  19.690  0.00  0.00    +0.000 C 
ATOM     14  C   UNL     1       1.582  12.181  18.798  0.00  0.00    +0.000 C 
ENDBRANCH   7  14
ENDBRANCH   1   7
BRANCH   4  15
ATOM     15  C   UNL     1       3.110   5.868  18.311  0.00  0.00    +0.000 C 
BRANCH  15  16
ATOM     16  N   UNL     1       4.577   5.865  18.378  0.00  0.00    +0.000 NA
ATOM     17  C   UNL     1       5.181   4.533  18.141  0.00  0.00    +0.000 C 
ATOM     18  C   UNL     1       5.222   4.007  16.681  0.00  0.00    +0.000 C 
ATOM     19  N   UNL     1       5.724   5.029  15.748  0.00  0.00    +0.000 N 
ATOM     20  C   UNL     1       5.114   6.361  15.897  0.00  0.00    +0.000 C 
ATOM     21  C   UNL     1       5.146   6.811  17.381  0.00  0.00    +0.000 C 
BRANCH  19  22
ATOM     22  C   UNL     1       6.227   4.650  14.504  0.00  0.00    +0.000 A 
ATOM     23  C   UNL     1       7.367   5.232  13.925  0.00  0.00    +0.000 A 
ATOM     24  C   UNL     1       7.773   4.928  12.616  0.00  0.00    +0.000 A 
ATOM     25  C   UNL     1       7.045   4.024  11.851  0.00  0.00    +0.000 A 
ATOM     26  C   UNL     1       5.932   3.407  12.405  0.00  0.00    +0.000 A 
ATOM     27  C   UNL     1       5.538   3.713  13.714  0.00  0.00    +0.000 A 
ENDBRANCH  19  22
ENDBRANCH  15  16
ENDBRANCH   4  15
TORSDOF 6
ENDMDL
MODEL 7
REMARK VINA RESULT:      -7.3      3.875     10.164
REMARK  Name = 
REMARK  8 active torsions:
REMARK  status: ('A' for Active; 'I' for Inactive)
REMARK    1  A    between atoms: C_1  and  C_2
REMARK    2  A    between atoms: C_2  and  C_3
REMARK    3  A    between atoms: C_3  and  N_4
REMARK    4  A    between atoms: C_3  and  C_8
REMARK    5  A    between atoms: C_5  and  C_6
REMARK    6  A    between atoms: C_11  and  C_12
REMARK    7  A    between atoms: C_12  and  N_13
REMARK    8  A    between atoms: N_16  and  C_17
REMARK                            x       y       z     vdW  Elec       q    Type
REMARK                         _______ _______ _______ _____ _____    ______ ____
ROOT
ATOM      1  C   UNL     1       2.624   7.079  18.460  0.00  0.00    +0.000 A 
ATOM      2  C   UNL     1       2.132   7.149  19.771  0.00  0.00    +0.000 A 
ATOM      3  C   UNL     1       1.391   8.270  20.207  0.00  0.00    +0.000 A 
ATOM      4  C   UNL     1       1.176   9.366  19.359  0.00  0.00    +0.000 A 
ATOM      5  C   UNL     1       1.680   9.288  18.052  0.00  0.00    +0.000 A 
ATOM      6  C   UNL     1       2.374   8.163  17.607  0.00  0.00    +0.000 A 
ENDROOT
BRANCH   1   7
ATOM      7  C   UNL     1       3.358   5.844  17.918  0.00  0.00    +0.000 C 
BRANCH   7   8
ATOM      8  N   UNL     1       2.898   4.664  18.673  0.00  0.00    +0.000 N 
ATOM      9  C   UNL     1       1.874   3.828  18.305  0.00  0.00    +0.000 C 
ATOM     10  C   UNL     1       1.684   2.672  19.259  0.00  0.00    +0.000 C 
ATOM     11  O   UNL     1       1.173   3.975  17.313  0.00  0.00    +0.000 OA
ATOM     12  H   UNL     1       3.173   4.628  19.645  0.00  0.00    +0.000 HD
ENDBRANCH   7   8
BRANCH   7  14
ATOM     13  C   UNL     1       5.532   5.243  19.172  0.00  0.00    +0.000 C 
ATOM     14  C   UNL     1       4.890   6.032  18.037  0.00  0.00    +0.000 C 
ENDBRANCH   7  14
ENDBRANCH   1   7
BRANCH   4  15
ATOM     15  C   UNL     1       0.310  10.571  19.689  0.00  0.00    +0.000 C 
BRANCH  15  16
ATOM     16  N   UNL     1      -0.189  11.380  18.569  0.00  0.00    +0.000 NA
ATOM     17  C   UNL     1      -1.144  10.660  17.695  0.00  0.00    +0.000 C 
ATOM     18  C   UNL     1      -2.590  10.451  18.221  0.00  0.00    +0.000 C 
ATOM     19  N   UNL     1      -3.155  11.694  18.770  0.00  0.00    +0.000 N 
ATOM     20  C   UNL     1      -2.271  12.422  19.697  0.00  0.00    +0.000 C 
ATOM     21  C   UNL     1      -0.863  12.607  19.073  0.00  0.00    +0.000 C 
BRANCH  19  22
ATOM     22  C   UNL     1      -4.536  11.833  18.901  0.00  0.00    +0.000 A 
ATOM     23  C   UNL     1      -5.459  11.134  18.106  0.00  0.00    +0.000 A 
ATOM     24  C   UNL     1      -6.838  11.393  18.165  0.00  0.00    +0.000 A 
ATOM     25  C   UNL     1      -7.329  12.362  19.031  0.00  0.00    +0.000 A 
ATOM     26  C   UNL     1      -6.447  13.049  19.853  0.00  0.00    +0.000 A 
ATOM     27  C   UNL     1      -5.074  12.780  19.791  0.00  0.00    +0.000 A 
ENDBRANCH  19  22
ENDBRANCH  15  16
ENDBRANCH   4  15
TORSDOF 6
ENDMDL
MODEL 8
REMARK VINA RESULT:      -7.2      3.839     10.152
REMARK  Name = 
REMARK  8 active torsions:
REMARK  status: ('A' for Active; 'I' for Inactive)
REMARK    1  A    between atoms: C_1  and  C_2
REMARK    2  A    between atoms: C_2  and  C_3
REMARK    3  A    between atoms: C_3  and  N_4
REMARK    4  A    between atoms: C_3  and  C_8
REMARK    5  A    between atoms: C_5  and  C_6
REMARK    6  A    between atoms: C_11  and  C_12
REMARK    7  A    between atoms: C_12  and  N_13
REMARK    8  A    between atoms: N_16  and  C_17
REMARK                            x       y       z     vdW  Elec       q    Type
REMARK                         _______ _______ _______ _____ _____    ______ ____
ROOT
ATOM      1  C   UNL     1       2.328   6.428  19.806  0.00  0.00    +0.000 A 
ATOM      2  C   UNL     1       2.508   7.258  18.690  0.00  0.00    +0.000 A 
ATOM      3  C   UNL     1       1.952   8.555  18.657  0.00  0.00    +0.000 A 
ATOM      4  C   UNL     1       1.159   9.027  19.713  0.00  0.00    +0.000 A 
ATOM      5  C   UNL     1       0.978   8.184  20.820  0.00  0.00    +0.000 A 
ATOM      6  C   UNL     1       1.564   6.919  20.873  0.00  0.00    +0.000 A 
ENDROOT
BRANCH   1   7
ATOM      7  C   UNL     1       2.987   5.045  19.921  0.00  0.00    +0.000 C 
BRANCH   7   8
ATOM      8  N   UNL     1       3.606   4.717  18.625  0.00  0.00    +0.000 N 
ATOM      9  C   UNL     1       4.923   4.388  18.426  0.00  0.00    +0.000 C 
ATOM     10  C   UNL     1       5.237   4.047  16.989  0.00  0.00    +0.000 C 
ATOM     11  O   UNL     1       5.778   4.363  19.303  0.00  0.00    +0.000 OA
ATOM     12  H   UNL     1       3.095   5.015  17.805  0.00  0.00    +0.000 HD
ENDBRANCH   7   8
BRANCH   7  14
ATOM     13  C   UNL     1       2.260   3.268  21.646  0.00  0.00    +0.000 C 
ATOM     14  C   UNL     1       1.942   3.982  20.337  0.00  0.00    +0.000 C 
ENDBRANCH   7  14
ENDBRANCH   1   7
BRANCH   4  15
ATOM     15  C   UNL     1       0.600  10.437  19.826  0.00  0.00    +0.000 C 
BRANCH  15  16
ATOM     16  N   UNL     1       0.143  11.089  18.593  0.00  0.00    +0.000 NA
ATOM     17  C   UNL     1      -0.838  10.289  17.825  0.00  0.00    +0.000 C 
ATOM     18  C   UNL     1      -2.295  10.222  18.359  0.00  0.00    +0.000 C 
ATOM     19  N   UNL     1      -2.807  11.556  18.711  0.00  0.00    +0.000 N 
ATOM     20  C   UNL     1      -1.897  12.377  19.529  0.00  0.00    +0.000 C 
ATOM     21  C   UNL     1      -0.479  12.406  18.900  0.00  0.00    +0.000 C 
BRANCH  19  22
ATOM     22  C   UNL     1      -4.181  11.773  18.804  0.00  0.00    +0.000 A 
ATOM     23  C   UNL     1      -4.768  12.591  19.785  0.00  0.00    +0.000 A 
ATOM     24  C   UNL     1      -6.160  12.684  19.940  0.00  0.00    +0.000 A 
ATOM     25  C   UNL     1      -7.005  11.959  19.109  0.00  0.00    +0.000 A 
ATOM     26  C   UNL     1      -6.459  11.166  18.109  0.00  0.00    +0.000 A 
ATOM     27  C   UNL     1      -5.068  11.084  17.958  0.00  0.00    +0.000 A 
ENDBRANCH  19  22
ENDBRANCH  15  16
ENDBRANCH   4  15
TORSDOF 6
ENDMDL
MODEL 9
REMARK VINA RESULT:      -7.2      3.044     10.784
REMARK  Name = 
REMARK  8 active torsions:
REMARK  status: ('A' for Active; 'I' for Inactive)
REMARK    1  A    between atoms: C_1  and  C_2
REMARK    2  A    between atoms: C_2  and  C_3
REMARK    3  A    between atoms: C_3  and  N_4
REMARK    4  A    between atoms: C_3  and  C_8
REMARK    5  A    between atoms: C_5  and  C_6
REMARK    6  A    between atoms: C_11  and  C_12
REMARK    7  A    between atoms: C_12  and  N_13
REMARK    8  A    between atoms: N_16  and  C_17
REMARK                            x       y       z     vdW  Elec       q    Type
REMARK                         _______ _______ _______ _____ _____    ______ ____
ROOT
ATOM      1  C   UNL     1       3.319   6.129  18.843  0.00  0.00    +0.000 A 
ATOM      2  C   UNL     1       3.020   7.279  18.097  0.00  0.00    +0.000 A 
ATOM      3  C   UNL     1       2.133   8.255  18.600  0.00  0.00    +0.000 A 
ATOM      4  C   UNL     1       1.483   8.075  19.830  0.00  0.00    +0.000 A 
ATOM      5  C   UNL     1       1.783   6.917  20.562  0.00  0.00    +0.000 A 
ATOM      6  C   UNL     1       2.694   5.973  20.087  0.00  0.00    +0.000 A 
ENDROOT
BRANCH   1   7
ATOM      7  C   UNL     1       4.344   5.085  18.374  0.00  0.00    +0.000 C 
BRANCH   7   8
ATOM      8  N   UNL     1       5.625   5.771  18.130  0.00  0.00    +0.000 N 
ATOM      9  C   UNL     1       6.725   5.729  18.950  0.00  0.00    +0.000 C 
ATOM     10  C   UNL     1       7.906   6.489  18.393  0.00  0.00    +0.000 C 
ATOM     11  O   UNL     1       6.775   5.144  20.024  0.00  0.00    +0.000 OA
ATOM     12  H   UNL     1       5.599   6.529  17.462  0.00  0.00    +0.000 HD
ENDBRANCH   7   8
BRANCH   7  14
ATOM     13  C   UNL     1       4.881   4.221  16.003  0.00  0.00    +0.000 C 
ATOM     14  C   UNL     1       3.835   4.362  17.104  0.00  0.00    +0.000 C 
ENDBRANCH   7  14
ENDBRANCH   1   7
BRANCH   4  15
ATOM     15  C   UNL     1       0.593   9.105  20.509  0.00  0.00    +0.000 C 
BRANCH  15  16
ATOM     16  N   UNL     1       1.199   9.952  21.544  0.00  0.00    +0.000 NA
ATOM     17  C   UNL     1       1.125  11.401  21.245  0.00  0.00    +0.000 C 
ATOM     18  C   UNL     1      -0.244  12.110  21.430  0.00  0.00    +0.000 C 
ATOM     19  N   UNL     1      -0.864  11.768  22.721  0.00  0.00    +0.000 N 
ATOM     20  C   UNL     1      -0.874  10.331  23.045  0.00  0.00    +0.000 C 
ATOM     21  C   UNL     1       0.540   9.721  22.858  0.00  0.00    +0.000 C 
BRANCH  19  22
ATOM     22  C   UNL     1      -1.852  12.590  23.259  0.00  0.00    +0.000 A 
ATOM     23  C   UNL     1      -3.174  12.164  23.477  0.00  0.00    +0.000 A 
ATOM     24  C   UNL     1      -4.181  13.050  23.892  0.00  0.00    +0.000 A 
ATOM     25  C   UNL     1      -3.888  14.392  24.104  0.00  0.00    +0.000 A 
ATOM     26  C   UNL     1      -2.585  14.838  23.927  0.00  0.00    +0.000 A 
ATOM     27  C   UNL     1      -1.585  13.946  23.519  0.00  0.00    +0.000 A 
ENDBRANCH  19  22
ENDBRANCH  15  16
ENDBRANCH   4  15
TORSDOF 6
ENDMDL
