MODEL 1
REMARK VINA RESULT:      -8.8      0.000      0.000
REMARK  Name = 
REMARK  8 active torsions:
REMARK  status: ('A' for Active; 'I' for Inactive)
REMARK    1  A    between atoms: C_2  and  C_3
REMARK    2  A    between atoms: C_2  and  O_18
REMARK    3  A    between atoms: C_3  and  C_4
REMARK    4  A    between atoms: C_6  and  C_7
REMARK    5  A    between atoms: C_12  and  C_13
REMARK    6  A    between atoms: O_18  and  C_19
REMARK    7  A    between atoms: C_22  and  C_23
REMARK    8  A    between atoms: C_23  and  C_24
REMARK                            x       y       z     vdW  Elec       q    Type
REMARK                         _______ _______ _______ _____ _____    ______ ____
ROOT
ATOM      1  O   UNL     1       1.137   4.121  19.209  0.00  0.00    +0.000 OA
ATOM      2  C   UNL     1       2.345   4.313  19.159  0.00  0.00    +0.000 C 
ENDROOT
BRANCH   2   3
ATOM      3  C   UNL     1       3.339   3.280  18.670  0.00  0.00    +0.000 C 
BRANCH   3   4
ATOM      4  C   UNL     1       4.562   3.882  18.011  0.00  0.00    +0.000 A 
ATOM      5  C   UNL     1       4.690   3.885  16.613  0.00  0.00    +0.000 A 
ATOM      6  C   UNL     1       5.828   4.418  15.987  0.00  0.00    +0.000 A 
ATOM      7  C   UNL     1       6.834   4.991  16.782  0.00  0.00    +0.000 A 
ATOM      8  C   UNL     1       6.720   5.024  18.180  0.00  0.00    +0.000 A 
ATOM      9  C   UNL     1       5.577   4.468  18.783  0.00  0.00    +0.000 A 
BRANCH   6  10
ATOM     10  C   UNL     1       5.997   4.355  14.486  0.00  0.00    +0.000 C 
ATOM     11  F   UNL     1       6.882   5.268  13.997  0.00  0.00    +0.000 F 
ATOM     12  F   UNL     1       6.437   3.140  14.061  0.00  0.00    +0.000 F 
ATOM     13  F   UNL     1       4.826   4.581  13.829  0.00  0.00    +0.000 F 
ENDBRANCH   6  10
BRANCH   8  14
ATOM     14  C   UNL     1       7.812   5.626  19.036  0.00  0.00    +0.000 C 
ATOM     15  F   UNL     1       7.431   5.853  20.322  0.00  0.00    +0.000 F 
ATOM     16  F   UNL     1       8.916   4.833  19.106  0.00  0.00    +0.000 F 
ATOM     17  F   UNL     1       8.242   6.826  18.555  0.00  0.00    +0.000 F 
ENDBRANCH   8  14
ENDBRANCH   3   4
ENDBRANCH   2   3
BRANCH   2  18
ATOM     18  O   UNL     1       3.017   5.474  19.554  0.00  0.00    +0.000 OA
BRANCH  18  19
ATOM     19  C   UNL     1       2.519   6.775  19.300  0.00  0.00    +0.000 A 
ATOM     20  C   UNL     1       2.545   7.379  18.046  0.00  0.00    +0.000 A 
ATOM     21  C   UNL     1       1.928   8.623  17.859  0.00  0.00    +0.000 A 
ATOM     22  C   UNL     1       1.256   9.257  18.914  0.00  0.00    +0.000 A 
ATOM     23  C   UNL     1       1.257   8.644  20.176  0.00  0.00    +0.000 A 
ATOM     24  C   UNL     1       1.883   7.407  20.369  0.00  0.00    +0.000 A 
BRANCH  22  25
ATOM     25  C   UNL     1       0.563  10.588  18.713  0.00  0.00    +0.000 C 
BRANCH  25  26
ATOM     26  C   UNL     1      -0.892  10.620  19.192  0.00  0.00    +0.000 C 
ATOM     27  N   UNL     1      -1.140  11.573  20.257  0.00  0.00    +0.000 N 
ATOM     28  C   UNL     1      -2.069  12.517  19.894  0.00  0.00    +0.000 C 
ATOM     29  S   UNL     1      -2.618  13.726  20.869  0.00  0.00    +0.000 S 
ATOM     30  N   UNL     1      -2.453  12.291  18.618  0.00  0.00    +0.000 N 
ATOM     31  C   UNL     1      -1.805  11.201  18.107  0.00  0.00    +0.000 C 
ATOM     32  O   UNL     1      -1.946  10.768  16.974  0.00  0.00    +0.000 OA
ATOM     33  H   UNL     1      -0.754  11.510  21.192  0.00  0.00    +0.000 HD
ATOM     34  H   UNL     1      -3.117  12.846  18.102  0.00  0.00    +0.000 HD
ENDBRANCH  25  26
ENDBRANCH  22  25
ENDBRANCH  18  19
ENDBRANCH   2  18
TORSDOF 8
ENDMDL
MODEL 2
REMARK VINA RESULT:      -8.7      1.220      1.422
REMARK  Name = 
REMARK  8 active torsions:
REMARK  status: ('A' for Active; 'I' for Inactive)
REMARK    1  A    between atoms: C_2  and  C_3
REMARK    2  A    between atoms: C_2  and  O_18
REMARK    3  A    between atoms: C_3  and  C_4
REMARK    4  A    between atoms: C_6  and  C_7
REMARK    5  A    between atoms: C_12  and  C_13
REMARK    6  A    between atoms: O_18  and  C_19
REMARK    7  A    between atoms: C_22  and  C_23
REMARK    8  A    between atoms: C_23  and  C_24
REMARK                            x       y       z     vdW  Elec       q    Type
REMARK                         _______ _______ _______ _____ _____    ______ ____
ROOT
ATOM      1  O   UNL     1       1.224   4.198  19.541  0.00  0.00    +0.000 OA
ATOM      2  C   UNL     1       2.389   4.401  19.222  0.00  0.00    +0.000 C 
ENDROOT
BRANCH   2   3
ATOM      3  C   UNL     1       3.277   3.355  18.581  0.00  0.00    +0.000 C 
BRANCH   3   4
ATOM      4  C   UNL     1       4.521   3.931  17.938  0.00  0.00    +0.000 A 
ATOM      5  C   UNL     1       4.667   3.929  16.541  0.00  0.00    +0.000 A 
ATOM      6  C   UNL     1       5.825   4.438  15.931  0.00  0.00    +0.000 A 
ATOM      7  C   UNL     1       6.832   4.990  16.738  0.00  0.00    +0.000 A 
ATOM      8  C   UNL     1       6.701   5.027  18.135  0.00  0.00    +0.000 A 
ATOM      9  C   UNL     1       5.538   4.496  18.723  0.00  0.00    +0.000 A 
BRANCH   6  10
ATOM     10  C   UNL     1       6.012   4.370  14.432  0.00  0.00    +0.000 C 
ATOM     11  F   UNL     1       6.890   5.292  13.949  0.00  0.00    +0.000 F 
ATOM     12  F   UNL     1       6.473   3.159  14.018  0.00  0.00    +0.000 F 
ATOM     13  F   UNL     1       4.846   4.577  13.760  0.00  0.00    +0.000 F 
ENDBRANCH   6  10
BRANCH   8  14
ATOM     14  C   UNL     1       7.794   5.606  19.005  0.00  0.00    +0.000 C 
ATOM     15  F   UNL     1       8.893   4.811  19.096  0.00  0.00    +0.000 F 
ATOM     16  F   UNL     1       8.238   6.810  18.551  0.00  0.00    +0.000 F 
ATOM     17  F   UNL     1       7.377   5.817  20.284  0.00  0.00    +0.000 F 
ENDBRANCH   8  14
ENDBRANCH   3   4
ENDBRANCH   2   3
BRANCH   2  18
ATOM     18  O   UNL     1       3.104   5.587  19.407  0.00  0.00    +0.000 OA
BRANCH  18  19
ATOM     19  C   UNL     1       2.491   6.865  19.399  0.00  0.00    +0.000 A 
ATOM     20  C   UNL     1       2.355   7.646  18.256  0.00  0.00    +0.000 A 
ATOM     21  C   UNL     1       1.635   8.847  18.314  0.00  0.00    +0.000 A 
ATOM     22  C   UNL     1       1.021   9.259  19.506  0.00  0.00    +0.000 A 
ATOM     23  C   UNL     1       1.185   8.468  20.653  0.00  0.00    +0.000 A 
ATOM     24  C   UNL     1       1.914   7.275  20.601  0.00  0.00    +0.000 A 
BRANCH  22  25
ATOM     25  C   UNL     1       0.217  10.540  19.571  0.00  0.00    +0.000 C 
BRANCH  25  26
ATOM     26  C   UNL     1      -0.520  10.888  18.275  0.00  0.00    +0.000 C 
ATOM     27  N   UNL     1      -1.822  10.262  18.151  0.00  0.00    +0.000 N 
ATOM     28  C   UNL     1      -2.830  11.189  18.043  0.00  0.00    +0.000 C 
ATOM     29  S   UNL     1      -4.426  10.832  17.849  0.00  0.00    +0.000 S 
ATOM     30  N   UNL     1      -2.298  12.429  18.120  0.00  0.00    +0.000 N 
ATOM     31  C   UNL     1      -0.941  12.362  18.272  0.00  0.00    +0.000 C 
ATOM     32  O   UNL     1      -0.198  13.325  18.380  0.00  0.00    +0.000 OA
ATOM     33  H   UNL     1      -1.979   9.265  18.062  0.00  0.00    +0.000 HD
ATOM     34  H   UNL     1      -2.820  13.291  18.080  0.00  0.00    +0.000 HD
ENDBRANCH  25  26
ENDBRANCH  22  25
ENDBRANCH  18  19
ENDBRANCH   2  18
TORSDOF 8
ENDMDL
MODEL 3
REMARK VINA RESULT:      -8.7      0.649      3.171
REMARK  Name = 
REMARK  8 active torsions:
REMARK  status: ('A' for Active; 'I' for Inactive)
REMARK    1  A    between atoms: C_2  and  C_3
REMARK    2  A    between atoms: C_2  and  O_18
REMARK    3  A    between atoms: C_3  and  C_4
REMARK    4  A    between atoms: C_6  and  C_7
REMARK    5  A    between atoms: C_12  and  C_13
REMARK    6  A    between atoms: O_18  and  C_19
REMARK    7  A    between atoms: C_22  and  C_23
REMARK    8  A    between atoms: C_23  and  C_24
REMARK                            x       y       z     vdW  Elec       q    Type
REMARK                         _______ _______ _______ _____ _____    ______ ____
ROOT
ATOM      1  O   UNL     1       1.312   3.961  17.697  0.00  0.00    +0.000 OA
ATOM      2  C   UNL     1       2.339   3.968  18.365  0.00  0.00    +0.000 C 
ENDROOT
BRANCH   2   3
ATOM      3  C   UNL     1       3.499   3.024  18.129  0.00  0.00    +0.000 C 
BRANCH   3   4
ATOM      4  C   UNL     1       4.738   3.710  17.593  0.00  0.00    +0.000 A 
ATOM      5  C   UNL     1       5.664   4.297  18.471  0.00  0.00    +0.000 A 
ATOM      6  C   UNL     1       6.805   4.958  17.989  0.00  0.00    +0.000 A 
ATOM      7  C   UNL     1       7.034   4.995  16.604  0.00  0.00    +0.000 A 
ATOM      8  C   UNL     1       6.138   4.395  15.706  0.00  0.00    +0.000 A 
ATOM      9  C   UNL     1       4.993   3.753  16.214  0.00  0.00    +0.000 A 
BRANCH   6  10
ATOM     10  C   UNL     1       7.763   5.651  18.930  0.00  0.00    +0.000 C 
ATOM     11  F   UNL     1       8.894   4.937  19.182  0.00  0.00    +0.000 F 
ATOM     12  F   UNL     1       8.178   6.858  18.457  0.00  0.00    +0.000 F 
ATOM     13  F   UNL     1       7.199   5.899  20.144  0.00  0.00    +0.000 F 
ENDBRANCH   6  10
BRANCH   8  14
ATOM     14  C   UNL     1       6.377   4.449  14.214  0.00  0.00    +0.000 C 
ATOM     15  F   UNL     1       5.351   5.010  13.519  0.00  0.00    +0.000 F 
ATOM     16  F   UNL     1       7.487   5.169  13.890  0.00  0.00    +0.000 F 
ATOM     17  F   UNL     1       6.562   3.212  13.676  0.00  0.00    +0.000 F 
ENDBRANCH   8  14
ENDBRANCH   3   4
ENDBRANCH   2   3
BRANCH   2  18
ATOM     18  O   UNL     1       2.614   4.803  19.452  0.00  0.00    +0.000 OA
BRANCH  18  19
ATOM     19  C   UNL     1       2.321   6.188  19.452  0.00  0.00    +0.000 A 
ATOM     20  C   UNL     1       2.491   7.012  18.343  0.00  0.00    +0.000 A 
ATOM     21  C   UNL     1       2.069   8.347  18.395  0.00  0.00    +0.000 A 
ATOM     22  C   UNL     1       1.446   8.859  19.543  0.00  0.00    +0.000 A 
ATOM     23  C   UNL     1       1.301   8.020  20.658  0.00  0.00    +0.000 A 
ATOM     24  C   UNL     1       1.733   6.690  20.614  0.00  0.00    +0.000 A 
BRANCH  22  25
ATOM     25  C   UNL     1       0.961  10.292  19.598  0.00  0.00    +0.000 C 
BRANCH  25  26
ATOM     26  C   UNL     1      -0.536  10.441  19.882  0.00  0.00    +0.000 C 
ATOM     27  N   UNL     1      -0.869  11.588  20.704  0.00  0.00    +0.000 N 
ATOM     28  C   UNL     1      -1.711  12.458  20.055  0.00  0.00    +0.000 C 
ATOM     29  S   UNL     1      -2.322  13.843  20.703  0.00  0.00    +0.000 S 
ATOM     30  N   UNL     1      -1.954  11.990  18.810  0.00  0.00    +0.000 N 
ATOM     31  C   UNL     1      -1.294  10.810  18.602  0.00  0.00    +0.000 C 
ATOM     32  O   UNL     1      -1.320  10.165  17.566  0.00  0.00    +0.000 OA
ATOM     33  H   UNL     1      -0.595  11.706  21.673  0.00  0.00    +0.000 HD
ATOM     34  H   UNL     1      -2.532  12.443  18.120  0.00  0.00    +0.000 HD
ENDBRANCH  25  26
ENDBRANCH  22  25
ENDBRANCH  18  19
ENDBRANCH   2  18
TORSDOF 8
ENDMDL
MODEL 4
REMARK VINA RESULT:      -8.6      1.667      2.258
REMARK  Name = 
REMARK  8 active torsions:
REMARK  status: ('A' for Active; 'I' for Inactive)
REMARK    1  A    between atoms: C_2  and  C_3
REMARK    2  A    between atoms: C_2  and  O_18
REMARK    3  A    between atoms: C_3  and  C_4
REMARK    4  A    between atoms: C_6  and  C_7
REMARK    5  A    between atoms: C_12  and  C_13
REMARK    6  A    between atoms: O_18  and  C_19
REMARK    7  A    between atoms: C_22  and  C_23
REMARK    8  A    between atoms: C_23  and  C_24
REMARK                            x       y       z     vdW  Elec       q    Type
REMARK                         _______ _______ _______ _____ _____    ______ ____
ROOT
ATOM      1  O   UNL     1       1.889   4.033  18.820  0.00  0.00    +0.000 OA
ATOM      2  C   UNL     1       2.993   4.447  19.149  0.00  0.00    +0.000 C 
ENDROOT
BRANCH   2   3
ATOM      3  C   UNL     1       4.288   3.730  18.825  0.00  0.00    +0.000 C 
BRANCH   3   4
ATOM      4  C   UNL     1       5.141   4.455  17.805  0.00  0.00    +0.000 A 
ATOM      5  C   UNL     1       5.154   4.041  16.464  0.00  0.00    +0.000 A 
ATOM      6  C   UNL     1       5.957   4.687  15.511  0.00  0.00    +0.000 A 
ATOM      7  C   UNL     1       6.729   5.791  15.909  0.00  0.00    +0.000 A 
ATOM      8  C   UNL     1       6.715   6.242  17.238  0.00  0.00    +0.000 A 
ATOM      9  C   UNL     1       5.914   5.566  18.177  0.00  0.00    +0.000 A 
BRANCH   6  10
ATOM     10  C   UNL     1       6.026   4.196  14.083  0.00  0.00    +0.000 C 
ATOM     11  F   UNL     1       4.847   4.305  13.410  0.00  0.00    +0.000 F 
ATOM     12  F   UNL     1       6.946   4.871  13.343  0.00  0.00    +0.000 F 
ATOM     13  F   UNL     1       6.377   2.882  14.010  0.00  0.00    +0.000 F 
ENDBRANCH   6  10
BRANCH   8  14
ATOM     14  C   UNL     1       7.559   7.420  17.669  0.00  0.00    +0.000 C 
ATOM     15  F   UNL     1       8.435   7.838  16.717  0.00  0.00    +0.000 F 
ATOM     16  F   UNL     1       6.807   8.509  17.992  0.00  0.00    +0.000 F 
ATOM     17  F   UNL     1       8.308   7.141  18.771  0.00  0.00    +0.000 F 
ENDBRANCH   8  14
ENDBRANCH   3   4
ENDBRANCH   2   3
BRANCH   2  18
ATOM     18  O   UNL     1       3.259   5.606  19.885  0.00  0.00    +0.000 OA
BRANCH  18  19
ATOM     19  C   UNL     1       2.418   6.745  19.857  0.00  0.00    +0.000 A 
ATOM     20  C   UNL     1       1.632   7.148  20.932  0.00  0.00    +0.000 A 
ATOM     21  C   UNL     1       0.916   8.350  20.860  0.00  0.00    +0.000 A 
ATOM     22  C   UNL     1       1.005   9.172  19.727  0.00  0.00    +0.000 A 
ATOM     23  C   UNL     1       1.786   8.740  18.645  0.00  0.00    +0.000 A 
ATOM     24  C   UNL     1       2.492   7.534  18.709  0.00  0.00    +0.000 A 
BRANCH  22  25
ATOM     25  C   UNL     1       0.257  10.487  19.652  0.00  0.00    +0.000 C 
BRANCH  25  26
ATOM     26  C   UNL     1       0.016  10.994  18.227  0.00  0.00    +0.000 C 
ATOM     27  N   UNL     1      -1.026  10.279  17.516  0.00  0.00    +0.000 N 
ATOM     28  C   UNL     1      -2.052  11.110  17.138  0.00  0.00    +0.000 C 
ATOM     29  S   UNL     1      -3.379  10.643  16.281  0.00  0.00    +0.000 S 
ATOM     30  N   UNL     1      -1.794  12.360  17.582  0.00  0.00    +0.000 N 
ATOM     31  C   UNL     1      -0.602  12.396  18.251  0.00  0.00    +0.000 C 
ATOM     32  O   UNL     1      -0.118  13.390  18.771  0.00  0.00    +0.000 OA
ATOM     33  H   UNL     1      -0.976   9.305  17.242  0.00  0.00    +0.000 HD
ATOM     34  H   UNL     1      -2.393  13.160  17.452  0.00  0.00    +0.000 HD
ENDBRANCH  25  26
ENDBRANCH  22  25
ENDBRANCH  18  19
ENDBRANCH   2  18
TORSDOF 8
ENDMDL
MODEL 5
REMARK VINA RESULT:      -8.6      1.383      1.918
REMARK  Name = 
REMARK  8 active torsions:
REMARK  status: ('A' for Active; 'I' for Inactive)
REMARK    1  A    between atoms: C_2  and  C_3
REMARK    2  A    between atoms: C_2  and  O_18
REMARK    3  A    between atoms: C_3  and  C_4
REMARK    4  A    between atoms: C_6  and  C_7
REMARK    5  A    between atoms: C_12  and  C_13
REMARK    6  A    between atoms: O_18  and  C_19
REMARK    7  A    between atoms: C_22  and  C_23
REMARK    8  A    between atoms: C_23  and  C_24
REMARK                            x       y       z     vdW  Elec       q    Type
REMARK                         _______ _______ _______ _____ _____    ______ ____
ROOT
ATOM      1  O   UNL     1       1.198   4.383  17.909  0.00  0.00    +0.000 OA
ATOM      2  C   UNL     1       2.231   4.388  18.568  0.00  0.00    +0.000 C 
ENDROOT
BRANCH   2   3
ATOM      3  C   UNL     1       3.339   3.369  18.399  0.00  0.00    +0.000 C 
BRANCH   3   4
ATOM      4  C   UNL     1       4.600   3.943  17.789  0.00  0.00    +0.000 A 
ATOM      5  C   UNL     1       4.785   3.936  16.397  0.00  0.00    +0.000 A 
ATOM      6  C   UNL     1       5.959   4.444  15.817  0.00  0.00    +0.000 A 
ATOM      7  C   UNL     1       6.943   5.000  16.650  0.00  0.00    +0.000 A 
ATOM      8  C   UNL     1       6.772   5.042  18.043  0.00  0.00    +0.000 A 
ATOM      9  C   UNL     1       5.594   4.512  18.600  0.00  0.00    +0.000 A 
BRANCH   6  10
ATOM     10  C   UNL     1       6.188   4.370  14.325  0.00  0.00    +0.000 C 
ATOM     11  F   UNL     1       5.090   4.690  13.586  0.00  0.00    +0.000 F 
ATOM     12  F   UNL     1       7.178   5.205  13.908  0.00  0.00    +0.000 F 
ATOM     13  F   UNL     1       6.558   3.122  13.924  0.00  0.00    +0.000 F 
ENDBRANCH   6  10
BRANCH   8  14
ATOM     14  C   UNL     1       7.840   5.626  18.941  0.00  0.00    +0.000 C 
ATOM     15  F   UNL     1       8.309   6.829  18.515  0.00  0.00    +0.000 F 
ATOM     16  F   UNL     1       7.399   5.823  20.214  0.00  0.00    +0.000 F 
ATOM     17  F   UNL     1       8.929   4.814  19.042  0.00  0.00    +0.000 F 
ENDBRANCH   8  14
ENDBRANCH   3   4
ENDBRANCH   2   3
BRANCH   2  18
ATOM     18  O   UNL     1       2.560   5.288  19.586  0.00  0.00    +0.000 OA
BRANCH  18  19
ATOM     19  C   UNL     1       2.038   6.603  19.649  0.00  0.00    +0.000 A 
ATOM     20  C   UNL     1       1.395   7.124  20.768  0.00  0.00    +0.000 A 
ATOM     21  C   UNL     1       1.010   8.471  20.787  0.00  0.00    +0.000 A 
ATOM     22  C   UNL     1       1.291   9.314  19.701  0.00  0.00    +0.000 A 
ATOM     23  C   UNL     1       1.921   8.767  18.573  0.00  0.00    +0.000 A 
ATOM     24  C   UNL     1       2.297   7.419  18.547  0.00  0.00    +0.000 A 
BRANCH  22  25
ATOM     25  C   UNL     1       0.904  10.777  19.724  0.00  0.00    +0.000 C 
BRANCH  25  26
ATOM     26  C   UNL     1       0.389  11.314  18.386  0.00  0.00    +0.000 C 
ATOM     27  N   UNL     1      -0.834  10.682  17.929  0.00  0.00    +0.000 N 
ATOM     28  C   UNL     1      -1.857  11.588  17.784  0.00  0.00    +0.000 C 
ATOM     29  S   UNL     1      -3.371  11.226  17.247  0.00  0.00    +0.000 S 
ATOM     30  N   UNL     1      -1.416  12.812  18.151  0.00  0.00    +0.000 N 
ATOM     31  C   UNL     1      -0.106  12.757  18.537  0.00  0.00    +0.000 C 
ATOM     32  O   UNL     1       0.551  13.708  18.929  0.00  0.00    +0.000 OA
ATOM     33  H   UNL     1      -0.917   9.709  17.657  0.00  0.00    +0.000 HD
ATOM     34  H   UNL     1      -1.970  13.655  18.151  0.00  0.00    +0.000 HD
ENDBRANCH  25  26
ENDBRANCH  22  25
ENDBRANCH  18  19
ENDBRANCH   2  18
TORSDOF 8
ENDMDL
MODEL 6
REMARK VINA RESULT:      -8.6      5.485      7.579
REMARK  Name = 
REMARK  8 active torsions:
REMARK  status: ('A' for Active; 'I' for Inactive)
REMARK    1  A    between atoms: C_2  and  C_3
REMARK    2  A    between atoms: C_2  and  O_18
REMARK    3  A    between atoms: C_3  and  C_4
REMARK    4  A    between atoms: C_6  and  C_7
REMARK    5  A    between atoms: C_12  and  C_13
REMARK    6  A    between atoms: O_18  and  C_19
REMARK    7  A    between atoms: C_22  and  C_23
REMARK    8  A    between atoms: C_23  and  C_24
REMARK                            x       y       z     vdW  Elec       q    Type
REMARK                         _______ _______ _______ _____ _____    ______ ____
ROOT
ATOM      1  O   UNL     1       6.810   5.469  14.990  0.00  0.00    +0.000 OA
ATOM      2  C   UNL     1       6.373   4.896  15.981  0.00  0.00    +0.000 C 
ENDROOT
BRANCH   2   3
ATOM      3  C   UNL     1       5.166   3.982  15.958  0.00  0.00    +0.000 C 
BRANCH   3   4
ATOM      4  C   UNL     1       4.076   4.397  16.924  0.00  0.00    +0.000 A 
ATOM      5  C   UNL     1       3.323   3.428  17.607  0.00  0.00    +0.000 A 
ATOM      6  C   UNL     1       2.293   3.795  18.488  0.00  0.00    +0.000 A 
ATOM      7  C   UNL     1       2.045   5.159  18.711  0.00  0.00    +0.000 A 
ATOM      8  C   UNL     1       2.799   6.148  18.061  0.00  0.00    +0.000 A 
ATOM      9  C   UNL     1       3.814   5.753  17.170  0.00  0.00    +0.000 A 
BRANCH   6  10
ATOM     10  C   UNL     1       1.436   2.751  19.167  0.00  0.00    +0.000 C 
ATOM     11  F   UNL     1       0.320   2.418  18.463  0.00  0.00    +0.000 F 
ATOM     12  F   UNL     1       2.106   1.587  19.384  0.00  0.00    +0.000 F 
ATOM     13  F   UNL     1       0.998   3.165  20.388  0.00  0.00    +0.000 F 
ENDBRANCH   6  10
BRANCH   8  14
ATOM     14  C   UNL     1       2.519   7.616  18.290  0.00  0.00    +0.000 C 
ATOM     15  F   UNL     1       1.467   8.088  17.568  0.00  0.00    +0.000 F 
ATOM     16  F   UNL     1       2.237   7.896  19.592  0.00  0.00    +0.000 F 
ATOM     17  F   UNL     1       3.582   8.401  17.959  0.00  0.00    +0.000 F 
ENDBRANCH   8  14
ENDBRANCH   3   4
ENDBRANCH   2   3
BRANCH   2  18
ATOM     18  O   UNL     1       6.874   4.994  17.283  0.00  0.00    +0.000 OA
BRANCH  18  19
ATOM     19  C   UNL     1       7.369   6.205  17.827  0.00  0.00    +0.000 A 
ATOM     20  C   UNL     1       8.123   6.272  18.995  0.00  0.00    +0.000 A 
ATOM     21  C   UNL     1       8.670   7.496  19.402  0.00  0.00    +0.000 A 
ATOM     22  C   UNL     1       8.494   8.654  18.629  0.00  0.00    +0.000 A 
ATOM     23  C   UNL     1       7.715   8.571  17.465  0.00  0.00    +0.000 A 
ATOM     24  C   UNL     1       7.157   7.352  17.063  0.00  0.00    +0.000 A 
BRANCH  22  25
ATOM     25  C   UNL     1       9.105   9.975  19.046  0.00  0.00    +0.000 C 
BRANCH  25  26
ATOM     26  C   UNL     1       9.303  10.968  17.898  0.00  0.00    +0.000 C 
ATOM     27  N   UNL     1       8.286  12.001  17.831  0.00  0.00    +0.000 N 
ATOM     28  C   UNL     1       8.822  13.258  17.961  0.00  0.00    +0.000 C 
ATOM     29  S   UNL     1       7.965  14.663  17.894  0.00  0.00    +0.000 S 
ATOM     30  N   UNL     1      10.157  13.151  18.149  0.00  0.00    +0.000 N 
ATOM     31  C   UNL     1      10.540  11.839  18.143  0.00  0.00    +0.000 C 
ATOM     32  O   UNL     1      11.683  11.440  18.301  0.00  0.00    +0.000 OA
ATOM     33  H   UNL     1       7.308  11.837  17.623  0.00  0.00    +0.000 HD
ATOM     34  H   UNL     1      10.790  13.923  18.285  0.00  0.00    +0.000 HD
ENDBRANCH  25  26
ENDBRANCH  22  25
ENDBRANCH  18  19
ENDBRANCH   2  18
TORSDOF 8
ENDMDL
MODEL 7
REMARK VINA RESULT:      -8.6      6.460     10.230
REMARK  Name = 
REMARK  8 active torsions:
REMARK  status: ('A' for Active; 'I' for Inactive)
REMARK    1  A    between atoms: C_2  and  C_3
REMARK    2  A    between atoms: C_2  and  O_18
REMARK    3  A    between atoms: C_3  and  C_4
REMARK    4  A    between atoms: C_6  and  C_7
REMARK    5  A    between atoms: C_12  and  C_13
REMARK    6  A    between atoms: O_18  and  C_19
REMARK    7  A    between atoms: C_22  and  C_23
REMARK    8  A    between atoms: C_23  and  C_24
REMARK                            x       y       z     vdW  Elec       q    Type
REMARK                         _______ _______ _______ _____ _____    ______ ____
ROOT
ATOM      1  O   UNL     1      -0.460   8.819  21.385  0.00  0.00    +0.000 OA
ATOM      2  C   UNL     1       0.550   9.122  20.762  0.00  0.00    +0.000 C 
ENDROOT
BRANCH   2   3
ATOM      3  C   UNL     1       0.629  10.303  19.815  0.00  0.00    +0.000 C 
BRANCH   3   4
ATOM      4  C   UNL     1      -0.726  10.826  19.389  0.00  0.00    +0.000 A 
ATOM      5  C   UNL     1      -1.458  11.679  20.231  0.00  0.00    +0.000 A 
ATOM      6  C   UNL     1      -2.726  12.154  19.860  0.00  0.00    +0.000 A 
ATOM      7  C   UNL     1      -3.247  11.795  18.607  0.00  0.00    +0.000 A 
ATOM      8  C   UNL     1      -2.526  10.965  17.735  0.00  0.00    +0.000 A 
ATOM      9  C   UNL     1      -1.264  10.488  18.137  0.00  0.00    +0.000 A 
BRANCH   6  10
ATOM     10  C   UNL     1      -3.544  13.013  20.798  0.00  0.00    +0.000 C 
ATOM     11  F   UNL     1      -4.859  12.665  20.852  0.00  0.00    +0.000 F 
ATOM     12  F   UNL     1      -3.089  12.966  22.079  0.00  0.00    +0.000 F 
ATOM     13  F   UNL     1      -3.520  14.327  20.440  0.00  0.00    +0.000 F 
ENDBRANCH   6  10
BRANCH   8  14
ATOM     14  C   UNL     1      -3.094  10.565  16.392  0.00  0.00    +0.000 C 
ATOM     15  F   UNL     1      -2.532  11.226  15.345  0.00  0.00    +0.000 F 
ATOM     16  F   UNL     1      -2.929   9.239  16.130  0.00  0.00    +0.000 F 
ATOM     17  F   UNL     1      -4.433  10.800  16.308  0.00  0.00    +0.000 F 
ENDBRANCH   8  14
ENDBRANCH   3   4
ENDBRANCH   2   3
BRANCH   2  18
ATOM     18  O   UNL     1       1.772   8.445  20.784  0.00  0.00    +0.000 OA
BRANCH  18  19
ATOM     19  C   UNL     1       1.988   7.225  20.097  0.00  0.00    +0.000 A 
ATOM     20  C   UNL     1       1.648   5.979  20.614  0.00  0.00    +0.000 A 
ATOM     21  C   UNL     1       1.791   4.832  19.821  0.00  0.00    +0.000 A 
ATOM     22  C   UNL     1       2.245   4.926  18.498  0.00  0.00    +0.000 A 
ATOM     23  C   UNL     1       2.602   6.189  17.999  0.00  0.00    +0.000 A 
ATOM     24  C   UNL     1       2.472   7.334  18.793  0.00  0.00    +0.000 A 
BRANCH  22  25
ATOM     25  C   UNL     1       2.376   3.697  17.624  0.00  0.00    +0.000 C 
BRANCH  25  26
ATOM     26  C   UNL     1       3.796   3.128  17.544  0.00  0.00    +0.000 C 
ATOM     27  N   UNL     1       4.778   4.066  17.035  0.00  0.00    +0.000 N 
ATOM     28  C   UNL     1       5.776   4.308  17.947  0.00  0.00    +0.000 C 
ATOM     29  S   UNL     1       7.073   5.290  17.690  0.00  0.00    +0.000 S 
ATOM     30  N   UNL     1       5.520   3.613  19.077  0.00  0.00    +0.000 N 
ATOM     31  C   UNL     1       4.364   2.894  18.948  0.00  0.00    +0.000 C 
ATOM     32  O   UNL     1       3.880   2.181  19.813  0.00  0.00    +0.000 OA
ATOM     33  H   UNL     1       4.791   4.437  16.092  0.00  0.00    +0.000 HD
ATOM     34  H   UNL     1       6.089   3.621  19.909  0.00  0.00    +0.000 HD
ENDBRANCH  25  26
ENDBRANCH  22  25
ENDBRANCH  18  19
ENDBRANCH   2  18
TORSDOF 8
ENDMDL
MODEL 8
REMARK VINA RESULT:      -8.5      0.610      3.150
REMARK  Name = 
REMARK  8 active torsions:
REMARK  status: ('A' for Active; 'I' for Inactive)
REMARK    1  A    between atoms: C_2  and  C_3
REMARK    2  A    between atoms: C_2  and  O_18
REMARK    3  A    between atoms: C_3  and  C_4
REMARK    4  A    between atoms: C_6  and  C_7
REMARK    5  A    between atoms: C_12  and  C_13
REMARK    6  A    between atoms: O_18  and  C_19
REMARK    7  A    between atoms: C_22  and  C_23
REMARK    8  A    between atoms: C_23  and  C_24
REMARK                            x       y       z     vdW  Elec       q    Type
REMARK                         _______ _______ _______ _____ _____    ______ ____
ROOT
ATOM      1  O   UNL     1       2.192   4.046  20.360  0.00  0.00    +0.000 OA
ATOM      2  C   UNL     1       2.671   4.822  19.542  0.00  0.00    +0.000 C 
ENDROOT
BRANCH   2   3
ATOM      3  C   UNL     1       2.778   4.518  18.062  0.00  0.00    +0.000 C 
BRANCH   3   4
ATOM      4  C   UNL     1       4.189   4.627  17.524  0.00  0.00    +0.000 A 
ATOM      5  C   UNL     1       5.255   4.950  18.379  0.00  0.00    +0.000 A 
ATOM      6  C   UNL     1       6.565   5.078  17.892  0.00  0.00    +0.000 A 
ATOM      7  C   UNL     1       6.810   4.840  16.530  0.00  0.00    +0.000 A 
ATOM      8  C   UNL     1       5.767   4.492  15.657  0.00  0.00    +0.000 A 
ATOM      9  C   UNL     1       4.460   4.387  16.168  0.00  0.00    +0.000 A 
BRANCH   6  10
ATOM     10  C   UNL     1       7.700   5.495  18.799  0.00  0.00    +0.000 C 
ATOM     11  F   UNL     1       8.261   6.688  18.461  0.00  0.00    +0.000 F 
ATOM     12  F   UNL     1       7.312   5.617  20.098  0.00  0.00    +0.000 F 
ATOM     13  F   UNL     1       8.717   4.590  18.796  0.00  0.00    +0.000 F 
ENDBRANCH   6  10
BRANCH   8  14
ATOM     14  C   UNL     1       6.028   4.253  14.187  0.00  0.00    +0.000 C 
ATOM     15  F   UNL     1       6.961   5.090  13.658  0.00  0.00    +0.000 F 
ATOM     16  F   UNL     1       6.471   2.991  13.935  0.00  0.00    +0.000 F 
ATOM     17  F   UNL     1       4.907   4.416  13.431  0.00  0.00    +0.000 F 
ENDBRANCH   8  14
ENDBRANCH   3   4
ENDBRANCH   2   3
BRANCH   2  18
ATOM     18  O   UNL     1       3.214   6.081  19.813  0.00  0.00    +0.000 OA
BRANCH  18  19
ATOM     19  C   UNL     1       2.567   7.291  19.461  0.00  0.00    +0.000 A 
ATOM     20  C   UNL     1       2.642   7.864  18.195  0.00  0.00    +0.000 A 
ATOM     21  C   UNL     1       1.879   9.001  17.898  0.00  0.00    +0.000 A 
ATOM     22  C   UNL     1       1.013   9.554  18.853  0.00  0.00    +0.000 A 
ATOM     23  C   UNL     1       0.964   8.974  20.130  0.00  0.00    +0.000 A 
ATOM     24  C   UNL     1       1.735   7.846  20.433  0.00  0.00    +0.000 A 
BRANCH  22  25
ATOM     25  C   UNL     1       0.163  10.765  18.532  0.00  0.00    +0.000 C 
BRANCH  25  26
ATOM     26  C   UNL     1      -1.277  10.680  19.049  0.00  0.00    +0.000 C 
ATOM     27  N   UNL     1      -1.558  11.572  20.157  0.00  0.00    +0.000 N 
ATOM     28  C   UNL     1      -2.557  12.465  19.856  0.00  0.00    +0.000 C 
ATOM     29  S   UNL     1      -3.158  13.595  20.892  0.00  0.00    +0.000 S 
ATOM     30  N   UNL     1      -2.960  12.262  18.582  0.00  0.00    +0.000 N 
ATOM     31  C   UNL     1      -2.256  11.239  18.011  0.00  0.00    +0.000 C 
ATOM     32  O   UNL     1      -2.399  10.842  16.865  0.00  0.00    +0.000 OA
ATOM     33  H   UNL     1      -1.142  11.500  21.078  0.00  0.00    +0.000 HD
ATOM     34  H   UNL     1      -3.675  12.791  18.106  0.00  0.00    +0.000 HD
ENDBRANCH  25  26
ENDBRANCH  22  25
ENDBRANCH  18  19
ENDBRANCH   2  18
TORSDOF 8
ENDMDL
MODEL 9
REMARK VINA RESULT:      -8.5      0.864      3.274
REMARK  Name = 
REMARK  8 active torsions:
REMARK  status: ('A' for Active; 'I' for Inactive)
REMARK    1  A    between atoms: C_2  and  C_3
REMARK    2  A    between atoms: C_2  and  O_18
REMARK    3  A    between atoms: C_3  and  C_4
REMARK    4  A    between atoms: C_6  and  C_7
REMARK    5  A    between atoms: C_12  and  C_13
REMARK    6  A    between atoms: O_18  and  C_19
REMARK    7  A    between atoms: C_22  and  C_23
REMARK    8  A    between atoms: C_23  and  C_24
REMARK                            x       y       z     vdW  Elec       q    Type
REMARK                         _______ _______ _______ _____ _____    ______ ____
ROOT
ATOM      1  O   UNL     1       2.009   4.075  19.547  0.00  0.00    +0.000 OA
ATOM      2  C   UNL     1       3.130   4.533  19.363  0.00  0.00    +0.000 C 
ENDROOT
BRANCH   2   3
ATOM      3  C   UNL     1       4.306   3.705  18.887  0.00  0.00    +0.000 C 
BRANCH   3   4
ATOM      4  C   UNL     1       5.173   4.417  17.870  0.00  0.00    +0.000 A 
ATOM      5  C   UNL     1       5.974   5.505  18.254  0.00  0.00    +0.000 A 
ATOM      6  C   UNL     1       6.766   6.190  17.319  0.00  0.00    +0.000 A 
ATOM      7  C   UNL     1       6.778   5.749  15.986  0.00  0.00    +0.000 A 
ATOM      8  C   UNL     1       6.007   4.649  15.581  0.00  0.00    +0.000 A 
ATOM      9  C   UNL     1       5.209   3.989  16.534  0.00  0.00    +0.000 A 
BRANCH   6  10
ATOM     10  C   UNL     1       7.572   7.405  17.718  0.00  0.00    +0.000 C 
ATOM     11  F   UNL     1       8.447   7.820  16.760  0.00  0.00    +0.000 F 
ATOM     12  F   UNL     1       6.789   8.481  18.003  0.00  0.00    +0.000 F 
ATOM     13  F   UNL     1       8.319   7.180  18.834  0.00  0.00    +0.000 F 
ENDBRANCH   6  10
BRANCH   8  14
ATOM     14  C   UNL     1       6.008   4.185  14.142  0.00  0.00    +0.000 C 
ATOM     15  F   UNL     1       4.789   4.263  13.545  0.00  0.00    +0.000 F 
ATOM     16  F   UNL     1       6.855   4.910  13.361  0.00  0.00    +0.000 F 
ATOM     17  F   UNL     1       6.402   2.887  14.019  0.00  0.00    +0.000 F 
ENDBRANCH   8  14
ENDBRANCH   3   4
ENDBRANCH   2   3
BRANCH   2  18
ATOM     18  O   UNL     1       3.530   5.855  19.576  0.00  0.00    +0.000 OA
BRANCH  18  19
ATOM     19  C   UNL     1       2.666   6.961  19.385  0.00  0.00    +0.000 A 
ATOM     20  C   UNL     1       1.890   7.516  20.398  0.00  0.00    +0.000 A 
ATOM     21  C   UNL     1       1.149   8.679  20.151  0.00  0.00    +0.000 A 
ATOM     22  C   UNL     1       1.204   9.313  18.901  0.00  0.00    +0.000 A 
ATOM     23  C   UNL     1       1.976   8.729  17.886  0.00  0.00    +0.000 A 
ATOM     24  C   UNL     1       2.707   7.560  18.126  0.00  0.00    +0.000 A 
BRANCH  22  25
ATOM     25  C   UNL     1       0.430  10.587  18.633  0.00  0.00    +0.000 C 
BRANCH  25  26
ATOM     26  C   UNL     1      -1.014  10.565  19.141  0.00  0.00    +0.000 C 
ATOM     27  N   UNL     1      -1.288  11.538  20.181  0.00  0.00    +0.000 N 
ATOM     28  C   UNL     1      -2.267  12.426  19.809  0.00  0.00    +0.000 C 
ATOM     29  S   UNL     1      -2.855  13.638  20.757  0.00  0.00    +0.000 S 
ATOM     30  N   UNL     1      -2.664  12.141  18.548  0.00  0.00    +0.000 N 
ATOM     31  C   UNL     1      -1.975  11.067  18.058  0.00  0.00    +0.000 C 
ATOM     32  O   UNL     1      -2.117  10.593  16.941  0.00  0.00    +0.000 OA
ATOM     33  H   UNL     1      -0.881  11.524  21.109  0.00  0.00    +0.000 HD
ATOM     34  H   UNL     1      -3.364  12.648  18.029  0.00  0.00    +0.000 HD
ENDBRANCH  25  26
ENDBRANCH  22  25
ENDBRANCH  18  19
ENDBRANCH   2  18
TORSDOF 8
ENDMDL
