MODEL 1
REMARK VINA RESULT:      -7.3      0.000      0.000
REMARK  Name = 
REMARK  8 active torsions:
REMARK  status: ('A' for Active; 'I' for Inactive)
REMARK    1  A    between atoms: C_1  and  C_2
REMARK    2  A    between atoms: C_7  and  C_8
REMARK    3  A    between atoms: C_9  and  N_10
REMARK    4  A    between atoms: N_13  and  C_14
REMARK    5  A    between atoms: C_14  and  N_16
REMARK    6  A    between atoms: N_16  and  C_17
REMARK    7  A    between atoms: C_20  and  S_21
REMARK    8  A    between atoms: S_21  and  N_22
REMARK                            x       y       z     vdW  Elec       q    Type
REMARK                         _______ _______ _______ _____ _____    ______ ____
ROOT
ATOM      1  C   UNL     1       0.988   9.679  19.838  0.00  0.00    +0.000 C 
ATOM      2  S   UNL     1       1.083   9.232  21.439  0.00  0.00    +0.000 S 
ENDROOT
BRANCH   1   6
ATOM      3  N   UNL     1      -1.565  10.781  18.839  0.00  0.00    +0.000 N 
ATOM      4  C   UNL     1      -0.405  11.512  18.732  0.00  0.00    +0.000 C 
ATOM      5  O   UNL     1      -0.290  12.640  18.267  0.00  0.00    +0.000 OA
ATOM      6  N   UNL     1       0.692  10.943  19.350  0.00  0.00    +0.000 N 
ATOM      7  H   UNL     1      -1.565  10.144  19.622  0.00  0.00    +0.000 HD
ATOM      8  H   UNL     1       1.460  11.599  19.398  0.00  0.00    +0.000 HD
BRANCH   3  17
ATOM      9  C   UNL     1      -3.091  12.495  20.643  0.00  0.00    +0.000 C 
ATOM     10  C   UNL     1      -3.586  12.056  19.289  0.00  0.00    +0.000 A 
ATOM     11  C   UNL     1      -4.861  12.485  18.893  0.00  0.00    +0.000 A 
ATOM     12  C   UNL     1      -5.368  12.133  17.645  0.00  0.00    +0.000 A 
ATOM     13 CL   UNL     1      -6.932  12.669  17.174  0.00  0.00    +0.000 Cl
ATOM     14  C   UNL     1      -4.622  11.336  16.784  0.00  0.00    +0.000 A 
ATOM     15  C   UNL     1      -3.346  10.874  17.153  0.00  0.00    +0.000 A 
ATOM     16  C   UNL     1      -2.655   9.908  16.223  0.00  0.00    +0.000 C 
ATOM     17  C   UNL     1      -2.822  11.254  18.406  0.00  0.00    +0.000 A 
ENDBRANCH   3  17
ENDBRANCH   1   6
BRANCH   1  18
ATOM     18  N   UNL     1       1.186   8.736  18.855  0.00  0.00    +0.000 N 
ATOM     19  H   UNL     1       0.400   8.578  18.231  0.00  0.00    +0.000 HD
BRANCH  18  20
ATOM     20  C   UNL     1       2.200   7.749  18.845  0.00  0.00    +0.000 A 
ATOM     21  C   UNL     1       2.243   6.697  19.772  0.00  0.00    +0.000 A 
ATOM     22  C   UNL     1       3.239   5.726  19.712  0.00  0.00    +0.000 A 
ATOM     23  C   UNL     1       4.199   5.797  18.706  0.00  0.00    +0.000 A 
ATOM     24  C   UNL     1       4.166   6.831  17.764  0.00  0.00    +0.000 A 
ATOM     25  C   UNL     1       3.153   7.795  17.825  0.00  0.00    +0.000 A 
BRANCH  23  26
ATOM     26  S   UNL     1       5.482   4.583  18.645  0.00  0.00    +0.000 S 
ATOM     27  O   UNL     1       5.060   3.410  19.372  0.00  0.00    +0.000 OA
ATOM     28  O   UNL     1       6.013   4.521  17.303  0.00  0.00    +0.000 OA
BRANCH  26  29
ATOM     29  N   UNL     1       6.674   5.307  19.580  0.00  0.00    +0.000 NA
ATOM     30  H   UNL     1       6.633   6.321  19.464  0.00  0.00    +0.000 HD
ATOM     31  H   UNL     1       6.587   5.001  20.550  0.00  0.00    +0.000 HD
ENDBRANCH  26  29
ENDBRANCH  23  26
ENDBRANCH  18  20
ENDBRANCH   1  18
TORSDOF 6
ENDMDL
MODEL 2
REMARK VINA RESULT:      -7.3      0.756      1.971
REMARK  Name = 
REMARK  8 active torsions:
REMARK  status: ('A' for Active; 'I' for Inactive)
REMARK    1  A    between atoms: C_1  and  C_2
REMARK    2  A    between atoms: C_7  and  C_8
REMARK    3  A    between atoms: C_9  and  N_10
REMARK    4  A    between atoms: N_13  and  C_14
REMARK    5  A    between atoms: C_14  and  N_16
REMARK    6  A    between atoms: N_16  and  C_17
REMARK    7  A    between atoms: C_20  and  S_21
REMARK    8  A    between atoms: S_21  and  N_22
REMARK                            x       y       z     vdW  Elec       q    Type
REMARK                         _______ _______ _______ _____ _____    ______ ____
ROOT
ATOM      1  C   UNL     1       1.080   9.692  19.607  0.00  0.00    +0.000 C 
ATOM      2  S   UNL     1       1.072   9.138  21.177  0.00  0.00    +0.000 S 
ENDROOT
BRANCH   1   6
ATOM      3  N   UNL     1      -1.545  10.749  18.753  0.00  0.00    +0.000 N 
ATOM      4  C   UNL     1      -0.412  11.519  18.626  0.00  0.00    +0.000 C 
ATOM      5  O   UNL     1      -0.351  12.666  18.199  0.00  0.00    +0.000 OA
ATOM      6  N   UNL     1       0.726  10.963  19.178  0.00  0.00    +0.000 N 
ATOM      7  H   UNL     1      -1.493  10.084  19.512  0.00  0.00    +0.000 HD
ATOM      8  H   UNL     1       1.475  11.641  19.219  0.00  0.00    +0.000 HD
BRANCH   3  17
ATOM      9  C   UNL     1      -2.574  10.007  16.125  0.00  0.00    +0.000 C 
ATOM     10  C   UNL     1      -3.325  10.872  17.102  0.00  0.00    +0.000 A 
ATOM     11  C   UNL     1      -4.580  11.359  16.708  0.00  0.00    +0.000 A 
ATOM     12  C   UNL     1      -5.336  12.145  17.573  0.00  0.00    +0.000 A 
ATOM     13 CL   UNL     1      -6.873  12.732  17.075  0.00  0.00    +0.000 Cl
ATOM     14  C   UNL     1      -4.845  12.473  18.832  0.00  0.00    +0.000 A 
ATOM     15  C   UNL     1      -3.585  12.016  19.257  0.00  0.00    +0.000 A 
ATOM     16  C   UNL     1      -3.066  12.521  20.580  0.00  0.00    +0.000 C 
ATOM     17  C   UNL     1      -2.833  11.197  18.390  0.00  0.00    +0.000 A 
ENDBRANCH   3  17
ENDBRANCH   1   6
BRANCH   1  18
ATOM     18  N   UNL     1       1.437   8.841  18.586  0.00  0.00    +0.000 N 
ATOM     19  H   UNL     1       0.822   8.841  17.777  0.00  0.00    +0.000 HD
BRANCH  18  20
ATOM     20  C   UNL     1       2.332   7.751  18.690  0.00  0.00    +0.000 A 
ATOM     21  C   UNL     1       2.209   6.761  19.678  0.00  0.00    +0.000 A 
ATOM     22  C   UNL     1       3.091   5.686  19.732  0.00  0.00    +0.000 A 
ATOM     23  C   UNL     1       4.102   5.586  18.780  0.00  0.00    +0.000 A 
ATOM     24  C   UNL     1       4.234   6.555  17.779  0.00  0.00    +0.000 A 
ATOM     25  C   UNL     1       3.334   7.626  17.726  0.00  0.00    +0.000 A 
BRANCH  23  26
ATOM     26  S   UNL     1       5.242   4.237  18.863  0.00  0.00    +0.000 S 
ATOM     27  O   UNL     1       6.576   4.754  19.054  0.00  0.00    +0.000 OA
ATOM     28  O   UNL     1       4.682   3.195  19.691  0.00  0.00    +0.000 OA
BRANCH  26  29
ATOM     29  N   UNL     1       5.188   3.655  17.289  0.00  0.00    +0.000 NA
ATOM     30  H   UNL     1       4.581   4.250  16.724  0.00  0.00    +0.000 HD
ATOM     31  H   UNL     1       6.135   3.566  16.920  0.00  0.00    +0.000 HD
ENDBRANCH  26  29
ENDBRANCH  23  26
ENDBRANCH  18  20
ENDBRANCH   1  18
TORSDOF 6
ENDMDL
MODEL 3
REMARK VINA RESULT:      -7.1      4.947      8.978
REMARK  Name = 
REMARK  8 active torsions:
REMARK  status: ('A' for Active; 'I' for Inactive)
REMARK    1  A    between atoms: C_1  and  C_2
REMARK    2  A    between atoms: C_7  and  C_8
REMARK    3  A    between atoms: C_9  and  N_10
REMARK    4  A    between atoms: N_13  and  C_14
REMARK    5  A    between atoms: C_14  and  N_16
REMARK    6  A    between atoms: N_16  and  C_17
REMARK    7  A    between atoms: C_20  and  S_21
REMARK    8  A    between atoms: S_21  and  N_22
REMARK                            x       y       z     vdW  Elec       q    Type
REMARK                         _______ _______ _______ _____ _____    ______ ____
ROOT
ATOM      1  C   UNL     1       1.928   5.524  20.577  0.00  0.00    +0.000 C 
ATOM      2  S   UNL     1       0.971   4.233  20.142  0.00  0.00    +0.000 S 
ENDROOT
BRANCH   1   6
ATOM      3  N   UNL     1       3.681   5.068  18.241  0.00  0.00    +0.000 N 
ATOM      4  C   UNL     1       4.225   5.273  19.488  0.00  0.00    +0.000 C 
ATOM      5  O   UNL     1       5.418   5.314  19.768  0.00  0.00    +0.000 OA
ATOM      6  N   UNL     1       3.309   5.601  20.469  0.00  0.00    +0.000 N 
ATOM      7  H   UNL     1       2.785   5.518  18.118  0.00  0.00    +0.000 HD
ATOM      8  H   UNL     1       3.777   5.916  21.309  0.00  0.00    +0.000 HD
BRANCH   3  17
ATOM      9  C   UNL     1       4.600   7.419  16.775  0.00  0.00    +0.000 C 
ATOM     10  C   UNL     1       4.875   6.003  16.341  0.00  0.00    +0.000 A 
ATOM     11  C   UNL     1       5.598   5.816  15.153  0.00  0.00    +0.000 A 
ATOM     12  C   UNL     1       5.905   4.533  14.709  0.00  0.00    +0.000 A 
ATOM     13 CL   UNL     1       6.794   4.322  13.252  0.00  0.00    +0.000 Cl
ATOM     14  C   UNL     1       5.482   3.421  15.429  0.00  0.00    +0.000 A 
ATOM     15  C   UNL     1       4.743   3.568  16.616  0.00  0.00    +0.000 A 
ATOM     16  C   UNL     1       4.208   2.318  17.267  0.00  0.00    +0.000 C 
ATOM     17  C   UNL     1       4.456   4.869  17.080  0.00  0.00    +0.000 A 
ENDBRANCH   3  17
ENDBRANCH   1   6
BRANCH   1  18
ATOM     18  N   UNL     1       1.351   6.644  21.130  0.00  0.00    +0.000 N 
ATOM     19  H   UNL     1       0.656   6.470  21.852  0.00  0.00    +0.000 HD
BRANCH  18  20
ATOM     20  C   UNL     1       1.363   7.944  20.574  0.00  0.00    +0.000 A 
ATOM     21  C   UNL     1       1.728   8.195  19.242  0.00  0.00    +0.000 A 
ATOM     22  C   UNL     1       1.699   9.484  18.720  0.00  0.00    +0.000 A 
ATOM     23  C   UNL     1       1.287  10.539  19.531  0.00  0.00    +0.000 A 
ATOM     24  C   UNL     1       0.906  10.308  20.857  0.00  0.00    +0.000 A 
ATOM     25  C   UNL     1       0.927   9.006  21.370  0.00  0.00    +0.000 A 
BRANCH  23  26
ATOM     26  S   UNL     1       1.277  12.182  18.879  0.00  0.00    +0.000 S 
ATOM     27  O   UNL     1      -0.026  12.465  18.327  0.00  0.00    +0.000 OA
ATOM     28  O   UNL     1       1.940  13.065  19.810  0.00  0.00    +0.000 OA
BRANCH  26  29
ATOM     29  N   UNL     1       2.316  12.029  17.569  0.00  0.00    +0.000 NA
ATOM     30  H   UNL     1       3.112  12.657  17.686  0.00  0.00    +0.000 HD
ATOM     31  H   UNL     1       2.579  11.050  17.448  0.00  0.00    +0.000 HD
ENDBRANCH  26  29
ENDBRANCH  23  26
ENDBRANCH  18  20
ENDBRANCH   1  18
TORSDOF 6
ENDMDL
MODEL 4
REMARK VINA RESULT:      -7.0      3.268      4.250
REMARK  Name = 
REMARK  8 active torsions:
REMARK  status: ('A' for Active; 'I' for Inactive)
REMARK    1  A    between atoms: C_1  and  C_2
REMARK    2  A    between atoms: C_7  and  C_8
REMARK    3  A    between atoms: C_9  and  N_10
REMARK    4  A    between atoms: N_13  and  C_14
REMARK    5  A    between atoms: C_14  and  N_16
REMARK    6  A    between atoms: N_16  and  C_17
REMARK    7  A    between atoms: C_20  and  S_21
REMARK    8  A    between atoms: S_21  and  N_22
REMARK                            x       y       z     vdW  Elec       q    Type
REMARK                         _______ _______ _______ _____ _____    ______ ____
ROOT
ATOM      1  C   UNL     1       0.661   9.010  20.960  0.00  0.00    +0.000 C 
ATOM      2  S   UNL     1      -0.042   9.151  22.462  0.00  0.00    +0.000 S 
ENDROOT
BRANCH   1   6
ATOM      3  N   UNL     1       0.390  11.808  20.046  0.00  0.00    +0.000 N 
ATOM      4  C   UNL     1      -0.138  10.780  19.300  0.00  0.00    +0.000 C 
ATOM      5  O   UNL     1      -0.724  10.879  18.228  0.00  0.00    +0.000 OA
ATOM      6  N   UNL     1       0.167   9.515  19.766  0.00  0.00    +0.000 N 
ATOM      7  H   UNL     1       1.194  11.533  20.593  0.00  0.00    +0.000 HD
ATOM      8  H   UNL     1      -0.088   8.809  19.088  0.00  0.00    +0.000 HD
BRANCH   3  17
ATOM      9  C   UNL     1       2.582  12.907  18.463  0.00  0.00    +0.000 C 
ATOM     10  C   UNL     1       1.396  13.714  18.923  0.00  0.00    +0.000 A 
ATOM     11  C   UNL     1       1.364  15.075  18.581  0.00  0.00    +0.000 A 
ATOM     12  C   UNL     1       0.286  15.871  18.955  0.00  0.00    +0.000 A 
ATOM     13 CL   UNL     1       0.261  17.536  18.526  0.00  0.00    +0.000 Cl
ATOM     14  C   UNL     1      -0.765  15.331  19.689  0.00  0.00    +0.000 A 
ATOM     15  C   UNL     1      -0.761  13.975  20.063  0.00  0.00    +0.000 A 
ATOM     16  C   UNL     1      -1.867  13.495  20.968  0.00  0.00    +0.000 C 
ATOM     17  C   UNL     1       0.319  13.163  19.659  0.00  0.00    +0.000 A 
ENDBRANCH   3  17
ENDBRANCH   1   6
BRANCH   1  18
ATOM     18  N   UNL     1       1.838   8.311  20.822  0.00  0.00    +0.000 N 
ATOM     19  H   UNL     1       2.689   8.844  20.978  0.00  0.00    +0.000 HD
BRANCH  18  20
ATOM     20  C   UNL     1       1.992   7.067  20.165  0.00  0.00    +0.000 A 
ATOM     21  C   UNL     1       2.591   6.947  18.902  0.00  0.00    +0.000 A 
ATOM     22  C   UNL     1       2.753   5.703  18.299  0.00  0.00    +0.000 A 
ATOM     23  C   UNL     1       2.324   4.560  18.969  0.00  0.00    +0.000 A 
ATOM     24  C   UNL     1       1.737   4.657  20.235  0.00  0.00    +0.000 A 
ATOM     25  C   UNL     1       1.590   5.912  20.839  0.00  0.00    +0.000 A 
BRANCH  23  26
ATOM     26  S   UNL     1       2.502   2.982  18.193  0.00  0.00    +0.000 S 
ATOM     27  O   UNL     1       1.901   1.971  19.031  0.00  0.00    +0.000 OA
ATOM     28  O   UNL     1       2.203   3.109  16.786  0.00  0.00    +0.000 OA
BRANCH  26  29
ATOM     29  N   UNL     1       4.161   2.744  18.293  0.00  0.00    +0.000 NA
ATOM     30  H   UNL     1       4.353   1.791  18.604  0.00  0.00    +0.000 HD
ATOM     31  H   UNL     1       4.600   2.983  17.403  0.00  0.00    +0.000 HD
ENDBRANCH  26  29
ENDBRANCH  23  26
ENDBRANCH  18  20
ENDBRANCH   1  18
TORSDOF 6
ENDMDL
MODEL 5
REMARK VINA RESULT:      -7.0      0.984      1.976
REMARK  Name = 
REMARK  8 active torsions:
REMARK  status: ('A' for Active; 'I' for Inactive)
REMARK    1  A    between atoms: C_1  and  C_2
REMARK    2  A    between atoms: C_7  and  C_8
REMARK    3  A    between atoms: C_9  and  N_10
REMARK    4  A    between atoms: N_13  and  C_14
REMARK    5  A    between atoms: C_14  and  N_16
REMARK    6  A    between atoms: N_16  and  C_17
REMARK    7  A    between atoms: C_20  and  S_21
REMARK    8  A    between atoms: S_21  and  N_22
REMARK                            x       y       z     vdW  Elec       q    Type
REMARK                         _______ _______ _______ _____ _____    ______ ____
ROOT
ATOM      1  C   UNL     1       1.234   9.637  19.106  0.00  0.00    +0.000 C 
ATOM      2  S   UNL     1       1.181   8.790  20.539  0.00  0.00    +0.000 S 
ENDROOT
BRANCH   1   6
ATOM      3  N   UNL     1      -1.464  10.688  18.515  0.00  0.00    +0.000 N 
ATOM      4  C   UNL     1      -0.372  11.523  18.484  0.00  0.00    +0.000 C 
ATOM      5  O   UNL     1      -0.377  12.726  18.249  0.00  0.00    +0.000 OA
ATOM      6  N   UNL     1       0.809  10.942  18.903  0.00  0.00    +0.000 N 
ATOM      7  H   UNL     1      -1.355   9.912  19.153  0.00  0.00    +0.000 HD
ATOM      8  H   UNL     1       1.529  11.640  19.033  0.00  0.00    +0.000 HD
BRANCH   3  17
ATOM      9  C   UNL     1      -2.681  10.020  15.948  0.00  0.00    +0.000 C 
ATOM     10  C   UNL     1      -3.368  10.837  17.011  0.00  0.00    +0.000 A 
ATOM     11  C   UNL     1      -4.657  11.314  16.732  0.00  0.00    +0.000 A 
ATOM     12  C   UNL     1      -5.356  12.055  17.681  0.00  0.00    +0.000 A 
ATOM     13 CL   UNL     1      -6.936  12.631  17.324  0.00  0.00    +0.000 Cl
ATOM     14  C   UNL     1      -4.775  12.347  18.910  0.00  0.00    +0.000 A 
ATOM     15  C   UNL     1      -3.479  11.899  19.220  0.00  0.00    +0.000 A 
ATOM     16  C   UNL     1      -2.867  12.366  20.516  0.00  0.00    +0.000 C 
ATOM     17  C   UNL     1      -2.783  11.125  18.268  0.00  0.00    +0.000 A 
ENDBRANCH   3  17
ENDBRANCH   1   6
BRANCH   1  18
ATOM     18  N   UNL     1       1.711   9.024  17.970  0.00  0.00    +0.000 N 
ATOM     19  H   UNL     1       1.341   9.376  17.092  0.00  0.00    +0.000 HD
BRANCH  18  20
ATOM     20  C   UNL     1       2.365   7.771  17.916  0.00  0.00    +0.000 A 
ATOM     21  C   UNL     1       1.701   6.559  18.165  0.00  0.00    +0.000 A 
ATOM     22  C   UNL     1       2.370   5.342  18.072  0.00  0.00    +0.000 A 
ATOM     23  C   UNL     1       3.716   5.330  17.714  0.00  0.00    +0.000 A 
ATOM     24  C   UNL     1       4.392   6.526  17.450  0.00  0.00    +0.000 A 
ATOM     25  C   UNL     1       3.707   7.744  17.533  0.00  0.00    +0.000 A 
BRANCH  23  26
ATOM     26  S   UNL     1       4.576   3.787  17.625  0.00  0.00    +0.000 S 
ATOM     27  O   UNL     1       3.653   2.714  17.909  0.00  0.00    +0.000 OA
ATOM     28  O   UNL     1       5.436   3.791  16.465  0.00  0.00    +0.000 OA
BRANCH  26  29
ATOM     29  N   UNL     1       5.593   3.893  18.956  0.00  0.00    +0.000 NA
ATOM     30  H   UNL     1       5.583   4.846  19.321  0.00  0.00    +0.000 HD
ATOM     31  H   UNL     1       5.337   3.186  19.646  0.00  0.00    +0.000 HD
ENDBRANCH  26  29
ENDBRANCH  23  26
ENDBRANCH  18  20
ENDBRANCH   1  18
TORSDOF 6
ENDMDL
MODEL 6
REMARK VINA RESULT:      -7.0      4.805      9.087
REMARK  Name = 
REMARK  8 active torsions:
REMARK  status: ('A' for Active; 'I' for Inactive)
REMARK    1  A    between atoms: C_1  and  C_2
REMARK    2  A    between atoms: C_7  and  C_8
REMARK    3  A    between atoms: C_9  and  N_10
REMARK    4  A    between atoms: N_13  and  C_14
REMARK    5  A    between atoms: C_14  and  N_16
REMARK    6  A    between atoms: N_16  and  C_17
REMARK    7  A    between atoms: C_20  and  S_21
REMARK    8  A    between atoms: S_21  and  N_22
REMARK                            x       y       z     vdW  Elec       q    Type
REMARK                         _______ _______ _______ _____ _____    ______ ____
ROOT
ATOM      1  C   UNL     1       1.965   5.470  20.640  0.00  0.00    +0.000 C 
ATOM      2  S   UNL     1       0.953   4.239  20.155  0.00  0.00    +0.000 S 
ENDROOT
BRANCH   1   6
ATOM      3  N   UNL     1       3.640   5.121  18.231  0.00  0.00    +0.000 N 
ATOM      4  C   UNL     1       4.223   5.220  19.473  0.00  0.00    +0.000 C 
ATOM      5  O   UNL     1       5.423   5.203  19.722  0.00  0.00    +0.000 OA
ATOM      6  N   UNL     1       3.344   5.509  20.499  0.00  0.00    +0.000 N 
ATOM      7  H   UNL     1       2.758   5.608  18.163  0.00  0.00    +0.000 HD
ATOM      8  H   UNL     1       3.844   5.749  21.345  0.00  0.00    +0.000 HD
BRANCH   3  17
ATOM      9  C   UNL     1       4.177   2.423  17.256  0.00  0.00    +0.000 C 
ATOM     10  C   UNL     1       4.675   3.671  16.576  0.00  0.00    +0.000 A 
ATOM     11  C   UNL     1       5.456   3.516  15.420  0.00  0.00    +0.000 A 
ATOM     12  C   UNL     1       5.927   4.629  14.732  0.00  0.00    +0.000 A 
ATOM     13 CL   UNL     1       6.880   4.421  13.316  0.00  0.00    +0.000 Cl
ATOM     14  C   UNL     1       5.644   5.910  15.192  0.00  0.00    +0.000 A 
ATOM     15  C   UNL     1       4.878   6.106  16.355  0.00  0.00    +0.000 A 
ATOM     16  C   UNL     1       4.726   7.517  16.864  0.00  0.00    +0.000 C 
ATOM     17  C   UNL     1       4.378   4.977  17.037  0.00  0.00    +0.000 A 
ENDBRANCH   3  17
ENDBRANCH   1   6
BRANCH   1  18
ATOM     18  N   UNL     1       1.439   6.573  21.274  0.00  0.00    +0.000 N 
ATOM     19  H   UNL     1       0.883   6.381  22.103  0.00  0.00    +0.000 HD
BRANCH  18  20
ATOM     20  C   UNL     1       1.302   7.865  20.714  0.00  0.00    +0.000 A 
ATOM     21  C   UNL     1       1.711   8.171  19.407  0.00  0.00    +0.000 A 
ATOM     22  C   UNL     1       1.532   9.446  18.878  0.00  0.00    +0.000 A 
ATOM     23  C   UNL     1       0.925  10.428  19.658  0.00  0.00    +0.000 A 
ATOM     24  C   UNL     1       0.498  10.139  20.959  0.00  0.00    +0.000 A 
ATOM     25  C   UNL     1       0.672   8.850  21.477  0.00  0.00    +0.000 A 
BRANCH  23  26
ATOM     26  S   UNL     1       0.723  12.056  19.000  0.00  0.00    +0.000 S 
ATOM     27  O   UNL     1       0.183  12.918  20.024  0.00  0.00    +0.000 OA
ATOM     28  O   UNL     1       1.892  12.402  18.225  0.00  0.00    +0.000 OA
BRANCH  26  29
ATOM     29  N   UNL     1      -0.513  11.818  17.890  0.00  0.00    +0.000 NA
ATOM     30  H   UNL     1      -0.473  12.541  17.170  0.00  0.00    +0.000 HD
ATOM     31  H   UNL     1      -0.469  10.868  17.520  0.00  0.00    +0.000 HD
ENDBRANCH  26  29
ENDBRANCH  23  26
ENDBRANCH  18  20
ENDBRANCH   1  18
TORSDOF 6
ENDMDL
MODEL 7
REMARK VINA RESULT:      -7.0      3.241      3.910
REMARK  Name = 
REMARK  8 active torsions:
REMARK  status: ('A' for Active; 'I' for Inactive)
REMARK    1  A    between atoms: C_1  and  C_2
REMARK    2  A    between atoms: C_7  and  C_8
REMARK    3  A    between atoms: C_9  and  N_10
REMARK    4  A    between atoms: N_13  and  C_14
REMARK    5  A    between atoms: C_14  and  N_16
REMARK    6  A    between atoms: N_16  and  C_17
REMARK    7  A    between atoms: C_20  and  S_21
REMARK    8  A    between atoms: S_21  and  N_22
REMARK                            x       y       z     vdW  Elec       q    Type
REMARK                         _______ _______ _______ _____ _____    ______ ____
ROOT
ATOM      1  C   UNL     1       0.645   8.980  20.972  0.00  0.00    +0.000 C 
ATOM      2  S   UNL     1      -0.101   9.058  22.458  0.00  0.00    +0.000 S 
ENDROOT
BRANCH   1   6
ATOM      3  N   UNL     1       0.415  11.802  20.126  0.00  0.00    +0.000 N 
ATOM      4  C   UNL     1      -0.108  10.799  19.344  0.00  0.00    +0.000 C 
ATOM      5  O   UNL     1      -0.673  10.931  18.265  0.00  0.00    +0.000 OA
ATOM      6  N   UNL     1       0.177   9.520  19.783  0.00  0.00    +0.000 N 
ATOM      7  H   UNL     1       1.206  11.506  20.680  0.00  0.00    +0.000 HD
ATOM      8  H   UNL     1      -0.071   8.834  19.082  0.00  0.00    +0.000 HD
BRANCH   3  17
ATOM      9  C   UNL     1      -1.889  13.366  20.999  0.00  0.00    +0.000 C 
ATOM     10  C   UNL     1      -0.769  13.925  20.162  0.00  0.00    +0.000 A 
ATOM     11  C   UNL     1      -0.858  15.269  19.769  0.00  0.00    +0.000 A 
ATOM     12  C   UNL     1       0.154  15.853  19.014  0.00  0.00    +0.000 A 
ATOM     13 CL   UNL     1       0.030  17.501  18.543  0.00  0.00    +0.000 Cl
ATOM     14  C   UNL     1       1.259  15.104  18.624  0.00  0.00    +0.000 A 
ATOM     15  C   UNL     1       1.377  13.750  18.985  0.00  0.00    +0.000 A 
ATOM     16  C   UNL     1       2.535  12.971  18.415  0.00  0.00    +0.000 C 
ATOM     17  C   UNL     1       0.363  13.167  19.774  0.00  0.00    +0.000 A 
ENDBRANCH   3  17
ENDBRANCH   1   6
BRANCH   1  18
ATOM     18  N   UNL     1       1.835   8.300  20.843  0.00  0.00    +0.000 N 
ATOM     19  H   UNL     1       2.676   8.860  20.951  0.00  0.00    +0.000 HD
BRANCH  18  20
ATOM     20  C   UNL     1       2.004   7.028  20.247  0.00  0.00    +0.000 A 
ATOM     21  C   UNL     1       1.512   5.849  20.828  0.00  0.00    +0.000 A 
ATOM     22  C   UNL     1       1.670   4.618  20.197  0.00  0.00    +0.000 A 
ATOM     23  C   UNL     1       2.314   4.562  18.964  0.00  0.00    +0.000 A 
ATOM     24  C   UNL     1       2.800   5.728  18.362  0.00  0.00    +0.000 A 
ATOM     25  C   UNL     1       2.625   6.962  18.998  0.00  0.00    +0.000 A 
BRANCH  23  26
ATOM     26  S   UNL     1       2.542   2.996  18.175  0.00  0.00    +0.000 S 
ATOM     27  O   UNL     1       2.041   1.953  19.038  0.00  0.00    +0.000 OA
ATOM     28  O   UNL     1       2.166   3.107  16.785  0.00  0.00    +0.000 OA
BRANCH  26  29
ATOM     29  N   UNL     1       4.214   2.852  18.191  0.00  0.00    +0.000 NA
ATOM     30  H   UNL     1       4.477   1.879  18.030  0.00  0.00    +0.000 HD
ATOM     31  H   UNL     1       4.625   3.505  17.523  0.00  0.00    +0.000 HD
ENDBRANCH  26  29
ENDBRANCH  23  26
ENDBRANCH  18  20
ENDBRANCH   1  18
TORSDOF 6
ENDMDL
MODEL 8
REMARK VINA RESULT:      -7.0      2.281      3.045
REMARK  Name = 
REMARK  8 active torsions:
REMARK  status: ('A' for Active; 'I' for Inactive)
REMARK    1  A    between atoms: C_1  and  C_2
REMARK    2  A    between atoms: C_7  and  C_8
REMARK    3  A    between atoms: C_9  and  N_10
REMARK    4  A    between atoms: N_13  and  C_14
REMARK    5  A    between atoms: C_14  and  N_16
REMARK    6  A    between atoms: N_16  and  C_17
REMARK    7  A    between atoms: C_20  and  S_21
REMARK    8  A    between atoms: S_21  and  N_22
REMARK                            x       y       z     vdW  Elec       q    Type
REMARK                         _______ _______ _______ _____ _____    ______ ____
ROOT
ATOM      1  C   UNL     1       1.996   7.538  19.378  0.00  0.00    +0.000 C 
ATOM      2  S   UNL     1       1.773   6.913  20.904  0.00  0.00    +0.000 S 
ENDROOT
BRANCH   1   6
ATOM      3  N   UNL     1       0.015   9.719  19.614  0.00  0.00    +0.000 N 
ATOM      4  C   UNL     1       1.213   9.936  18.974  0.00  0.00    +0.000 C 
ATOM      5  O   UNL     1       1.598  10.989  18.477  0.00  0.00    +0.000 OA
ATOM      6  N   UNL     1       2.102   8.880  19.043  0.00  0.00    +0.000 N 
ATOM      7  H   UNL     1       0.068   9.007  20.329  0.00  0.00    +0.000 HD
ATOM      8  H   UNL     1       3.019   9.159  18.720  0.00  0.00    +0.000 HD
BRANCH   3  17
ATOM      9  C   UNL     1      -0.107  11.107  22.179  0.00  0.00    +0.000 C 
ATOM     10  C   UNL     1      -1.056  11.371  21.039  0.00  0.00    +0.000 A 
ATOM     11  C   UNL     1      -2.063  12.327  21.240  0.00  0.00    +0.000 A 
ATOM     12  C   UNL     1      -2.958  12.635  20.220  0.00  0.00    +0.000 A 
ATOM     13 CL   UNL     1      -4.185  13.810  20.482  0.00  0.00    +0.000 Cl
ATOM     14  C   UNL     1      -2.875  11.984  18.994  0.00  0.00    +0.000 A 
ATOM     15  C   UNL     1      -1.888  11.009  18.760  0.00  0.00    +0.000 A 
ATOM     16  C   UNL     1      -1.945  10.255  17.455  0.00  0.00    +0.000 C 
ATOM     17  C   UNL     1      -0.965  10.718  19.785  0.00  0.00    +0.000 A 
ENDBRANCH   3  17
ENDBRANCH   1   6
BRANCH   1  18
ATOM     18  N   UNL     1       2.062   6.689  18.297  0.00  0.00    +0.000 N 
ATOM     19  H   UNL     1       1.203   6.193  18.073  0.00  0.00    +0.000 HD
BRANCH  18  20
ATOM     20  C   UNL     1       3.246   6.185  17.708  0.00  0.00    +0.000 A 
ATOM     21  C   UNL     1       3.543   4.815  17.658  0.00  0.00    +0.000 A 
ATOM     22  C   UNL     1       4.703   4.353  17.043  0.00  0.00    +0.000 A 
ATOM     23  C   UNL     1       5.575   5.269  16.458  0.00  0.00    +0.000 A 
ATOM     24  C   UNL     1       5.290   6.639  16.486  0.00  0.00    +0.000 A 
ATOM     25  C   UNL     1       4.114   7.092  17.096  0.00  0.00    +0.000 A 
BRANCH  23  26
ATOM     26  S   UNL     1       7.064   4.688  15.703  0.00  0.00    +0.000 S 
ATOM     27  O   UNL     1       7.501   5.648  14.718  0.00  0.00    +0.000 OA
ATOM     28  O   UNL     1       7.939   4.163  16.724  0.00  0.00    +0.000 OA
BRANCH  26  29
ATOM     29  N   UNL     1       6.507   3.358  14.843  0.00  0.00    +0.000 NA
ATOM     30  H   UNL     1       6.721   3.475  13.852  0.00  0.00    +0.000 HD
ATOM     31  H   UNL     1       6.885   2.501  15.247  0.00  0.00    +0.000 HD
ENDBRANCH  26  29
ENDBRANCH  23  26
ENDBRANCH  18  20
ENDBRANCH   1  18
TORSDOF 6
ENDMDL
MODEL 9
REMARK VINA RESULT:      -7.0      3.388      4.157
REMARK  Name = 
REMARK  8 active torsions:
REMARK  status: ('A' for Active; 'I' for Inactive)
REMARK    1  A    between atoms: C_1  and  C_2
REMARK    2  A    between atoms: C_7  and  C_8
REMARK    3  A    between atoms: C_9  and  N_10
REMARK    4  A    between atoms: N_13  and  C_14
REMARK    5  A    between atoms: C_14  and  N_16
REMARK    6  A    between atoms: N_16  and  C_17
REMARK    7  A    between atoms: C_20  and  S_21
REMARK    8  A    between atoms: S_21  and  N_22
REMARK                            x       y       z     vdW  Elec       q    Type
REMARK                         _______ _______ _______ _____ _____    ______ ____
ROOT
ATOM      1  C   UNL     1       0.791   8.929  20.915  0.00  0.00    +0.000 C 
ATOM      2  S   UNL     1       0.148   9.083  22.443  0.00  0.00    +0.000 S 
ENDROOT
BRANCH   1   6
ATOM      3  N   UNL     1       0.526  11.757  20.100  0.00  0.00    +0.000 N 
ATOM      4  C   UNL     1      -0.020  10.758  19.327  0.00  0.00    +0.000 C 
ATOM      5  O   UNL     1      -0.619  10.897  18.267  0.00  0.00    +0.000 OA
ATOM      6  N   UNL     1       0.283   9.476  19.746  0.00  0.00    +0.000 N 
ATOM      7  H   UNL     1       1.335  11.459  20.625  0.00  0.00    +0.000 HD
ATOM      8  H   UNL     1       0.015   8.795  19.048  0.00  0.00    +0.000 HD
BRANCH   3  17
ATOM      9  C   UNL     1      -1.744  13.312  21.075  0.00  0.00    +0.000 C 
ATOM     10  C   UNL     1      -0.658  13.878  20.198  0.00  0.00    +0.000 A 
ATOM     11  C   UNL     1      -0.764  15.225  19.819  0.00  0.00    +0.000 A 
ATOM     12  C   UNL     1       0.217  15.815  19.029  0.00  0.00    +0.000 A 
ATOM     13 CL   UNL     1       0.073  17.467  18.576  0.00  0.00    +0.000 Cl
ATOM     14  C   UNL     1       1.306  15.070  18.590  0.00  0.00    +0.000 A 
ATOM     15  C   UNL     1       1.440  13.714  18.936  0.00  0.00    +0.000 A 
ATOM     16  C   UNL     1       2.575  12.941  18.314  0.00  0.00    +0.000 C 
ATOM     17  C   UNL     1       0.459  13.124  19.760  0.00  0.00    +0.000 A 
ENDBRANCH   3  17
ENDBRANCH   1   6
BRANCH   1  18
ATOM     18  N   UNL     1       1.924   8.170  20.727  0.00  0.00    +0.000 N 
ATOM     19  H   UNL     1       2.803   8.680  20.745  0.00  0.00    +0.000 HD
BRANCH  18  20
ATOM     20  C   UNL     1       1.968   6.867  20.180  0.00  0.00    +0.000 A 
ATOM     21  C   UNL     1       1.474   5.743  20.860  0.00  0.00    +0.000 A 
ATOM     22  C   UNL     1       1.506   4.479  20.278  0.00  0.00    +0.000 A 
ATOM     23  C   UNL     1       2.026   4.334  18.994  0.00  0.00    +0.000 A 
ATOM     24  C   UNL     1       2.511   5.444  18.294  0.00  0.00    +0.000 A 
ATOM     25  C   UNL     1       2.463   6.712  18.883  0.00  0.00    +0.000 A 
BRANCH  23  26
ATOM     26  S   UNL     1       2.095   2.725  18.264  0.00  0.00    +0.000 S 
ATOM     27  O   UNL     1       2.273   2.859  16.838  0.00  0.00    +0.000 OA
ATOM     28  O   UNL     1       2.928   1.871  19.078  0.00  0.00    +0.000 OA
BRANCH  26  29
ATOM     29  N   UNL     1       0.521   2.187  18.489  0.00  0.00    +0.000 NA
ATOM     30  H   UNL     1       0.498   1.167  18.452  0.00  0.00    +0.000 HD
ATOM     31  H   UNL     1       0.142   2.575  19.354  0.00  0.00    +0.000 HD
ENDBRANCH  26  29
ENDBRANCH  23  26
ENDBRANCH  18  20
ENDBRANCH   1  18
TORSDOF 6
ENDMDL
