MODEL 1
REMARK VINA RESULT:     -10.1      0.000      0.000
REMARK  Name = 
REMARK  7 active torsions:
REMARK  status: ('A' for Active; 'I' for Inactive)
REMARK    1  A    between atoms: C_1  and  C_2
REMARK    2  A    between atoms: C_4  and  N_5
REMARK    3  A    between atoms: N_5  and  C_6
REMARK    4  A    between atoms: C_10  and  C_11
REMARK    5  A    between atoms: N_13  and  C_14
REMARK    6  A    between atoms: C_17  and  N_18
REMARK    7  A    between atoms: N_18  and  C_19
REMARK                            x       y       z     vdW  Elec       q    Type
REMARK                         _______ _______ _______ _____ _____    ______ ____
ROOT
ATOM      1  C   UNL     1       1.810   7.113  20.351  0.00  0.00    +0.000 C 
ATOM      2  O   UNL     1       2.309   7.893  19.539  0.00  0.00    +0.000 OA
ATOM      3  N   UNL     1       0.826   7.495  21.275  0.00  0.00    +0.000 N 
ATOM      4  H   UNL     1       0.457   6.789  21.899  0.00  0.00    +0.000 HD
ENDROOT
BRANCH   1   9
ATOM      5  C   UNL     1       3.971   4.109  19.287  0.00  0.00    +0.000 A 
ATOM      6  C   UNL     1       3.455   3.088  20.091  0.00  0.00    +0.000 A 
ATOM      7  C   UNL     1       2.390   3.333  20.965  0.00  0.00    +0.000 A 
ATOM      8  C   UNL     1       1.830   4.621  21.084  0.00  0.00    +0.000 A 
ATOM      9  C   UNL     1       2.333   5.680  20.315  0.00  0.00    +0.000 A 
ATOM     10  C   UNL     1       3.394   5.390  19.406  0.00  0.00    +0.000 A 
BRANCH   5  11
ATOM     11  N   UNL     1       5.046   3.797  18.427  0.00  0.00    +0.000 N 
ATOM     12  H   UNL     1       5.527   2.939  18.681  0.00  0.00    +0.000 HD
BRANCH  11  16
ATOM     13  C   UNL     1       8.015   7.697  18.054  0.00  0.00    +0.000 C 
ATOM     14  C   UNL     1       7.326   6.490  17.498  0.00  0.00    +0.000 A 
ATOM     15  C   UNL     1       6.583   5.670  18.316  0.00  0.00    +0.000 A 
ATOM     16  C   UNL     1       5.925   4.620  17.709  0.00  0.00    +0.000 A 
ATOM     17  N   UNL     1       6.024   4.391  16.384  0.00  0.00    +0.000 NA
ATOM     18  C   UNL     1       6.801   5.225  15.671  0.00  0.00    +0.000 A 
ATOM     19  N   UNL     1       6.984   4.976  14.324  0.00  0.00    +0.000 N 
ATOM     20  N   UNL     1       7.467   6.264  16.179  0.00  0.00    +0.000 NA
ATOM     21  H   UNL     1       6.859   3.992  14.135  0.00  0.00    +0.000 HD
ATOM     22  H   UNL     1       7.859   5.391  14.032  0.00  0.00    +0.000 HD
ENDBRANCH  11  16
ENDBRANCH   5  11
ENDBRANCH   1   9
BRANCH   3  23
ATOM     23  C   UNL     1       0.261   8.819  21.442  0.00  0.00    +0.000 A 
ATOM     24  C   UNL     1      -0.037   9.727  20.404  0.00  0.00    +0.000 A 
ATOM     25  C   UNL     1      -0.699  10.979  20.619  0.00  0.00    +0.000 A 
ATOM     26  C   UNL     1      -1.064  11.371  21.895  0.00  0.00    +0.000 A 
ATOM     27  C   UNL     1      -0.688  10.499  22.947  0.00  0.00    +0.000 A 
ATOM     28  C   UNL     1      -0.048   9.255  22.734  0.00  0.00    +0.000 A 
BRANCH  26  29
ATOM     29  N   UNL     1      -1.982  12.396  22.274  0.00  0.00    +0.000 N 
ATOM     30  H   UNL     1      -2.440  11.865  23.036  0.00  0.00    +0.000 HD
BRANCH  29  31
ATOM     31  C   UNL     1      -3.219  13.169  21.802  0.00  0.00    +0.000 A 
ATOM     32  C   UNL     1      -2.914  14.497  22.122  0.00  0.00    +0.000 A 
ATOM     33  C   UNL     1      -3.143  14.782  23.460  0.00  0.00    +0.000 A 
ATOM     34  N   UNL     1      -3.888  13.976  24.265  0.00  0.00    +0.000 NA
ATOM     35  C   UNL     1      -4.693  13.102  23.641  0.00  0.00    +0.000 A 
ATOM     36  C   UNL     1      -5.883  12.719  24.241  0.00  0.00    +0.000 A 
ATOM     37  C   UNL     1      -7.020  12.487  23.467  0.00  0.00    +0.000 A 
ATOM     38  C   UNL     1      -6.937  12.640  22.089  0.00  0.00    +0.000 A 
ATOM     39  C   UNL     1      -5.678  12.791  21.494  0.00  0.00    +0.000 A 
ATOM     40  C   UNL     1      -4.498  12.847  22.285  0.00  0.00    +0.000 A 
ENDBRANCH  29  31
ENDBRANCH  26  29
ENDBRANCH   3  23
TORSDOF 6
ENDMDL
MODEL 2
REMARK VINA RESULT:     -10.1      3.935      5.246
REMARK  Name = 
REMARK  7 active torsions:
REMARK  status: ('A' for Active; 'I' for Inactive)
REMARK    1  A    between atoms: C_1  and  C_2
REMARK    2  A    between atoms: C_4  and  N_5
REMARK    3  A    between atoms: N_5  and  C_6
REMARK    4  A    between atoms: C_10  and  C_11
REMARK    5  A    between atoms: N_13  and  C_14
REMARK    6  A    between atoms: C_17  and  N_18
REMARK    7  A    between atoms: N_18  and  C_19
REMARK                            x       y       z     vdW  Elec       q    Type
REMARK                         _______ _______ _______ _____ _____    ______ ____
ROOT
ATOM      1  C   UNL     1       2.310   7.393  18.674  0.00  0.00    +0.000 C 
ATOM      2  O   UNL     1       2.223   7.505  19.897  0.00  0.00    +0.000 OA
ATOM      3  N   UNL     1       2.001   8.436  17.787  0.00  0.00    +0.000 N 
ATOM      4  H   UNL     1       2.113   8.267  16.796  0.00  0.00    +0.000 HD
ENDROOT
BRANCH   1   9
ATOM      5  C   UNL     1       4.597   4.772  17.024  0.00  0.00    +0.000 A 
ATOM      6  C   UNL     1       3.821   3.613  17.123  0.00  0.00    +0.000 A 
ATOM      7  C   UNL     1       2.542   3.654  17.692  0.00  0.00    +0.000 A 
ATOM      8  C   UNL     1       2.016   4.854  18.209  0.00  0.00    +0.000 A 
ATOM      9  C   UNL     1       2.770   6.035  18.153  0.00  0.00    +0.000 A 
ATOM     10  C   UNL     1       4.054   5.969  17.534  0.00  0.00    +0.000 A 
BRANCH   5  11
ATOM     11  N   UNL     1       5.878   4.664  16.441  0.00  0.00    +0.000 N 
ATOM     12  H   UNL     1       6.609   5.100  16.996  0.00  0.00    +0.000 HD
BRANCH  11  16
ATOM     13  C   UNL     1       5.656   2.809  11.895  0.00  0.00    +0.000 C 
ATOM     14  C   UNL     1       6.215   3.736  12.929  0.00  0.00    +0.000 A 
ATOM     15  C   UNL     1       5.663   3.794  14.187  0.00  0.00    +0.000 A 
ATOM     16  C   UNL     1       6.284   4.622  15.100  0.00  0.00    +0.000 A 
ATOM     17  N   UNL     1       7.363   5.360  14.769  0.00  0.00    +0.000 NA
ATOM     18  C   UNL     1       7.810   5.265  13.505  0.00  0.00    +0.000 A 
ATOM     19  N   UNL     1       8.868   6.063  13.111  0.00  0.00    +0.000 N 
ATOM     20  N   UNL     1       7.271   4.486  12.565  0.00  0.00    +0.000 NA
ATOM     21  H   UNL     1       8.900   6.896  13.679  0.00  0.00    +0.000 HD
ATOM     22  H   UNL     1       8.822   6.192  12.109  0.00  0.00    +0.000 HD
ENDBRANCH  11  16
ENDBRANCH   5  11
ENDBRANCH   1   9
BRANCH   3  23
ATOM     23  C   UNL     1       1.527   9.760  18.136  0.00  0.00    +0.000 A 
ATOM     24  C   UNL     1       0.295  10.059  18.755  0.00  0.00    +0.000 A 
ATOM     25  C   UNL     1      -0.073  11.377  19.180  0.00  0.00    +0.000 A 
ATOM     26  C   UNL     1       0.781  12.446  18.973  0.00  0.00    +0.000 A 
ATOM     27  C   UNL     1       1.980  12.160  18.274  0.00  0.00    +0.000 A 
ATOM     28  C   UNL     1       2.351  10.857  17.868  0.00  0.00    +0.000 A 
BRANCH  26  29
ATOM     29  N   UNL     1       0.742  13.736  19.582  0.00  0.00    +0.000 N 
ATOM     30  H   UNL     1      -0.171  14.023  19.187  0.00  0.00    +0.000 HD
BRANCH  29  31
ATOM     31  C   UNL     1       1.406  15.117  19.569  0.00  0.00    +0.000 A 
ATOM     32  C   UNL     1       1.237  15.572  20.881  0.00  0.00    +0.000 A 
ATOM     33  C   UNL     1      -0.031  16.090  21.102  0.00  0.00    +0.000 A 
ATOM     34  N   UNL     1      -0.873  16.425  20.085  0.00  0.00    +0.000 NA
ATOM     35  C   UNL     1      -0.305  16.586  18.879  0.00  0.00    +0.000 A 
ATOM     36  C   UNL     1      -0.855  17.487  17.980  0.00  0.00    +0.000 A 
ATOM     37  C   UNL     1      -0.031  18.235  17.139  0.00  0.00    +0.000 A 
ATOM     38  C   UNL     1       1.345  18.058  17.215  0.00  0.00    +0.000 A 
ATOM     39  C   UNL     1       1.854  16.981  17.953  0.00  0.00    +0.000 A 
ATOM     40  C   UNL     1       0.987  16.110  18.667  0.00  0.00    +0.000 A 
ENDBRANCH  29  31
ENDBRANCH  26  29
ENDBRANCH   3  23
TORSDOF 6
ENDMDL
MODEL 3
REMARK VINA RESULT:      -9.8      1.156      2.624
REMARK  Name = 
REMARK  7 active torsions:
REMARK  status: ('A' for Active; 'I' for Inactive)
REMARK    1  A    between atoms: C_1  and  C_2
REMARK    2  A    between atoms: C_4  and  N_5
REMARK    3  A    between atoms: N_5  and  C_6
REMARK    4  A    between atoms: C_10  and  C_11
REMARK    5  A    between atoms: N_13  and  C_14
REMARK    6  A    between atoms: C_17  and  N_18
REMARK    7  A    between atoms: N_18  and  C_19
REMARK                            x       y       z     vdW  Elec       q    Type
REMARK                         _______ _______ _______ _____ _____    ______ ____
ROOT
ATOM      1  C   UNL     1       1.718   7.085  20.289  0.00  0.00    +0.000 C 
ATOM      2  O   UNL     1       2.240   7.879  19.507  0.00  0.00    +0.000 OA
ATOM      3  N   UNL     1       0.758   7.467  21.240  0.00  0.00    +0.000 N 
ATOM      4  H   UNL     1       0.366   6.750  21.836  0.00  0.00    +0.000 HD
ENDROOT
BRANCH   1   9
ATOM      5  C   UNL     1       3.900   4.081  19.274  0.00  0.00    +0.000 A 
ATOM      6  C   UNL     1       3.217   3.017  19.870  0.00  0.00    +0.000 A 
ATOM      7  C   UNL     1       2.031   3.236  20.582  0.00  0.00    +0.000 A 
ATOM      8  C   UNL     1       1.513   4.536  20.745  0.00  0.00    +0.000 A 
ATOM      9  C   UNL     1       2.179   5.635  20.185  0.00  0.00    +0.000 A 
ATOM     10  C   UNL     1       3.364   5.375  19.434  0.00  0.00    +0.000 A 
BRANCH   5  11
ATOM     11  N   UNL     1       5.090   3.794  18.571  0.00  0.00    +0.000 N 
ATOM     12  H   UNL     1       5.815   3.388  19.157  0.00  0.00    +0.000 HD
BRANCH  11  16
ATOM     13  C   UNL     1       6.318   3.975  13.815  0.00  0.00    +0.000 C 
ATOM     14  C   UNL     1       6.310   4.519  15.210  0.00  0.00    +0.000 A 
ATOM     15  C   UNL     1       5.585   3.896  16.199  0.00  0.00    +0.000 A 
ATOM     16  C   UNL     1       5.689   4.422  17.470  0.00  0.00    +0.000 A 
ATOM     17  N   UNL     1       6.444   5.509  17.728  0.00  0.00    +0.000 NA
ATOM     18  C   UNL     1       7.089   6.072  16.692  0.00  0.00    +0.000 A 
ATOM     19  N   UNL     1       7.811   7.230  16.907  0.00  0.00    +0.000 N 
ATOM     20  N   UNL     1       7.044   5.624  15.436  0.00  0.00    +0.000 NA
ATOM     21  H   UNL     1       7.432   7.730  17.698  0.00  0.00    +0.000 HD
ATOM     22  H   UNL     1       7.879   7.738  16.034  0.00  0.00    +0.000 HD
ENDBRANCH  11  16
ENDBRANCH   5  11
ENDBRANCH   1   9
BRANCH   3  23
ATOM     23  C   UNL     1       0.250   8.804  21.471  0.00  0.00    +0.000 A 
ATOM     24  C   UNL     1      -0.004   9.773  20.478  0.00  0.00    +0.000 A 
ATOM     25  C   UNL     1      -0.613  11.041  20.752  0.00  0.00    +0.000 A 
ATOM     26  C   UNL     1      -0.965  11.386  22.045  0.00  0.00    +0.000 A 
ATOM     27  C   UNL     1      -0.631  10.448  23.054  0.00  0.00    +0.000 A 
ATOM     28  C   UNL     1      -0.044   9.190  22.781  0.00  0.00    +0.000 A 
BRANCH  26  29
ATOM     29  N   UNL     1      -1.840  12.430  22.472  0.00  0.00    +0.000 N 
ATOM     30  H   UNL     1      -1.195  13.213  22.263  0.00  0.00    +0.000 HD
BRANCH  29  31
ATOM     31  C   UNL     1      -2.501  13.044  23.711  0.00  0.00    +0.000 A 
ATOM     32  C   UNL     1      -3.789  12.495  23.697  0.00  0.00    +0.000 A 
ATOM     33  C   UNL     1      -4.634  13.153  22.816  0.00  0.00    +0.000 A 
ATOM     34  N   UNL     1      -4.343  14.378  22.298  0.00  0.00    +0.000 NA
ATOM     35  C   UNL     1      -3.404  15.084  22.947  0.00  0.00    +0.000 A 
ATOM     36  C   UNL     1      -3.467  16.470  22.946  0.00  0.00    +0.000 A 
ATOM     37  C   UNL     1      -3.086  17.192  24.076  0.00  0.00    +0.000 A 
ATOM     38  C   UNL     1      -2.639  16.503  25.196  0.00  0.00    +0.000 A 
ATOM     39  C   UNL     1      -2.359  15.134  25.087  0.00  0.00    +0.000 A 
ATOM     40  C   UNL     1      -2.583  14.437  23.868  0.00  0.00    +0.000 A 
ENDBRANCH  29  31
ENDBRANCH  26  29
ENDBRANCH   3  23
TORSDOF 6
ENDMDL
MODEL 4
REMARK VINA RESULT:      -9.8      6.667     11.379
REMARK  Name = 
REMARK  7 active torsions:
REMARK  status: ('A' for Active; 'I' for Inactive)
REMARK    1  A    between atoms: C_1  and  C_2
REMARK    2  A    between atoms: C_4  and  N_5
REMARK    3  A    between atoms: N_5  and  C_6
REMARK    4  A    between atoms: C_10  and  C_11
REMARK    5  A    between atoms: N_13  and  C_14
REMARK    6  A    between atoms: C_17  and  N_18
REMARK    7  A    between atoms: N_18  and  C_19
REMARK                            x       y       z     vdW  Elec       q    Type
REMARK                         _______ _______ _______ _____ _____    ______ ____
ROOT
ATOM      1  C   UNL     1       8.957  10.009  18.621  0.00  0.00    +0.000 C 
ATOM      2  O   UNL     1       8.867   9.769  19.825  0.00  0.00    +0.000 OA
ATOM      3  N   UNL     1       8.361   9.208  17.635  0.00  0.00    +0.000 N 
ATOM      4  H   UNL     1       8.471   9.482  16.667  0.00  0.00    +0.000 HD
ENDROOT
BRANCH   1   9
ATOM      5  C   UNL     1       9.702  13.645  17.599  0.00  0.00    +0.000 A 
ATOM      6  C   UNL     1      11.098  13.637  17.516  0.00  0.00    +0.000 A 
ATOM      7  C   UNL     1      11.824  12.464  17.755  0.00  0.00    +0.000 A 
ATOM      8  C   UNL     1      11.172  11.269  18.119  0.00  0.00    +0.000 A 
ATOM      9  C   UNL     1       9.775  11.238  18.239  0.00  0.00    +0.000 A 
ATOM     10  C   UNL     1       9.062  12.440  17.952  0.00  0.00    +0.000 A 
BRANCH   5  11
ATOM     11  N   UNL     1       9.030  14.860  17.347  0.00  0.00    +0.000 N 
ATOM     12  H   UNL     1       9.618  15.560  16.905  0.00  0.00    +0.000 HD
BRANCH  11  16
ATOM     13  C   UNL     1       4.266  15.614  18.296  0.00  0.00    +0.000 C 
ATOM     14  C   UNL     1       5.723  15.900  18.487  0.00  0.00    +0.000 A 
ATOM     15  C   UNL     1       6.674  15.127  17.861  0.00  0.00    +0.000 A 
ATOM     16  C   UNL     1       7.991  15.502  18.035  0.00  0.00    +0.000 A 
ATOM     17  N   UNL     1       8.332  16.559  18.801  0.00  0.00    +0.000 NA
ATOM     18  C   UNL     1       7.336  17.233  19.400  0.00  0.00    +0.000 A 
ATOM     19  N   UNL     1       7.654  18.274  20.251  0.00  0.00    +0.000 N 
ATOM     20  N   UNL     1       6.040  16.938  19.281  0.00  0.00    +0.000 NA
ATOM     21  H   UNL     1       8.577  18.136  20.635  0.00  0.00    +0.000 HD
ATOM     22  H   UNL     1       6.897  18.400  20.910  0.00  0.00    +0.000 HD
ENDBRANCH  11  16
ENDBRANCH   5  11
ENDBRANCH   1   9
BRANCH   3  23
ATOM     23  C   UNL     1       7.585   8.002  17.848  0.00  0.00    +0.000 A 
ATOM     24  C   UNL     1       6.316   7.729  17.297  0.00  0.00    +0.000 A 
ATOM     25  C   UNL     1       5.645   6.473  17.450  0.00  0.00    +0.000 A 
ATOM     26  C   UNL     1       6.221   5.454  18.189  0.00  0.00    +0.000 A 
ATOM     27  C   UNL     1       7.456   5.759  18.815  0.00  0.00    +0.000 A 
ATOM     28  C   UNL     1       8.126   6.993  18.650  0.00  0.00    +0.000 A 
BRANCH  26  29
ATOM     29  N   UNL     1       5.876   4.069  18.200  0.00  0.00    +0.000 N 
ATOM     30  H   UNL     1       5.712   3.983  17.181  0.00  0.00    +0.000 HD
BRANCH  29  31
ATOM     31  C   UNL     1       4.800   3.078  18.657  0.00  0.00    +0.000 A 
ATOM     32  C   UNL     1       4.172   2.706  17.463  0.00  0.00    +0.000 A 
ATOM     33  C   UNL     1       3.245   3.647  17.040  0.00  0.00    +0.000 A 
ATOM     34  N   UNL     1       2.767   4.626  17.857  0.00  0.00    +0.000 NA
ATOM     35  C   UNL     1       2.938   4.428  19.174  0.00  0.00    +0.000 A 
ATOM     36  C   UNL     1       2.012   4.945  20.069  0.00  0.00    +0.000 A 
ATOM     37  C   UNL     1       1.675   4.238  21.222  0.00  0.00    +0.000 A 
ATOM     38  C   UNL     1       2.285   3.012  21.460  0.00  0.00    +0.000 A 
ATOM     39  C   UNL     1       3.380   2.630  20.674  0.00  0.00    +0.000 A 
ATOM     40  C   UNL     1       3.833   3.451  19.605  0.00  0.00    +0.000 A 
ENDBRANCH  29  31
ENDBRANCH  26  29
ENDBRANCH   3  23
TORSDOF 6
ENDMDL
MODEL 5
REMARK VINA RESULT:      -9.7      1.277      2.141
REMARK  Name = 
REMARK  7 active torsions:
REMARK  status: ('A' for Active; 'I' for Inactive)
REMARK    1  A    between atoms: C_1  and  C_2
REMARK    2  A    between atoms: C_4  and  N_5
REMARK    3  A    between atoms: N_5  and  C_6
REMARK    4  A    between atoms: C_10  and  C_11
REMARK    5  A    between atoms: N_13  and  C_14
REMARK    6  A    between atoms: C_17  and  N_18
REMARK    7  A    between atoms: N_18  and  C_19
REMARK                            x       y       z     vdW  Elec       q    Type
REMARK                         _______ _______ _______ _____ _____    ______ ____
ROOT
ATOM      1  C   UNL     1       1.818   6.995  20.269  0.00  0.00    +0.000 C 
ATOM      2  O   UNL     1       1.788   7.602  19.199  0.00  0.00    +0.000 OA
ATOM      3  N   UNL     1       1.366   7.550  21.477  0.00  0.00    +0.000 N 
ATOM      4  H   UNL     1       1.412   6.979  22.311  0.00  0.00    +0.000 HD
ENDROOT
BRANCH   1   9
ATOM      5  C   UNL     1       4.279   4.149  19.454  0.00  0.00    +0.000 A 
ATOM      6  C   UNL     1       3.645   3.047  20.035  0.00  0.00    +0.000 A 
ATOM      7  C   UNL     1       2.406   3.188  20.672  0.00  0.00    +0.000 A 
ATOM      8  C   UNL     1       1.781   4.447  20.774  0.00  0.00    +0.000 A 
ATOM      9  C   UNL     1       2.394   5.583  20.227  0.00  0.00    +0.000 A 
ATOM     10  C   UNL     1       3.638   5.401  19.552  0.00  0.00    +0.000 A 
BRANCH   5  11
ATOM     11  N   UNL     1       5.527   3.941  18.827  0.00  0.00    +0.000 N 
ATOM     12  H   UNL     1       6.159   3.364  19.374  0.00  0.00    +0.000 HD
BRANCH  11  16
ATOM     13  C   UNL     1       7.902   8.113  17.771  0.00  0.00    +0.000 C 
ATOM     14  C   UNL     1       7.395   6.747  17.429  0.00  0.00    +0.000 A 
ATOM     15  C   UNL     1       6.778   5.971  18.384  0.00  0.00    +0.000 A 
ATOM     16  C   UNL     1       6.278   4.755  17.967  0.00  0.00    +0.000 A 
ATOM     17  N   UNL     1       6.407   4.333  16.693  0.00  0.00    +0.000 NA
ATOM     18  C   UNL     1       7.055   5.144  15.839  0.00  0.00    +0.000 A 
ATOM     19  N   UNL     1       7.272   4.711  14.544  0.00  0.00    +0.000 N 
ATOM     20  N   UNL     1       7.565   6.335  16.160  0.00  0.00    +0.000 NA
ATOM     21  H   UNL     1       7.290   3.702  14.517  0.00  0.00    +0.000 HD
ATOM     22  H   UNL     1       8.077   5.195  14.170  0.00  0.00    +0.000 HD
ENDBRANCH  11  16
ENDBRANCH   5  11
ENDBRANCH   1   9
BRANCH   3  23
ATOM     23  C   UNL     1       0.826   8.881  21.671  0.00  0.00    +0.000 A 
ATOM     24  C   UNL     1       1.060   9.996  20.839  0.00  0.00    +0.000 A 
ATOM     25  C   UNL     1       0.409  11.260  21.016  0.00  0.00    +0.000 A 
ATOM     26  C   UNL     1      -0.484  11.451  22.055  0.00  0.00    +0.000 A 
ATOM     27  C   UNL     1      -0.653  10.358  22.941  0.00  0.00    +0.000 A 
ATOM     28  C   UNL     1      -0.023   9.105  22.758  0.00  0.00    +0.000 A 
BRANCH  26  29
ATOM     29  N   UNL     1      -1.444  12.496  22.213  0.00  0.00    +0.000 N 
ATOM     30  H   UNL     1      -0.774  13.220  22.531  0.00  0.00    +0.000 HD
BRANCH  29  31
ATOM     31  C   UNL     1      -2.638  12.945  23.061  0.00  0.00    +0.000 A 
ATOM     32  C   UNL     1      -3.740  12.670  22.243  0.00  0.00    +0.000 A 
ATOM     33  C   UNL     1      -3.944  13.653  21.285  0.00  0.00    +0.000 A 
ATOM     34  N   UNL     1      -3.361  14.881  21.359  0.00  0.00    +0.000 NA
ATOM     35  C   UNL     1      -2.887  15.236  22.564  0.00  0.00    +0.000 A 
ATOM     36  C   UNL     1      -2.873  16.575  22.926  0.00  0.00    +0.000 A 
ATOM     37  C   UNL     1      -3.128  16.951  24.245  0.00  0.00    +0.000 A 
ATOM     38  C   UNL     1      -3.388  15.963  25.187  0.00  0.00    +0.000 A 
ATOM     39  C   UNL     1      -3.160  14.622  24.850  0.00  0.00    +0.000 A 
ATOM     40  C   UNL     1      -2.725  14.261  23.545  0.00  0.00    +0.000 A 
ENDBRANCH  29  31
ENDBRANCH  26  29
ENDBRANCH   3  23
TORSDOF 6
ENDMDL
MODEL 6
REMARK VINA RESULT:      -9.7      1.041      1.588
REMARK  Name = 
REMARK  7 active torsions:
REMARK  status: ('A' for Active; 'I' for Inactive)
REMARK    1  A    between atoms: C_1  and  C_2
REMARK    2  A    between atoms: C_4  and  N_5
REMARK    3  A    between atoms: N_5  and  C_6
REMARK    4  A    between atoms: C_10  and  C_11
REMARK    5  A    between atoms: N_13  and  C_14
REMARK    6  A    between atoms: C_17  and  N_18
REMARK    7  A    between atoms: N_18  and  C_19
REMARK                            x       y       z     vdW  Elec       q    Type
REMARK                         _______ _______ _______ _____ _____    ______ ____
ROOT
ATOM      1  C   UNL     1       1.617   7.364  20.198  0.00  0.00    +0.000 C 
ATOM      2  O   UNL     1       2.150   8.192  19.458  0.00  0.00    +0.000 OA
ATOM      3  N   UNL     1       0.680   7.709  21.183  0.00  0.00    +0.000 N 
ATOM      4  H   UNL     1       0.278   6.966  21.740  0.00  0.00    +0.000 HD
ENDROOT
BRANCH   1   9
ATOM      5  C   UNL     1       3.122   4.273  18.464  0.00  0.00    +0.000 A 
ATOM      6  C   UNL     1       2.914   3.278  19.425  0.00  0.00    +0.000 A 
ATOM      7  C   UNL     1       2.265   3.570  20.630  0.00  0.00    +0.000 A 
ATOM      8  C   UNL     1       1.832   4.879  20.922  0.00  0.00    +0.000 A 
ATOM      9  C   UNL     1       2.042   5.912  19.998  0.00  0.00    +0.000 A 
ATOM     10  C   UNL     1       2.673   5.575  18.764  0.00  0.00    +0.000 A 
BRANCH   5  11
ATOM     11  N   UNL     1       3.783   3.914  17.270  0.00  0.00    +0.000 N 
ATOM     12  H   UNL     1       3.500   3.007  16.911  0.00  0.00    +0.000 HD
BRANCH  11  16
ATOM     13  C   UNL     1       7.028   4.601  13.643  0.00  0.00    +0.000 C 
ATOM     14  C   UNL     1       6.644   4.519  15.087  0.00  0.00    +0.000 A 
ATOM     15  C   UNL     1       5.328   4.349  15.451  0.00  0.00    +0.000 A 
ATOM     16  C   UNL     1       5.070   4.212  16.800  0.00  0.00    +0.000 A 
ATOM     17  N   UNL     1       6.054   4.268  17.720  0.00  0.00    +0.000 NA
ATOM     18  C   UNL     1       7.305   4.472  17.272  0.00  0.00    +0.000 A 
ATOM     19  N   UNL     1       8.328   4.609  18.191  0.00  0.00    +0.000 N 
ATOM     20  N   UNL     1       7.639   4.610  15.987  0.00  0.00    +0.000 NA
ATOM     21  H   UNL     1       7.960   4.950  19.067  0.00  0.00    +0.000 HD
ATOM     22  H   UNL     1       9.076   5.143  17.769  0.00  0.00    +0.000 HD
ENDBRANCH  11  16
ENDBRANCH   5  11
ENDBRANCH   1   9
BRANCH   3  23
ATOM     23  C   UNL     1       0.208   9.042  21.503  0.00  0.00    +0.000 A 
ATOM     24  C   UNL     1       0.192  10.145  20.623  0.00  0.00    +0.000 A 
ATOM     25  C   UNL     1      -0.390  11.410  20.957  0.00  0.00    +0.000 A 
ATOM     26  C   UNL     1      -0.956  11.616  22.204  0.00  0.00    +0.000 A 
ATOM     27  C   UNL     1      -0.863  10.536  23.117  0.00  0.00    +0.000 A 
ATOM     28  C   UNL     1      -0.302   9.281  22.782  0.00  0.00    +0.000 A 
BRANCH  26  29
ATOM     29  N   UNL     1      -1.839  12.662  22.610  0.00  0.00    +0.000 N 
ATOM     30  H   UNL     1      -2.338  12.116  23.335  0.00  0.00    +0.000 HD
BRANCH  29  31
ATOM     31  C   UNL     1      -3.028  13.509  22.146  0.00  0.00    +0.000 A 
ATOM     32  C   UNL     1      -2.765  14.768  22.699  0.00  0.00    +0.000 A 
ATOM     33  C   UNL     1      -3.125  14.842  24.037  0.00  0.00    +0.000 A 
ATOM     34  N   UNL     1      -3.940  13.926  24.629  0.00  0.00    +0.000 NA
ATOM     35  C   UNL     1      -4.674  13.168  23.800  0.00  0.00    +0.000 A 
ATOM     36  C   UNL     1      -5.915  12.706  24.214  0.00  0.00    +0.000 A 
ATOM     37  C   UNL     1      -6.969  12.608  23.306  0.00  0.00    +0.000 A 
ATOM     38  C   UNL     1      -6.753  12.975  21.983  0.00  0.00    +0.000 A 
ATOM     39  C   UNL     1      -5.443  13.206  21.545  0.00  0.00    +0.000 A 
ATOM     40  C   UNL     1      -4.346  13.127  22.446  0.00  0.00    +0.000 A 
ENDBRANCH  29  31
ENDBRANCH  26  29
ENDBRANCH   3  23
TORSDOF 6
ENDMDL
MODEL 7
REMARK VINA RESULT:      -9.7      6.714     10.912
REMARK  Name = 
REMARK  7 active torsions:
REMARK  status: ('A' for Active; 'I' for Inactive)
REMARK    1  A    between atoms: C_1  and  C_2
REMARK    2  A    between atoms: C_4  and  N_5
REMARK    3  A    between atoms: N_5  and  C_6
REMARK    4  A    between atoms: C_10  and  C_11
REMARK    5  A    between atoms: N_13  and  C_14
REMARK    6  A    between atoms: C_17  and  N_18
REMARK    7  A    between atoms: N_18  and  C_19
REMARK                            x       y       z     vdW  Elec       q    Type
REMARK                         _______ _______ _______ _____ _____    ______ ____
ROOT
ATOM      1  C   UNL     1       9.042  10.019  18.499  0.00  0.00    +0.000 C 
ATOM      2  O   UNL     1       9.116   9.709  19.688  0.00  0.00    +0.000 OA
ATOM      3  N   UNL     1       8.428   9.207  17.533  0.00  0.00    +0.000 N 
ATOM      4  H   UNL     1       8.397   9.542  16.579  0.00  0.00    +0.000 HD
ENDROOT
BRANCH   1   9
ATOM      5  C   UNL     1       9.267  13.763  17.631  0.00  0.00    +0.000 A 
ATOM      6  C   UNL     1      10.637  13.922  17.404  0.00  0.00    +0.000 A 
ATOM      7  C   UNL     1      11.510  12.831  17.495  0.00  0.00    +0.000 A 
ATOM      8  C   UNL     1      11.037  11.552  17.850  0.00  0.00    +0.000 A 
ATOM      9  C   UNL     1       9.674  11.353  18.111  0.00  0.00    +0.000 A 
ATOM     10  C   UNL     1       8.805  12.476  17.973  0.00  0.00    +0.000 A 
BRANCH   5  11
ATOM     11  N   UNL     1       8.440  14.903  17.525  0.00  0.00    +0.000 N 
ATOM     12  H   UNL     1       8.957  15.757  17.338  0.00  0.00    +0.000 HD
BRANCH  11  16
ATOM     13  C   UNL     1       5.840  16.824  21.227  0.00  0.00    +0.000 C 
ATOM     14  C   UNL     1       5.964  16.115  19.914  0.00  0.00    +0.000 A 
ATOM     15  C   UNL     1       7.194  15.955  19.320  0.00  0.00    +0.000 A 
ATOM     16  C   UNL     1       7.228  15.228  18.148  0.00  0.00    +0.000 A 
ATOM     17  N   UNL     1       6.107  14.720  17.596  0.00  0.00    +0.000 NA
ATOM     18  C   UNL     1       4.946  14.958  18.230  0.00  0.00    +0.000 A 
ATOM     19  N   UNL     1       3.770  14.516  17.654  0.00  0.00    +0.000 N 
ATOM     20  N   UNL     1       4.828  15.646  19.367  0.00  0.00    +0.000 NA
ATOM     21  H   UNL     1       3.883  14.444  16.653  0.00  0.00    +0.000 HD
ATOM     22  H   UNL     1       3.007  15.090  17.989  0.00  0.00    +0.000 HD
ENDBRANCH  11  16
ENDBRANCH   5  11
ENDBRANCH   1   9
BRANCH   3  23
ATOM     23  C   UNL     1       7.817   7.911  17.750  0.00  0.00    +0.000 A 
ATOM     24  C   UNL     1       8.175   6.988  18.755  0.00  0.00    +0.000 A 
ATOM     25  C   UNL     1       7.462   5.769  18.995  0.00  0.00    +0.000 A 
ATOM     26  C   UNL     1       6.375   5.426  18.212  0.00  0.00    +0.000 A 
ATOM     27  C   UNL     1       6.068   6.310  17.147  0.00  0.00    +0.000 A 
ATOM     28  C   UNL     1       6.762   7.522  16.920  0.00  0.00    +0.000 A 
BRANCH  26  29
ATOM     29  N   UNL     1       5.370   4.447  18.478  0.00  0.00    +0.000 N 
ATOM     30  H   UNL     1       5.813   3.679  17.943  0.00  0.00    +0.000 HD
BRANCH  29  31
ATOM     31  C   UNL     1       3.912   4.078  18.184  0.00  0.00    +0.000 A 
ATOM     32  C   UNL     1       3.359   5.277  17.720  0.00  0.00    +0.000 A 
ATOM     33  C   UNL     1       3.021   6.137  18.754  0.00  0.00    +0.000 A 
ATOM     34  N   UNL     1       2.922   5.724  20.048  0.00  0.00    +0.000 NA
ATOM     35  C   UNL     1       2.797   4.401  20.236  0.00  0.00    +0.000 A 
ATOM     36  C   UNL     1       2.084   3.929  21.329  0.00  0.00    +0.000 A 
ATOM     37  C   UNL     1       1.307   2.777  21.218  0.00  0.00    +0.000 A 
ATOM     38  C   UNL     1       1.264   2.109  20.001  0.00  0.00    +0.000 A 
ATOM     39  C   UNL     1       2.172   2.466  18.995  0.00  0.00    +0.000 A 
ATOM     40  C   UNL     1       3.090   3.535  19.185  0.00  0.00    +0.000 A 
ENDBRANCH  29  31
ENDBRANCH  26  29
ENDBRANCH   3  23
TORSDOF 6
ENDMDL
MODEL 8
REMARK VINA RESULT:      -9.7      6.922     10.909
REMARK  Name = 
REMARK  7 active torsions:
REMARK  status: ('A' for Active; 'I' for Inactive)
REMARK    1  A    between atoms: C_1  and  C_2
REMARK    2  A    between atoms: C_4  and  N_5
REMARK    3  A    between atoms: N_5  and  C_6
REMARK    4  A    between atoms: C_10  and  C_11
REMARK    5  A    between atoms: N_13  and  C_14
REMARK    6  A    between atoms: C_17  and  N_18
REMARK    7  A    between atoms: N_18  and  C_19
REMARK                            x       y       z     vdW  Elec       q    Type
REMARK                         _______ _______ _______ _____ _____    ______ ____
ROOT
ATOM      1  C   UNL     1       8.390   9.160  18.317  0.00  0.00    +0.000 C 
ATOM      2  O   UNL     1       7.496   9.417  17.511  0.00  0.00    +0.000 OA
ATOM      3  N   UNL     1       8.600   7.875  18.842  0.00  0.00    +0.000 N 
ATOM      4  H   UNL     1       9.367   7.744  19.489  0.00  0.00    +0.000 HD
ENDROOT
BRANCH   1   9
ATOM      5  C   UNL     1       9.971  11.813  20.615  0.00  0.00    +0.000 A 
ATOM      6  C   UNL     1      10.831  12.477  19.735  0.00  0.00    +0.000 A 
ATOM      7  C   UNL     1      10.900  12.109  18.386  0.00  0.00    +0.000 A 
ATOM      8  C   UNL     1      10.131  11.039  17.886  0.00  0.00    +0.000 A 
ATOM      9  C   UNL     1       9.273  10.330  18.739  0.00  0.00    +0.000 A 
ATOM     10  C   UNL     1       9.198  10.753  20.099  0.00  0.00    +0.000 A 
BRANCH   5  11
ATOM     11  N   UNL     1       9.949  12.232  21.963  0.00  0.00    +0.000 N 
ATOM     12  H   UNL     1      10.629  11.750  22.544  0.00  0.00    +0.000 HD
BRANCH  11  16
ATOM     13  C   UNL     1       6.150  15.220  22.854  0.00  0.00    +0.000 C 
ATOM     14  C   UNL     1       7.101  14.128  23.231  0.00  0.00    +0.000 A 
ATOM     15  C   UNL     1       8.016  13.653  22.320  0.00  0.00    +0.000 A 
ATOM     16  C   UNL     1       8.902  12.695  22.771  0.00  0.00    +0.000 A 
ATOM     17  N   UNL     1       8.858  12.228  24.035  0.00  0.00    +0.000 NA
ATOM     18  C   UNL     1       7.907  12.726  24.844  0.00  0.00    +0.000 A 
ATOM     19  N   UNL     1       7.785  12.216  26.122  0.00  0.00    +0.000 N 
ATOM     20  N   UNL     1       7.017  13.655  24.488  0.00  0.00    +0.000 NA
ATOM     21  H   UNL     1       8.137  11.270  26.150  0.00  0.00    +0.000 HD
ATOM     22  H   UNL     1       6.837  12.363  26.442  0.00  0.00    +0.000 HD
ENDBRANCH  11  16
ENDBRANCH   5  11
ENDBRANCH   1   9
BRANCH   3  23
ATOM     23  C   UNL     1       7.826   6.684  18.557  0.00  0.00    +0.000 A 
ATOM     24  C   UNL     1       7.472   5.687  19.489  0.00  0.00    +0.000 A 
ATOM     25  C   UNL     1       6.609   4.587  19.177  0.00  0.00    +0.000 A 
ATOM     26  C   UNL     1       6.092   4.440  17.902  0.00  0.00    +0.000 A 
ATOM     27  C   UNL     1       6.517   5.394  16.943  0.00  0.00    +0.000 A 
ATOM     28  C   UNL     1       7.356   6.489  17.255  0.00  0.00    +0.000 A 
BRANCH  26  29
ATOM     29  N   UNL     1       5.000   3.623  17.481  0.00  0.00    +0.000 N 
ATOM     30  H   UNL     1       4.875   4.065  16.554  0.00  0.00    +0.000 HD
BRANCH  29  31
ATOM     31  C   UNL     1       3.524   3.315  17.755  0.00  0.00    +0.000 A 
ATOM     32  C   UNL     1       2.847   4.327  17.063  0.00  0.00    +0.000 A 
ATOM     33  C   UNL     1       2.817   5.520  17.770  0.00  0.00    +0.000 A 
ATOM     34  N   UNL     1       3.104   5.593  19.099  0.00  0.00    +0.000 NA
ATOM     35  C   UNL     1       3.054   4.434  19.776  0.00  0.00    +0.000 A 
ATOM     36  C   UNL     1       2.696   4.441  21.116  0.00  0.00    +0.000 A 
ATOM     37  C   UNL     1       1.933   3.401  21.647  0.00  0.00    +0.000 A 
ATOM     38  C   UNL     1       1.543   2.361  20.813  0.00  0.00    +0.000 A 
ATOM     39  C   UNL     1       2.113   2.258  19.537  0.00  0.00    +0.000 A 
ATOM     40  C   UNL     1       3.036   3.234  19.069  0.00  0.00    +0.000 A 
ENDBRANCH  29  31
ENDBRANCH  26  29
ENDBRANCH   3  23
TORSDOF 6
ENDMDL
MODEL 9
REMARK VINA RESULT:      -9.6      2.239     12.366
REMARK  Name = 
REMARK  7 active torsions:
REMARK  status: ('A' for Active; 'I' for Inactive)
REMARK    1  A    between atoms: C_1  and  C_2
REMARK    2  A    between atoms: C_4  and  N_5
REMARK    3  A    between atoms: N_5  and  C_6
REMARK    4  A    between atoms: C_10  and  C_11
REMARK    5  A    between atoms: N_13  and  C_14
REMARK    6  A    between atoms: C_17  and  N_18
REMARK    7  A    between atoms: N_18  and  C_19
REMARK                            x       y       z     vdW  Elec       q    Type
REMARK                         _______ _______ _______ _____ _____    ______ ____
ROOT
ATOM      1  C   UNL     1       0.327  10.488  19.652  0.00  0.00    +0.000 C 
ATOM      2  O   UNL     1      -0.001  10.268  18.486  0.00  0.00    +0.000 OA
ATOM      3  N   UNL     1       1.068   9.579  20.423  0.00  0.00    +0.000 N 
ATOM      4  H   UNL     1       1.308   9.842  21.370  0.00  0.00    +0.000 HD
ENDROOT
BRANCH   1   9
ATOM      5  C   UNL     1      -2.059  13.350  20.621  0.00  0.00    +0.000 A 
ATOM      6  C   UNL     1      -1.192  14.238  21.266  0.00  0.00    +0.000 A 
ATOM      7  C   UNL     1       0.174  13.953  21.377  0.00  0.00    +0.000 A 
ATOM      8  C   UNL     1       0.707  12.750  20.873  0.00  0.00    +0.000 A 
ATOM      9  C   UNL     1      -0.130  11.820  20.241  0.00  0.00    +0.000 A 
ATOM     10  C   UNL     1      -1.510  12.156  20.110  0.00  0.00    +0.000 A 
BRANCH   5  11
ATOM     11  N   UNL     1      -3.425  13.696  20.543  0.00  0.00    +0.000 N 
ATOM     12  H   UNL     1      -3.581  14.692  20.419  0.00  0.00    +0.000 HD
BRANCH  11  16
ATOM     13  C   UNL     1      -7.545  11.022  20.354  0.00  0.00    +0.000 C 
ATOM     14  C   UNL     1      -6.544  11.876  21.068  0.00  0.00    +0.000 A 
ATOM     15  C   UNL     1      -5.394  12.283  20.432  0.00  0.00    +0.000 A 
ATOM     16  C   UNL     1      -4.559  13.126  21.138  0.00  0.00    +0.000 A 
ATOM     17  N   UNL     1      -4.842  13.512  22.399  0.00  0.00    +0.000 NA
ATOM     18  C   UNL     1      -5.972  13.035  22.950  0.00  0.00    +0.000 A 
ATOM     19  N   UNL     1      -6.255  13.350  24.265  0.00  0.00    +0.000 N 
ATOM     20  N   UNL     1      -6.833  12.221  22.336  0.00  0.00    +0.000 NA
ATOM     21  H   UNL     1      -5.400  13.543  24.765  0.00  0.00    +0.000 HD
ATOM     22  H   UNL     1      -6.858  12.634  24.649  0.00  0.00    +0.000 HD
ENDBRANCH  11  16
ENDBRANCH   5  11
ENDBRANCH   1   9
BRANCH   3  23
ATOM     23  C   UNL     1       1.541   8.274  20.008  0.00  0.00    +0.000 A 
ATOM     24  C   UNL     1       1.454   7.086  20.764  0.00  0.00    +0.000 A 
ATOM     25  C   UNL     1       1.835   5.801  20.258  0.00  0.00    +0.000 A 
ATOM     26  C   UNL     1       2.343   5.673  18.978  0.00  0.00    +0.000 A 
ATOM     27  C   UNL     1       2.512   6.877  18.250  0.00  0.00    +0.000 A 
ATOM     28  C   UNL     1       2.120   8.144  18.743  0.00  0.00    +0.000 A 
BRANCH  26  29
ATOM     29  N   UNL     1       2.481   4.485  18.198  0.00  0.00    +0.000 N 
ATOM     30  H   UNL     1       2.323   3.819  18.975  0.00  0.00    +0.000 HD
BRANCH  29  31
ATOM     31  C   UNL     1       3.496   3.642  17.419  0.00  0.00    +0.000 A 
ATOM     32  C   UNL     1       3.611   2.478  18.187  0.00  0.00    +0.000 A 
ATOM     33  C   UNL     1       4.457   2.644  19.274  0.00  0.00    +0.000 A 
ATOM     34  N   UNL     1       5.322   3.690  19.377  0.00  0.00    +0.000 NA
ATOM     35  C   UNL     1       5.594   4.343  18.236  0.00  0.00    +0.000 A 
ATOM     36  C   UNL     1       6.836   4.937  18.067  0.00  0.00    +0.000 A 
ATOM     37  C   UNL     1       7.449   4.946  16.815  0.00  0.00    +0.000 A 
ATOM     38  C   UNL     1       6.793   4.356  15.742  0.00  0.00    +0.000 A 
ATOM     39  C   UNL     1       5.450   3.981  15.885  0.00  0.00    +0.000 A 
ATOM     40  C   UNL     1       4.776   4.143  17.126  0.00  0.00    +0.000 A 
ENDBRANCH  29  31
ENDBRANCH  26  29
ENDBRANCH   3  23
TORSDOF 6
ENDMDL
