MODEL 1
REMARK VINA RESULT:      -6.8      0.000      0.000
REMARK  Name = 
REMARK  12 active torsions:
REMARK  status: ('A' for Active; 'I' for Inactive)
REMARK    1  A    between atoms: C_1  and  C_2
REMARK    2  A    between atoms: C_2  and  C_3
REMARK    3  A    between atoms: C_3  and  O_4
REMARK    4  A    between atoms: O_4  and  C_5
REMARK    5  A    between atoms: C_5  and  C_6
REMARK    6  A    between atoms: C_6  and  N_7
REMARK    7  A    between atoms: N_12  and  C_13
REMARK    8  A    between atoms: C_13  and  C_14
REMARK    9  A    between atoms: C_14  and  N_15
REMARK   10  A    between atoms: C_24  and  C_25
REMARK   11  A    between atoms: C_28  and  O_29
REMARK   12  A    between atoms: O_29  and  C_30
REMARK                            x       y       z     vdW  Elec       q    Type
REMARK                         _______ _______ _______ _____ _____    ______ ____
ROOT
ATOM      1  N   UNL     1       3.625   4.620  20.182  0.00  0.00    +0.000 N 
ATOM      2  C   UNL     1       4.589   3.660  19.840  0.00  0.00    +0.000 A 
ATOM      3  O   UNL     1       4.647   2.584  20.411  0.00  0.00    +0.000 OA
ATOM      4  N   UNL     1       5.522   3.976  18.867  0.00  0.00    +0.000 NA
ATOM      5  C   UNL     1       5.449   5.056  18.164  0.00  0.00    +0.000 A 
ATOM      6  N   UNL     1       6.430   5.333  17.220  0.00  0.00    +0.000 N 
ATOM      7  C   UNL     1       4.357   6.029  18.364  0.00  0.00    +0.000 A 
ATOM      8  N   UNL     1       4.199   7.040  17.485  0.00  0.00    +0.000 NA
ATOM      9  N   UNL     1       3.167   7.923  17.682  0.00  0.00    +0.000 NA
ATOM     10  C   UNL     1       2.410   7.839  18.804  0.00  0.00    +0.000 A 
ATOM     11  C   UNL     1       2.649   6.843  19.736  0.00  0.00    +0.000 A 
ATOM     12  C   UNL     1       3.553   5.833  19.463  0.00  0.00    +0.000 A 
ATOM     13  H   UNL     1       6.410   6.241  16.769  0.00  0.00    +0.000 HD
ENDROOT
BRANCH  10  14
ATOM     14  C   UNL     1       1.311   8.781  18.962  0.00  0.00    +0.000 A 
ATOM     15  C   UNL     1       0.593   9.313  17.874  0.00  0.00    +0.000 A 
ATOM     16  C   UNL     1      -0.473  10.199  18.082  0.00  0.00    +0.000 A 
ATOM     17  C   UNL     1      -0.786  10.533  19.386  0.00  0.00    +0.000 A 
ATOM     18  N   UNL     1      -0.158  10.013  20.456  0.00  0.00    +0.000 NA
ATOM     19  C   UNL     1       0.852   9.164  20.221  0.00  0.00    +0.000 A 
BRANCH  17  20
ATOM     20  O   UNL     1      -1.781  11.448  19.654  0.00  0.00    +0.000 OA
ATOM     21  C   UNL     1      -1.290  12.805  19.747  0.00  0.00    +0.000 C 
ENDBRANCH  17  20
ENDBRANCH  10  14
BRANCH   1  22
ATOM     22  C   UNL     1       2.570   4.248  21.144  0.00  0.00    +0.000 C 
BRANCH  22  23
ATOM     23  C   UNL     1       1.626   3.126  20.662  0.00  0.00    +0.000 C 
BRANCH  23  24
ATOM     24  O   UNL     1       0.593   3.646  19.826  0.00  0.00    +0.000 OA
BRANCH  24  25
ATOM     25  C   UNL     1       0.937   3.479  18.451  0.00  0.00    +0.000 C 
BRANCH  25  27
ATOM     26  C   UNL     1       2.764   2.322  17.201  0.00  0.00    +0.000 C 
ATOM     27  C   UNL     1       1.692   2.173  18.267  0.00  0.00    +0.000 C 
ENDBRANCH  25  27
ENDBRANCH  24  25
ENDBRANCH  23  24
ENDBRANCH  22  23
ENDBRANCH   1  22
BRANCH   6  28
ATOM     28  C   UNL     1       7.114   4.240  16.534  0.00  0.00    +0.000 C 
BRANCH  28  29
ATOM     29  C   UNL     1       6.258   3.641  15.396  0.00  0.00    +0.000 C 
BRANCH  29  30
ATOM     30  N   UNL     1       5.743   4.633  14.421  0.00  0.00    +0.000 NA
ATOM     31  C   UNL     1       5.107   3.961  13.262  0.00  0.00    +0.000 C 
ATOM     32  C   UNL     1       6.108   3.271  12.313  0.00  0.00    +0.000 C 
ATOM     33  O   UNL     1       7.151   4.159  11.884  0.00  0.00    +0.000 OA
ATOM     34  C   UNL     1       7.806   4.777  12.999  0.00  0.00    +0.000 C 
ATOM     35  C   UNL     1       6.789   5.528  13.873  0.00  0.00    +0.000 C 
ENDBRANCH  29  30
ENDBRANCH  28  29
ENDBRANCH   6  28
TORSDOF 10
ENDMDL
MODEL 2
REMARK VINA RESULT:      -6.8      3.669      7.627
REMARK  Name = 
REMARK  12 active torsions:
REMARK  status: ('A' for Active; 'I' for Inactive)
REMARK    1  A    between atoms: C_1  and  C_2
REMARK    2  A    between atoms: C_2  and  C_3
REMARK    3  A    between atoms: C_3  and  O_4
REMARK    4  A    between atoms: O_4  and  C_5
REMARK    5  A    between atoms: C_5  and  C_6
REMARK    6  A    between atoms: C_6  and  N_7
REMARK    7  A    between atoms: N_12  and  C_13
REMARK    8  A    between atoms: C_13  and  C_14
REMARK    9  A    between atoms: C_14  and  N_15
REMARK   10  A    between atoms: C_24  and  C_25
REMARK   11  A    between atoms: C_28  and  O_29
REMARK   12  A    between atoms: O_29  and  C_30
REMARK                            x       y       z     vdW  Elec       q    Type
REMARK                         _______ _______ _______ _____ _____    ______ ____
ROOT
ATOM      1  N   UNL     1       0.559  10.996  19.256  0.00  0.00    +0.000 N 
ATOM      2  C   UNL     1       1.378  10.013  18.681  0.00  0.00    +0.000 A 
ATOM      3  O   UNL     1       1.940  10.195  17.614  0.00  0.00    +0.000 OA
ATOM      4  N   UNL     1       1.500   8.794  19.325  0.00  0.00    +0.000 NA
ATOM      5  C   UNL     1       1.010   8.580  20.500  0.00  0.00    +0.000 A 
ATOM      6  N   UNL     1       1.140   7.327  21.086  0.00  0.00    +0.000 N 
ATOM      7  C   UNL     1       0.278   9.635  21.229  0.00  0.00    +0.000 A 
ATOM      8  N   UNL     1      -0.046   9.445  22.524  0.00  0.00    +0.000 NA
ATOM      9  N   UNL     1      -0.712  10.445  23.186  0.00  0.00    +0.000 NA
ATOM     10  C   UNL     1      -1.134  11.540  22.507  0.00  0.00    +0.000 A 
ATOM     11  C   UNL     1      -0.865  11.672  21.155  0.00  0.00    +0.000 A 
ATOM     12  C   UNL     1      -0.032  10.771  20.518  0.00  0.00    +0.000 A 
ATOM     13  H   UNL     1       0.644   7.156  21.953  0.00  0.00    +0.000 HD
ENDROOT
BRANCH  10  14
ATOM     14  C   UNL     1      -1.817  12.589  23.253  0.00  0.00    +0.000 A 
ATOM     15  C   UNL     1      -3.115  12.438  23.777  0.00  0.00    +0.000 A 
ATOM     16  C   UNL     1      -3.717  13.470  24.509  0.00  0.00    +0.000 A 
ATOM     17  C   UNL     1      -2.996  14.636  24.691  0.00  0.00    +0.000 A 
ATOM     18  N   UNL     1      -1.737  14.805  24.248  0.00  0.00    +0.000 NA
ATOM     19  C   UNL     1      -1.189  13.795  23.557  0.00  0.00    +0.000 A 
BRANCH  17  20
ATOM     20  O   UNL     1      -3.557  15.711  25.345  0.00  0.00    +0.000 OA
ATOM     21  C   UNL     1      -3.788  16.843  24.477  0.00  0.00    +0.000 C 
ENDBRANCH  17  20
ENDBRANCH  10  14
BRANCH   1  22
ATOM     22  C   UNL     1       0.508  12.329  18.624  0.00  0.00    +0.000 C 
BRANCH  22  23
ATOM     23  C   UNL     1      -0.827  12.656  17.921  0.00  0.00    +0.000 C 
BRANCH  23  24
ATOM     24  O   UNL     1      -1.564  11.468  17.638  0.00  0.00    +0.000 OA
BRANCH  24  25
ATOM     25  C   UNL     1      -2.906  11.592  18.108  0.00  0.00    +0.000 C 
BRANCH  25  27
ATOM     26  C   UNL     1      -5.298  11.515  17.394  0.00  0.00    +0.000 C 
ATOM     27  C   UNL     1      -3.872  11.142  17.026  0.00  0.00    +0.000 C 
ENDBRANCH  25  27
ENDBRANCH  24  25
ENDBRANCH  23  24
ENDBRANCH  22  23
ENDBRANCH   1  22
BRANCH   6  28
ATOM     28  C   UNL     1       2.302   6.496  20.783  0.00  0.00    +0.000 C 
BRANCH  28  29
ATOM     29  C   UNL     1       1.967   4.989  20.824  0.00  0.00    +0.000 C 
BRANCH  29  30
ATOM     30  N   UNL     1       2.874   4.132  20.022  0.00  0.00    +0.000 NA
ATOM     31  C   UNL     1       3.007   4.644  18.637  0.00  0.00    +0.000 C 
ATOM     32  C   UNL     1       1.747   4.439  17.772  0.00  0.00    +0.000 C 
ATOM     33  O   UNL     1       1.302   3.074  17.775  0.00  0.00    +0.000 OA
ATOM     34  C   UNL     1       1.124   2.584  19.110  0.00  0.00    +0.000 C 
ATOM     35  C   UNL     1       2.425   2.724  19.914  0.00  0.00    +0.000 C 
ENDBRANCH  29  30
ENDBRANCH  28  29
ENDBRANCH   6  28
TORSDOF 10
ENDMDL
MODEL 3
REMARK VINA RESULT:      -6.8      3.397      7.317
REMARK  Name = 
REMARK  12 active torsions:
REMARK  status: ('A' for Active; 'I' for Inactive)
REMARK    1  A    between atoms: C_1  and  C_2
REMARK    2  A    between atoms: C_2  and  C_3
REMARK    3  A    between atoms: C_3  and  O_4
REMARK    4  A    between atoms: O_4  and  C_5
REMARK    5  A    between atoms: C_5  and  C_6
REMARK    6  A    between atoms: C_6  and  N_7
REMARK    7  A    between atoms: N_12  and  C_13
REMARK    8  A    between atoms: C_13  and  C_14
REMARK    9  A    between atoms: C_14  and  N_15
REMARK   10  A    between atoms: C_24  and  C_25
REMARK   11  A    between atoms: C_28  and  O_29
REMARK   12  A    between atoms: O_29  and  C_30
REMARK                            x       y       z     vdW  Elec       q    Type
REMARK                         _______ _______ _______ _____ _____    ______ ____
ROOT
ATOM      1  N   UNL     1       0.709  10.953  19.176  0.00  0.00    +0.000 N 
ATOM      2  C   UNL     1       1.485   9.940  18.595  0.00  0.00    +0.000 A 
ATOM      3  O   UNL     1       2.027  10.092  17.513  0.00  0.00    +0.000 OA
ATOM      4  N   UNL     1       1.585   8.725  19.250  0.00  0.00    +0.000 NA
ATOM      5  C   UNL     1       1.116   8.539  20.439  0.00  0.00    +0.000 A 
ATOM      6  N   UNL     1       1.223   7.290  21.036  0.00  0.00    +0.000 N 
ATOM      7  C   UNL     1       0.434   9.624  21.171  0.00  0.00    +0.000 A 
ATOM      8  N   UNL     1       0.135   9.459  22.476  0.00  0.00    +0.000 NA
ATOM      9  N   UNL     1      -0.485  10.486  23.141  0.00  0.00    +0.000 NA
ATOM     10  C   UNL     1      -0.891  11.586  22.458  0.00  0.00    +0.000 A 
ATOM     11  C   UNL     1      -0.650  11.693  21.099  0.00  0.00    +0.000 A 
ATOM     12  C   UNL     1       0.141  10.760  20.454  0.00  0.00    +0.000 A 
ATOM     13  H   UNL     1       0.743   7.144  21.917  0.00  0.00    +0.000 HD
ENDROOT
BRANCH  10  14
ATOM     14  C   UNL     1      -1.524  12.663  23.207  0.00  0.00    +0.000 A 
ATOM     15  C   UNL     1      -0.915  13.915  23.416  0.00  0.00    +0.000 A 
ATOM     16  C   UNL     1      -1.579  14.926  24.123  0.00  0.00    +0.000 A 
ATOM     17  C   UNL     1      -2.842  14.648  24.611  0.00  0.00    +0.000 A 
ATOM     18  N   UNL     1      -3.480  13.483  24.395  0.00  0.00    +0.000 NA
ATOM     19  C   UNL     1      -2.818  12.540  23.708  0.00  0.00    +0.000 A 
BRANCH  17  20
ATOM     20  O   UNL     1      -3.520  15.577  25.370  0.00  0.00    +0.000 OA
ATOM     21  C   UNL     1      -4.421  16.395  24.590  0.00  0.00    +0.000 C 
ENDBRANCH  17  20
ENDBRANCH  10  14
BRANCH   1  22
ATOM     22  C   UNL     1       0.683  12.279  18.529  0.00  0.00    +0.000 C 
BRANCH  22  23
ATOM     23  C   UNL     1      -0.732  12.852  18.294  0.00  0.00    +0.000 C 
BRANCH  23  24
ATOM     24  O   UNL     1      -1.439  12.090  17.318  0.00  0.00    +0.000 OA
BRANCH  24  25
ATOM     25  C   UNL     1      -2.575  11.459  17.908  0.00  0.00    +0.000 C 
BRANCH  25  27
ATOM     26  C   UNL     1      -2.743   9.738  16.106  0.00  0.00    +0.000 C 
ATOM     27  C   UNL     1      -2.556   9.973  17.595  0.00  0.00    +0.000 C 
ENDBRANCH  25  27
ENDBRANCH  24  25
ENDBRANCH  23  24
ENDBRANCH  22  23
ENDBRANCH   1  22
BRANCH   6  28
ATOM     28  C   UNL     1       2.352   6.421  20.718  0.00  0.00    +0.000 C 
BRANCH  28  29
ATOM     29  C   UNL     1       1.947   5.257  19.787  0.00  0.00    +0.000 C 
BRANCH  29  30
ATOM     30  N   UNL     1       2.872   4.098  19.808  0.00  0.00    +0.000 NA
ATOM     31  C   UNL     1       3.613   3.982  18.529  0.00  0.00    +0.000 C 
ATOM     32  C   UNL     1       2.746   3.505  17.346  0.00  0.00    +0.000 C 
ATOM     33  O   UNL     1       2.041   2.290  17.643  0.00  0.00    +0.000 OA
ATOM     34  C   UNL     1       1.283   2.407  18.854  0.00  0.00    +0.000 C 
ATOM     35  C   UNL     1       2.195   2.798  20.026  0.00  0.00    +0.000 C 
ENDBRANCH  29  30
ENDBRANCH  28  29
ENDBRANCH   6  28
TORSDOF 10
ENDMDL
MODEL 4
REMARK VINA RESULT:      -6.8      3.739      7.824
REMARK  Name = 
REMARK  12 active torsions:
REMARK  status: ('A' for Active; 'I' for Inactive)
REMARK    1  A    between atoms: C_1  and  C_2
REMARK    2  A    between atoms: C_2  and  C_3
REMARK    3  A    between atoms: C_3  and  O_4
REMARK    4  A    between atoms: O_4  and  C_5
REMARK    5  A    between atoms: C_5  and  C_6
REMARK    6  A    between atoms: C_6  and  N_7
REMARK    7  A    between atoms: N_12  and  C_13
REMARK    8  A    between atoms: C_13  and  C_14
REMARK    9  A    between atoms: C_14  and  N_15
REMARK   10  A    between atoms: C_24  and  C_25
REMARK   11  A    between atoms: C_28  and  O_29
REMARK   12  A    between atoms: O_29  and  C_30
REMARK                            x       y       z     vdW  Elec       q    Type
REMARK                         _______ _______ _______ _____ _____    ______ ____
ROOT
ATOM      1  N   UNL     1       0.790  10.722  19.161  0.00  0.00    +0.000 N 
ATOM      2  C   UNL     1       1.601   9.712  18.623  0.00  0.00    +0.000 A 
ATOM      3  O   UNL     1       2.175   9.855  17.556  0.00  0.00    +0.000 OA
ATOM      4  N   UNL     1       1.704   8.511  19.304  0.00  0.00    +0.000 NA
ATOM      5  C   UNL     1       1.201   8.339  20.481  0.00  0.00    +0.000 A 
ATOM      6  N   UNL     1       1.312   7.103  21.105  0.00  0.00    +0.000 N 
ATOM      7  C   UNL     1       0.476   9.424  21.171  0.00  0.00    +0.000 A 
ATOM      8  N   UNL     1       0.140   9.277  22.469  0.00  0.00    +0.000 NA
ATOM      9  N   UNL     1      -0.519  10.305  23.095  0.00  0.00    +0.000 NA
ATOM     10  C   UNL     1      -0.923  11.384  22.380  0.00  0.00    +0.000 A 
ATOM     11  C   UNL     1      -0.641  11.471  21.027  0.00  0.00    +0.000 A 
ATOM     12  C   UNL     1       0.186  10.541  20.424  0.00  0.00    +0.000 A 
ATOM     13  H   UNL     1       0.807   6.964  21.973  0.00  0.00    +0.000 HD
ENDROOT
BRANCH  10  14
ATOM     14  C   UNL     1      -1.598  12.462  23.088  0.00  0.00    +0.000 A 
ATOM     15  C   UNL     1      -0.996  13.709  23.345  0.00  0.00    +0.000 A 
ATOM     16  C   UNL     1      -1.699  14.722  24.010  0.00  0.00    +0.000 A 
ATOM     17  C   UNL     1      -2.996  14.451  24.408  0.00  0.00    +0.000 A 
ATOM     18  N   UNL     1      -3.625  13.292  24.142  0.00  0.00    +0.000 NA
ATOM     19  C   UNL     1      -2.925  12.347  23.498  0.00  0.00    +0.000 A 
BRANCH  17  20
ATOM     20  O   UNL     1      -3.717  15.382  25.123  0.00  0.00    +0.000 OA
ATOM     21  C   UNL     1      -4.717  16.057  24.325  0.00  0.00    +0.000 C 
ENDBRANCH  17  20
ENDBRANCH  10  14
BRANCH   1  22
ATOM     22  C   UNL     1       0.760  12.035  18.489  0.00  0.00    +0.000 C 
BRANCH  22  23
ATOM     23  C   UNL     1       1.823  13.036  18.989  0.00  0.00    +0.000 C 
BRANCH  23  24
ATOM     24  O   UNL     1       2.971  13.035  18.141  0.00  0.00    +0.000 OA
BRANCH  24  25
ATOM     25  C   UNL     1       3.607  14.312  18.165  0.00  0.00    +0.000 C 
BRANCH  25  27
ATOM     26  C   UNL     1       3.013  16.659  17.553  0.00  0.00    +0.000 C 
ATOM     27  C   UNL     1       2.558  15.405  18.279  0.00  0.00    +0.000 C 
ENDBRANCH  25  27
ENDBRANCH  24  25
ENDBRANCH  23  24
ENDBRANCH  22  23
ENDBRANCH   1  22
BRANCH   6  28
ATOM     28  C   UNL     1       2.466   6.249  20.837  0.00  0.00    +0.000 C 
BRANCH  28  29
ATOM     29  C   UNL     1       2.117   4.748  20.939  0.00  0.00    +0.000 C 
BRANCH  29  30
ATOM     30  N   UNL     1       2.912   3.867  20.051  0.00  0.00    +0.000 NA
ATOM     31  C   UNL     1       3.099   4.483  18.715  0.00  0.00    +0.000 C 
ATOM     32  C   UNL     1       1.820   4.507  17.854  0.00  0.00    +0.000 C 
ATOM     33  O   UNL     1       1.216   3.210  17.742  0.00  0.00    +0.000 OA
ATOM     34  C   UNL     1       0.986   2.625  19.030  0.00  0.00    +0.000 C 
ATOM     35  C   UNL     1       2.299   2.537  19.824  0.00  0.00    +0.000 C 
ENDBRANCH  29  30
ENDBRANCH  28  29
ENDBRANCH   6  28
TORSDOF 10
ENDMDL
MODEL 5
REMARK VINA RESULT:      -6.7      3.512      7.358
REMARK  Name = 
REMARK  12 active torsions:
REMARK  status: ('A' for Active; 'I' for Inactive)
REMARK    1  A    between atoms: C_1  and  C_2
REMARK    2  A    between atoms: C_2  and  C_3
REMARK    3  A    between atoms: C_3  and  O_4
REMARK    4  A    between atoms: O_4  and  C_5
REMARK    5  A    between atoms: C_5  and  C_6
REMARK    6  A    between atoms: C_6  and  N_7
REMARK    7  A    between atoms: N_12  and  C_13
REMARK    8  A    between atoms: C_13  and  C_14
REMARK    9  A    between atoms: C_14  and  N_15
REMARK   10  A    between atoms: C_24  and  C_25
REMARK   11  A    between atoms: C_28  and  O_29
REMARK   12  A    between atoms: O_29  and  C_30
REMARK                            x       y       z     vdW  Elec       q    Type
REMARK                         _______ _______ _______ _____ _____    ______ ____
ROOT
ATOM      1  N   UNL     1       0.588  10.812  19.229  0.00  0.00    +0.000 N 
ATOM      2  C   UNL     1       1.386   9.805  18.666  0.00  0.00    +0.000 A 
ATOM      3  O   UNL     1       1.943   9.959  17.592  0.00  0.00    +0.000 OA
ATOM      4  N   UNL     1       1.493   8.596  19.330  0.00  0.00    +0.000 NA
ATOM      5  C   UNL     1       1.008   8.411  20.513  0.00  0.00    +0.000 A 
ATOM      6  N   UNL     1       1.123   7.167  21.120  0.00  0.00    +0.000 N 
ATOM      7  C   UNL     1       0.299   9.491  21.228  0.00  0.00    +0.000 A 
ATOM      8  N   UNL     1      -0.017   9.329  22.529  0.00  0.00    +0.000 NA
ATOM      9  N   UNL     1      -0.662  10.352  23.178  0.00  0.00    +0.000 NA
ATOM     10  C   UNL     1      -1.071  11.442  22.482  0.00  0.00    +0.000 A 
ATOM     11  C   UNL     1      -0.811  11.544  21.126  0.00  0.00    +0.000 A 
ATOM     12  C   UNL     1       0.003  10.618  20.499  0.00  0.00    +0.000 A 
ATOM     13  H   UNL     1       0.631   7.019  21.994  0.00  0.00    +0.000 HD
ENDROOT
BRANCH  10  14
ATOM     14  C   UNL     1      -1.731  12.514  23.214  0.00  0.00    +0.000 A 
ATOM     15  C   UNL     1      -1.136  13.770  23.439  0.00  0.00    +0.000 A 
ATOM     16  C   UNL     1      -1.824  14.777  24.129  0.00  0.00    +0.000 A 
ATOM     17  C   UNL     1      -3.098  14.490  24.584  0.00  0.00    +0.000 A 
ATOM     18  N   UNL     1      -3.722  13.321  24.352  0.00  0.00    +0.000 NA
ATOM     19  C   UNL     1      -3.037  12.383  23.682  0.00  0.00    +0.000 A 
BRANCH  17  20
ATOM     20  O   UNL     1      -3.801  15.414  25.325  0.00  0.00    +0.000 OA
ATOM     21  C   UNL     1      -3.351  16.771  25.111  0.00  0.00    +0.000 C 
ENDBRANCH  17  20
ENDBRANCH  10  14
BRANCH   1  22
ATOM     22  C   UNL     1       0.553  12.133  18.574  0.00  0.00    +0.000 C 
BRANCH  22  23
ATOM     23  C   UNL     1      -0.793  12.485  17.906  0.00  0.00    +0.000 C 
BRANCH  23  24
ATOM     24  O   UNL     1      -1.537  11.307  17.597  0.00  0.00    +0.000 OA
BRANCH  24  25
ATOM     25  C   UNL     1      -2.908  11.478  17.956  0.00  0.00    +0.000 C 
BRANCH  25  27
ATOM     26  C   UNL     1      -3.717  10.755  15.706  0.00  0.00    +0.000 C 
ATOM     27  C   UNL     1      -3.764  10.477  17.198  0.00  0.00    +0.000 C 
ENDBRANCH  25  27
ENDBRANCH  24  25
ENDBRANCH  23  24
ENDBRANCH  22  23
ENDBRANCH   1  22
BRANCH   6  28
ATOM     28  C   UNL     1       2.269   6.311  20.824  0.00  0.00    +0.000 C 
BRANCH  28  29
ATOM     29  C   UNL     1       1.854   4.842  20.591  0.00  0.00    +0.000 C 
BRANCH  29  30
ATOM     30  N   UNL     1       1.458   4.525  19.198  0.00  0.00    +0.000 NA
ATOM     31  C   UNL     1       1.091   3.095  19.059  0.00  0.00    +0.000 C 
ATOM     32  C   UNL     1       2.293   2.131  19.134  0.00  0.00    +0.000 C 
ATOM     33  O   UNL     1       3.333   2.486  18.210  0.00  0.00    +0.000 OA
ATOM     34  C   UNL     1       3.729   3.855  18.368  0.00  0.00    +0.000 C 
ATOM     35  C   UNL     1       2.521   4.789  18.200  0.00  0.00    +0.000 C 
ENDBRANCH  29  30
ENDBRANCH  28  29
ENDBRANCH   6  28
TORSDOF 10
ENDMDL
MODEL 6
REMARK VINA RESULT:      -6.7      3.371      7.668
REMARK  Name = 
REMARK  12 active torsions:
REMARK  status: ('A' for Active; 'I' for Inactive)
REMARK    1  A    between atoms: C_1  and  C_2
REMARK    2  A    between atoms: C_2  and  C_3
REMARK    3  A    between atoms: C_3  and  O_4
REMARK    4  A    between atoms: O_4  and  C_5
REMARK    5  A    between atoms: C_5  and  C_6
REMARK    6  A    between atoms: C_6  and  N_7
REMARK    7  A    between atoms: N_12  and  C_13
REMARK    8  A    between atoms: C_13  and  C_14
REMARK    9  A    between atoms: C_14  and  N_15
REMARK   10  A    between atoms: C_24  and  C_25
REMARK   11  A    between atoms: C_28  and  O_29
REMARK   12  A    between atoms: O_29  and  C_30
REMARK                            x       y       z     vdW  Elec       q    Type
REMARK                         _______ _______ _______ _____ _____    ______ ____
ROOT
ATOM      1  N   UNL     1       0.843  10.699  19.038  0.00  0.00    +0.000 N 
ATOM      2  C   UNL     1       1.684   9.730  18.473  0.00  0.00    +0.000 A 
ATOM      3  O   UNL     1       2.279   9.932  17.428  0.00  0.00    +0.000 OA
ATOM      4  N   UNL     1       1.792   8.500  19.100  0.00  0.00    +0.000 NA
ATOM      5  C   UNL     1       1.266   8.265  20.256  0.00  0.00    +0.000 A 
ATOM      6  N   UNL     1       1.384   7.003  20.824  0.00  0.00    +0.000 N 
ATOM      7  C   UNL     1       0.507   9.304  20.978  0.00  0.00    +0.000 A 
ATOM      8  N   UNL     1       0.144   9.091  22.260  0.00  0.00    +0.000 NA
ATOM      9  N   UNL     1      -0.548  10.077  22.917  0.00  0.00    +0.000 NA
ATOM     10  C   UNL     1      -0.954  11.182  22.242  0.00  0.00    +0.000 A 
ATOM     11  C   UNL     1      -0.644  11.337  20.902  0.00  0.00    +0.000 A 
ATOM     12  C   UNL     1       0.214  10.450  20.277  0.00  0.00    +0.000 A 
ATOM     13  H   UNL     1       0.862   6.815  21.673  0.00  0.00    +0.000 HD
ENDROOT
BRANCH  10  14
ATOM     14  C   UNL     1      -1.665  12.215  22.984  0.00  0.00    +0.000 A 
ATOM     15  C   UNL     1      -2.952  12.026  23.523  0.00  0.00    +0.000 A 
ATOM     16  C   UNL     1      -3.582  13.045  24.250  0.00  0.00    +0.000 A 
ATOM     17  C   UNL     1      -2.899  14.236  24.411  0.00  0.00    +0.000 A 
ATOM     18  N   UNL     1      -1.651  14.444  23.954  0.00  0.00    +0.000 NA
ATOM     19  C   UNL     1      -1.076  13.445  23.269  0.00  0.00    +0.000 A 
BRANCH  17  20
ATOM     20  O   UNL     1      -3.490  15.299  25.060  0.00  0.00    +0.000 OA
ATOM     21  C   UNL     1      -3.957  16.325  24.154  0.00  0.00    +0.000 C 
ENDBRANCH  17  20
ENDBRANCH  10  14
BRANCH   1  22
ATOM     22  C   UNL     1       0.805  12.042  18.427  0.00  0.00    +0.000 C 
BRANCH  22  23
ATOM     23  C   UNL     1       1.927  12.993  18.897  0.00  0.00    +0.000 C 
BRANCH  23  24
ATOM     24  O   UNL     1       1.407  14.035  19.720  0.00  0.00    +0.000 OA
BRANCH  24  25
ATOM     25  C   UNL     1       1.216  15.224  18.954  0.00  0.00    +0.000 C 
BRANCH  25  27
ATOM     26  C   UNL     1      -0.509  16.861  18.190  0.00  0.00    +0.000 C 
ATOM     27  C   UNL     1      -0.181  15.770  19.195  0.00  0.00    +0.000 C 
ENDBRANCH  25  27
ENDBRANCH  24  25
ENDBRANCH  23  24
ENDBRANCH  22  23
ENDBRANCH   1  22
BRANCH   6  28
ATOM     28  C   UNL     1       2.559   6.182  20.545  0.00  0.00    +0.000 C 
BRANCH  28  29
ATOM     29  C   UNL     1       2.211   4.931  19.709  0.00  0.00    +0.000 C 
BRANCH  29  30
ATOM     30  N   UNL     1       3.182   4.616  18.633  0.00  0.00    +0.000 NA
ATOM     31  C   UNL     1       2.562   3.769  17.586  0.00  0.00    +0.000 C 
ATOM     32  C   UNL     1       2.302   2.315  18.032  0.00  0.00    +0.000 C 
ATOM     33  O   UNL     1       3.479   1.692  18.568  0.00  0.00    +0.000 OA
ATOM     34  C   UNL     1       4.059   2.480  19.615  0.00  0.00    +0.000 C 
ATOM     35  C   UNL     1       4.385   3.893  19.108  0.00  0.00    +0.000 C 
ENDBRANCH  29  30
ENDBRANCH  28  29
ENDBRANCH   6  28
TORSDOF 10
ENDMDL
MODEL 7
REMARK VINA RESULT:      -6.7      3.479      7.606
REMARK  Name = 
REMARK  12 active torsions:
REMARK  status: ('A' for Active; 'I' for Inactive)
REMARK    1  A    between atoms: C_1  and  C_2
REMARK    2  A    between atoms: C_2  and  C_3
REMARK    3  A    between atoms: C_3  and  O_4
REMARK    4  A    between atoms: O_4  and  C_5
REMARK    5  A    between atoms: C_5  and  C_6
REMARK    6  A    between atoms: C_6  and  N_7
REMARK    7  A    between atoms: N_12  and  C_13
REMARK    8  A    between atoms: C_13  and  C_14
REMARK    9  A    between atoms: C_14  and  N_15
REMARK   10  A    between atoms: C_24  and  C_25
REMARK   11  A    between atoms: C_28  and  O_29
REMARK   12  A    between atoms: O_29  and  C_30
REMARK                            x       y       z     vdW  Elec       q    Type
REMARK                         _______ _______ _______ _____ _____    ______ ____
ROOT
ATOM      1  N   UNL     1       0.967  10.556  19.033  0.00  0.00    +0.000 N 
ATOM      2  C   UNL     1       1.772   9.546  18.487  0.00  0.00    +0.000 A 
ATOM      3  O   UNL     1       2.373   9.707  17.437  0.00  0.00    +0.000 OA
ATOM      4  N   UNL     1       1.836   8.326  19.137  0.00  0.00    +0.000 NA
ATOM      5  C   UNL     1       1.304   8.131  20.297  0.00  0.00    +0.000 A 
ATOM      6  N   UNL     1       1.377   6.877  20.889  0.00  0.00    +0.000 N 
ATOM      7  C   UNL     1       0.583   9.211  21.000  0.00  0.00    +0.000 A 
ATOM      8  N   UNL     1       0.214   9.036  22.285  0.00  0.00    +0.000 NA
ATOM      9  N   UNL     1      -0.441  10.058  22.924  0.00  0.00    +0.000 NA
ATOM     10  C   UNL     1      -0.808  11.164  22.229  0.00  0.00    +0.000 A 
ATOM     11  C   UNL     1      -0.494  11.282  20.886  0.00  0.00    +0.000 A 
ATOM     12  C   UNL     1       0.330  10.353  20.277  0.00  0.00    +0.000 A 
ATOM     13  H   UNL     1       0.849   6.724  21.742  0.00  0.00    +0.000 HD
ENDROOT
BRANCH  10  14
ATOM     14  C   UNL     1      -1.480  12.235  22.951  0.00  0.00    +0.000 A 
ATOM     15  C   UNL     1      -0.922  13.518  23.118  0.00  0.00    +0.000 A 
ATOM     16  C   UNL     1      -1.623  14.521  23.801  0.00  0.00    +0.000 A 
ATOM     17  C   UNL     1      -2.870  14.205  24.307  0.00  0.00    +0.000 A 
ATOM     18  N   UNL     1      -3.460  13.009  24.131  0.00  0.00    +0.000 NA
ATOM     19  C   UNL     1      -2.765  12.074  23.467  0.00  0.00    +0.000 A 
BRANCH  17  20
ATOM     20  O   UNL     1      -3.580  15.127  25.044  0.00  0.00    +0.000 OA
ATOM     21  C   UNL     1      -3.038  16.465  24.950  0.00  0.00    +0.000 C 
ENDBRANCH  17  20
ENDBRANCH  10  14
BRANCH   1  22
ATOM     22  C   UNL     1       0.977  11.887  18.397  0.00  0.00    +0.000 C 
BRANCH  22  23
ATOM     23  C   UNL     1       2.150  12.795  18.825  0.00  0.00    +0.000 C 
BRANCH  23  24
ATOM     24  O   UNL     1       1.712  13.814  19.721  0.00  0.00    +0.000 OA
BRANCH  24  25
ATOM     25  C   UNL     1       1.059  14.860  19.003  0.00  0.00    +0.000 C 
BRANCH  25  27
ATOM     26  C   UNL     1      -0.798  16.525  19.132  0.00  0.00    +0.000 C 
ATOM     27  C   UNL     1      -0.229  15.242  19.712  0.00  0.00    +0.000 C 
ENDBRANCH  25  27
ENDBRANCH  24  25
ENDBRANCH  23  24
ENDBRANCH  22  23
ENDBRANCH   1  22
BRANCH   6  28
ATOM     28  C   UNL     1       2.521   6.009  20.625  0.00  0.00    +0.000 C 
BRANCH  28  29
ATOM     29  C   UNL     1       2.100   4.539  20.412  0.00  0.00    +0.000 C 
BRANCH  29  30
ATOM     30  N   UNL     1       1.464   4.262  19.101  0.00  0.00    +0.000 NA
ATOM     31  C   UNL     1       1.100   2.830  18.977  0.00  0.00    +0.000 C 
ATOM     32  C   UNL     1       2.311   1.891  18.796  0.00  0.00    +0.000 C 
ATOM     33  O   UNL     1       3.161   2.302  17.715  0.00  0.00    +0.000 OA
ATOM     34  C   UNL     1       3.558   3.672  17.851  0.00  0.00    +0.000 C 
ATOM     35  C   UNL     1       2.325   4.585  17.940  0.00  0.00    +0.000 C 
ENDBRANCH  29  30
ENDBRANCH  28  29
ENDBRANCH   6  28
TORSDOF 10
ENDMDL
MODEL 8
REMARK VINA RESULT:      -6.7      3.712      7.914
REMARK  Name = 
REMARK  12 active torsions:
REMARK  status: ('A' for Active; 'I' for Inactive)
REMARK    1  A    between atoms: C_1  and  C_2
REMARK    2  A    between atoms: C_2  and  C_3
REMARK    3  A    between atoms: C_3  and  O_4
REMARK    4  A    between atoms: O_4  and  C_5
REMARK    5  A    between atoms: C_5  and  C_6
REMARK    6  A    between atoms: C_6  and  N_7
REMARK    7  A    between atoms: N_12  and  C_13
REMARK    8  A    between atoms: C_13  and  C_14
REMARK    9  A    between atoms: C_14  and  N_15
REMARK   10  A    between atoms: C_24  and  C_25
REMARK   11  A    between atoms: C_28  and  O_29
REMARK   12  A    between atoms: O_29  and  C_30
REMARK                            x       y       z     vdW  Elec       q    Type
REMARK                         _______ _______ _______ _____ _____    ______ ____
ROOT
ATOM      1  N   UNL     1       0.677  10.979  19.162  0.00  0.00    +0.000 N 
ATOM      2  C   UNL     1       1.494   9.994  18.589  0.00  0.00    +0.000 A 
ATOM      3  O   UNL     1       2.066  10.179  17.527  0.00  0.00    +0.000 OA
ATOM      4  N   UNL     1       1.602   8.770  19.226  0.00  0.00    +0.000 NA
ATOM      5  C   UNL     1       1.101   8.553  20.396  0.00  0.00    +0.000 A 
ATOM      6  N   UNL     1       1.218   7.295  20.974  0.00  0.00    +0.000 N 
ATOM      7  C   UNL     1       0.370   9.608  21.125  0.00  0.00    +0.000 A 
ATOM      8  N   UNL     1       0.035   9.412  22.416  0.00  0.00    +0.000 NA
ATOM      9  N   UNL     1      -0.629  10.413  23.079  0.00  0.00    +0.000 NA
ATOM     10  C   UNL     1      -1.039  11.515  22.403  0.00  0.00    +0.000 A 
ATOM     11  C   UNL     1      -0.758  11.653  21.055  0.00  0.00    +0.000 A 
ATOM     12  C   UNL     1       0.074  10.750  20.418  0.00  0.00    +0.000 A 
ATOM     13  H   UNL     1       0.714   7.122  21.837  0.00  0.00    +0.000 HD
ENDROOT
BRANCH  10  14
ATOM     14  C   UNL     1      -1.721  12.563  23.150  0.00  0.00    +0.000 A 
ATOM     15  C   UNL     1      -3.025  12.419  23.661  0.00  0.00    +0.000 A 
ATOM     16  C   UNL     1      -3.626  13.451  24.394  0.00  0.00    +0.000 A 
ATOM     17  C   UNL     1      -2.898  14.609  24.591  0.00  0.00    +0.000 A 
ATOM     18  N   UNL     1      -1.633  14.772  24.162  0.00  0.00    +0.000 NA
ATOM     19  C   UNL     1      -1.086  13.762  23.469  0.00  0.00    +0.000 A 
BRANCH  17  20
ATOM     20  O   UNL     1      -3.456  15.684  25.248  0.00  0.00    +0.000 OA
ATOM     21  C   UNL     1      -4.572  16.264  24.535  0.00  0.00    +0.000 C 
ENDBRANCH  17  20
ENDBRANCH  10  14
BRANCH   1  22
ATOM     22  C   UNL     1       0.639  12.316  18.539  0.00  0.00    +0.000 C 
BRANCH  22  23
ATOM     23  C   UNL     1       1.768  13.267  18.991  0.00  0.00    +0.000 C 
BRANCH  23  24
ATOM     24  O   UNL     1       1.515  14.605  18.565  0.00  0.00    +0.000 OA
BRANCH  24  25
ATOM     25  C   UNL     1       2.648  15.432  18.828  0.00  0.00    +0.000 C 
BRANCH  25  27
ATOM     26  C   UNL     1       4.918  14.965  17.897  0.00  0.00    +0.000 C 
ATOM     27  C   UNL     1       3.894  14.570  18.947  0.00  0.00    +0.000 C 
ENDBRANCH  25  27
ENDBRANCH  24  25
ENDBRANCH  23  24
ENDBRANCH  22  23
ENDBRANCH   1  22
BRANCH   6  28
ATOM     28  C   UNL     1       2.377   6.458  20.676  0.00  0.00    +0.000 C 
BRANCH  28  29
ATOM     29  C   UNL     1       2.071   4.955  20.853  0.00  0.00    +0.000 C 
BRANCH  29  30
ATOM     30  N   UNL     1       2.941   4.050  20.063  0.00  0.00    +0.000 NA
ATOM     31  C   UNL     1       3.100   4.541  18.673  0.00  0.00    +0.000 C 
ATOM     32  C   UNL     1       1.833   4.383  17.807  0.00  0.00    +0.000 C 
ATOM     33  O   UNL     1       1.327   3.041  17.823  0.00  0.00    +0.000 OA
ATOM     34  C   UNL     1       1.124   2.572  19.162  0.00  0.00    +0.000 C 
ATOM     35  C   UNL     1       2.429   2.663  19.968  0.00  0.00    +0.000 C 
ENDBRANCH  29  30
ENDBRANCH  28  29
ENDBRANCH   6  28
TORSDOF 10
ENDMDL
MODEL 9
REMARK VINA RESULT:      -6.7      3.764      7.719
REMARK  Name = 
REMARK  12 active torsions:
REMARK  status: ('A' for Active; 'I' for Inactive)
REMARK    1  A    between atoms: C_1  and  C_2
REMARK    2  A    between atoms: C_2  and  C_3
REMARK    3  A    between atoms: C_3  and  O_4
REMARK    4  A    between atoms: O_4  and  C_5
REMARK    5  A    between atoms: C_5  and  C_6
REMARK    6  A    between atoms: C_6  and  N_7
REMARK    7  A    between atoms: N_12  and  C_13
REMARK    8  A    between atoms: C_13  and  C_14
REMARK    9  A    between atoms: C_14  and  N_15
REMARK   10  A    between atoms: C_24  and  C_25
REMARK   11  A    between atoms: C_28  and  O_29
REMARK   12  A    between atoms: O_29  and  C_30
REMARK                            x       y       z     vdW  Elec       q    Type
REMARK                         _______ _______ _______ _____ _____    ______ ____
ROOT
ATOM      1  N   UNL     1       0.740  10.887  19.199  0.00  0.00    +0.000 N 
ATOM      2  C   UNL     1       1.558   9.891  18.644  0.00  0.00    +0.000 A 
ATOM      3  O   UNL     1       2.192  10.084  17.620  0.00  0.00    +0.000 OA
ATOM      4  N   UNL     1       1.596   8.650  19.254  0.00  0.00    +0.000 NA
ATOM      5  C   UNL     1       1.027   8.419  20.390  0.00  0.00    +0.000 A 
ATOM      6  N   UNL     1       1.076   7.145  20.942  0.00  0.00    +0.000 N 
ATOM      7  C   UNL     1       0.289   9.479  21.107  0.00  0.00    +0.000 A 
ATOM      8  N   UNL     1      -0.121   9.262  22.373  0.00  0.00    +0.000 NA
ATOM      9  N   UNL     1      -0.791  10.266  23.025  0.00  0.00    +0.000 NA
ATOM     10  C   UNL     1      -1.131  11.397  22.357  0.00  0.00    +0.000 A 
ATOM     11  C   UNL     1      -0.774  11.558  21.029  0.00  0.00    +0.000 A 
ATOM     12  C   UNL     1       0.065  10.646  20.415  0.00  0.00    +0.000 A 
ATOM     13  H   UNL     1       0.521   6.967  21.772  0.00  0.00    +0.000 HD
ENDROOT
BRANCH  10  14
ATOM     14  C   UNL     1      -1.820  12.447  23.094  0.00  0.00    +0.000 A 
ATOM     15  C   UNL     1      -3.134  12.308  23.581  0.00  0.00    +0.000 A 
ATOM     16  C   UNL     1      -3.743  13.341  24.306  0.00  0.00    +0.000 A 
ATOM     17  C   UNL     1      -3.013  14.496  24.517  0.00  0.00    +0.000 A 
ATOM     18  N   UNL     1      -1.740  14.653  24.110  0.00  0.00    +0.000 NA
ATOM     19  C   UNL     1      -1.186  13.642  23.426  0.00  0.00    +0.000 A 
BRANCH  17  20
ATOM     20  O   UNL     1      -3.578  15.573  25.166  0.00  0.00    +0.000 OA
ATOM     21  C   UNL     1      -4.626  16.208  24.399  0.00  0.00    +0.000 C 
ENDBRANCH  17  20
ENDBRANCH  10  14
BRANCH   1  22
ATOM     22  C   UNL     1       0.776  12.239  18.609  0.00  0.00    +0.000 C 
BRANCH  22  23
ATOM     23  C   UNL     1       1.913  13.140  19.137  0.00  0.00    +0.000 C 
BRANCH  23  24
ATOM     24  O   UNL     1       2.881  13.395  18.121  0.00  0.00    +0.000 OA
BRANCH  24  25
ATOM     25  C   UNL     1       3.129  14.796  18.012  0.00  0.00    +0.000 C 
BRANCH  25  27
ATOM     26  C   UNL     1       5.618  14.682  17.844  0.00  0.00    +0.000 C 
ATOM     27  C   UNL     1       4.444  15.138  18.692  0.00  0.00    +0.000 C 
ENDBRANCH  25  27
ENDBRANCH  24  25
ENDBRANCH  23  24
ENDBRANCH  22  23
ENDBRANCH   1  22
BRANCH   6  28
ATOM     28  C   UNL     1       2.224   6.281  20.684  0.00  0.00    +0.000 C 
BRANCH  28  29
ATOM     29  C   UNL     1       1.799   4.877  20.199  0.00  0.00    +0.000 C 
BRANCH  29  30
ATOM     30  N   UNL     1       2.171   4.569  18.797  0.00  0.00    +0.000 NA
ATOM     31  C   UNL     1       1.524   3.317  18.335  0.00  0.00    +0.000 C 
ATOM     32  C   UNL     1       2.112   2.040  18.969  0.00  0.00    +0.000 C 
ATOM     33  O   UNL     1       3.538   1.966  18.820  0.00  0.00    +0.000 OA
ATOM     34  C   UNL     1       4.178   3.151  19.307  0.00  0.00    +0.000 C 
ATOM     35  C   UNL     1       3.628   4.394  18.591  0.00  0.00    +0.000 C 
ENDBRANCH  29  30
ENDBRANCH  28  29
ENDBRANCH   6  28
TORSDOF 10
ENDMDL
