MODEL 1
REMARK VINA RESULT:      -8.0      0.000      0.000
REMARK  Name = 
REMARK  2 active torsions:
REMARK  status: ('A' for Active; 'I' for Inactive)
REMARK    1  A    between atoms: C_1  and  C_2
REMARK    2  A    between atoms: N_13  and  C_14
REMARK                            x       y       z     vdW  Elec       q    Type
REMARK                         _______ _______ _______ _____ _____    ______ ____
ROOT
ATOM      1  C   UNL     1       2.487   3.315  16.872  0.00  0.00    +0.000 C 
ATOM      2  C   UNL     1       3.868   3.945  17.067  0.00  0.00    +0.000 C 
ATOM      3  N   UNL     1       4.401   4.179  15.920  0.00  0.00    +0.000 NA
ATOM      4  S   UNL     1       5.813   4.906  15.758  0.00  0.00    +0.000 S 
ATOM      5  O   UNL     1       6.762   3.950  15.220  0.00  0.00    +0.000 OA
ATOM      6  O   UNL     1       5.595   6.180  15.106  0.00  0.00    +0.000 OA
ATOM      7  C   UNL     1       6.379   5.287  17.351  0.00  0.00    +0.000 A 
ATOM      8  C   UNL     1       7.576   6.014  17.468  0.00  0.00    +0.000 A 
ATOM      9  C   UNL     1       8.065   6.306  18.727  0.00  0.00    +0.000 A 
ATOM     10  C   UNL     1       7.355   5.818  19.801  0.00  0.00    +0.000 A 
ATOM     11  N   UNL     1       6.219   5.090  19.681  0.00  0.00    +0.000 NA
ATOM     12  C   UNL     1       5.667   4.866  18.455  0.00  0.00    +0.000 A 
ATOM     13  N   UNL     1       4.389   4.206  18.355  0.00  0.00    +0.000 N 
ENDROOT
BRANCH  13  14
ATOM     14  C   UNL     1       3.662   3.859  19.563  0.00  0.00    +0.000 A 
ATOM     15  C   UNL     1       2.739   4.743  20.155  0.00  0.00    +0.000 A 
ATOM     16  C   UNL     1       2.036   4.412  21.324  0.00  0.00    +0.000 A 
ATOM     17  C   UNL     1       2.161   3.146  21.884  0.00  0.00    +0.000 A 
ATOM     18  C   UNL     1       3.034   2.234  21.306  0.00  0.00    +0.000 A 
ATOM     19  C   UNL     1       3.802   2.604  20.198  0.00  0.00    +0.000 A 
ATOM     20  F   UNL     1       4.731   1.723  19.790  0.00  0.00    +0.000 F 
ENDBRANCH  13  14
TORSDOF 1
ENDMDL
MODEL 2
REMARK VINA RESULT:      -7.7      1.061      1.507
REMARK  Name = 
REMARK  2 active torsions:
REMARK  status: ('A' for Active; 'I' for Inactive)
REMARK    1  A    between atoms: C_1  and  C_2
REMARK    2  A    between atoms: N_13  and  C_14
REMARK                            x       y       z     vdW  Elec       q    Type
REMARK                         _______ _______ _______ _____ _____    ______ ____
ROOT
ATOM      1  C   UNL     1       2.538   3.296  16.775  0.00  0.00    +0.000 C 
ATOM      2  C   UNL     1       3.904   3.949  17.000  0.00  0.00    +0.000 C 
ATOM      3  N   UNL     1       4.444   4.221  15.865  0.00  0.00    +0.000 NA
ATOM      4  S   UNL     1       5.843   4.980  15.737  0.00  0.00    +0.000 S 
ATOM      5  O   UNL     1       6.817   4.057  15.187  0.00  0.00    +0.000 OA
ATOM      6  O   UNL     1       5.607   6.265  15.113  0.00  0.00    +0.000 OA
ATOM      7  C   UNL     1       6.384   5.334  17.345  0.00  0.00    +0.000 A 
ATOM      8  C   UNL     1       7.565   6.081  17.492  0.00  0.00    +0.000 A 
ATOM      9  C   UNL     1       8.034   6.352  18.764  0.00  0.00    +0.000 A 
ATOM     10  C   UNL     1       7.323   5.824  19.818  0.00  0.00    +0.000 A 
ATOM     11  N   UNL     1       6.202   5.077  19.668  0.00  0.00    +0.000 NA
ATOM     12  C   UNL     1       5.669   4.871  18.430  0.00  0.00    +0.000 A 
ATOM     13  N   UNL     1       4.405   4.189  18.300  0.00  0.00    +0.000 N 
ENDROOT
BRANCH  13  14
ATOM     14  C   UNL     1       3.672   3.799  19.491  0.00  0.00    +0.000 A 
ATOM     15  C   UNL     1       3.889   2.559  20.125  0.00  0.00    +0.000 A 
ATOM     16  C   UNL     1       3.181   2.178  21.275  0.00  0.00    +0.000 A 
ATOM     17  C   UNL     1       2.303   3.066  21.885  0.00  0.00    +0.000 A 
ATOM     18  C   UNL     1       2.092   4.312  21.311  0.00  0.00    +0.000 A 
ATOM     19  C   UNL     1       2.728   4.648  20.112  0.00  0.00    +0.000 A 
ATOM     20  F   UNL     1       2.358   5.805  19.540  0.00  0.00    +0.000 F 
ENDBRANCH  13  14
TORSDOF 1
ENDMDL
MODEL 3
REMARK VINA RESULT:      -7.5      3.493      5.413
REMARK  Name = 
REMARK  2 active torsions:
REMARK  status: ('A' for Active; 'I' for Inactive)
REMARK    1  A    between atoms: C_1  and  C_2
REMARK    2  A    between atoms: N_13  and  C_14
REMARK                            x       y       z     vdW  Elec       q    Type
REMARK                         _______ _______ _______ _____ _____    ______ ____
ROOT
ATOM      1  C   UNL     1       4.410   1.427  18.735  0.00  0.00    +0.000 C 
ATOM      2  C   UNL     1       3.611   2.660  19.163  0.00  0.00    +0.000 C 
ATOM      3  N   UNL     1       2.730   2.321  20.038  0.00  0.00    +0.000 NA
ATOM      4  S   UNL     1       1.775   3.381  20.755  0.00  0.00    +0.000 S 
ATOM      5  O   UNL     1       0.413   3.139  20.320  0.00  0.00    +0.000 OA
ATOM      6  O   UNL     1       2.107   3.412  22.164  0.00  0.00    +0.000 OA
ATOM      7  C   UNL     1       2.195   4.947  20.142  0.00  0.00    +0.000 A 
ATOM      8  C   UNL     1       1.543   6.064  20.689  0.00  0.00    +0.000 A 
ATOM      9  C   UNL     1       1.838   7.322  20.198  0.00  0.00    +0.000 A 
ATOM     10  C   UNL     1       2.735   7.391  19.156  0.00  0.00    +0.000 A 
ATOM     11  N   UNL     1       3.336   6.306  18.610  0.00  0.00    +0.000 NA
ATOM     12  C   UNL     1       3.132   5.065  19.135  0.00  0.00    +0.000 A 
ATOM     13  N   UNL     1       3.881   3.941  18.630  0.00  0.00    +0.000 N 
ENDROOT
BRANCH  13  14
ATOM     14  C   UNL     1       4.906   4.154  17.623  0.00  0.00    +0.000 A 
ATOM     15  C   UNL     1       4.656   3.944  16.253  0.00  0.00    +0.000 A 
ATOM     16  C   UNL     1       5.645   4.147  15.277  0.00  0.00    +0.000 A 
ATOM     17  C   UNL     1       6.886   4.661  15.632  0.00  0.00    +0.000 A 
ATOM     18  C   UNL     1       7.156   4.917  16.970  0.00  0.00    +0.000 A 
ATOM     19  C   UNL     1       6.200   4.622  17.946  0.00  0.00    +0.000 A 
ATOM     20  F   UNL     1       6.588   4.752  19.225  0.00  0.00    +0.000 F 
ENDBRANCH  13  14
TORSDOF 1
ENDMDL
MODEL 4
REMARK VINA RESULT:      -7.3      3.563      5.464
REMARK  Name = 
REMARK  2 active torsions:
REMARK  status: ('A' for Active; 'I' for Inactive)
REMARK    1  A    between atoms: C_1  and  C_2
REMARK    2  A    between atoms: N_13  and  C_14
REMARK                            x       y       z     vdW  Elec       q    Type
REMARK                         _______ _______ _______ _____ _____    ______ ____
ROOT
ATOM      1  C   UNL     1       4.465   1.381  18.902  0.00  0.00    +0.000 C 
ATOM      2  C   UNL     1       3.630   2.593  19.321  0.00  0.00    +0.000 C 
ATOM      3  N   UNL     1       2.719   2.224  20.151  0.00  0.00    +0.000 NA
ATOM      4  S   UNL     1       1.719   3.255  20.848  0.00  0.00    +0.000 S 
ATOM      5  O   UNL     1       0.380   3.003  20.350  0.00  0.00    +0.000 OA
ATOM      6  O   UNL     1       1.991   3.261  22.269  0.00  0.00    +0.000 OA
ATOM      7  C   UNL     1       2.141   4.839  20.284  0.00  0.00    +0.000 A 
ATOM      8  C   UNL     1       1.450   5.936  20.826  0.00  0.00    +0.000 A 
ATOM      9  C   UNL     1       1.747   7.208  20.373  0.00  0.00    +0.000 A 
ATOM     10  C   UNL     1       2.686   7.310  19.372  0.00  0.00    +0.000 A 
ATOM     11  N   UNL     1       3.326   6.245  18.830  0.00  0.00    +0.000 NA
ATOM     12  C   UNL     1       3.118   4.991  19.321  0.00  0.00    +0.000 A 
ATOM     13  N   UNL     1       3.904   3.889  18.826  0.00  0.00    +0.000 N 
ENDROOT
BRANCH  13  14
ATOM     14  C   UNL     1       4.967   4.137  17.868  0.00  0.00    +0.000 A 
ATOM     15  C   UNL     1       6.261   4.516  18.275  0.00  0.00    +0.000 A 
ATOM     16  C   UNL     1       7.290   4.758  17.351  0.00  0.00    +0.000 A 
ATOM     17  C   UNL     1       7.083   4.534  15.995  0.00  0.00    +0.000 A 
ATOM     18  C   UNL     1       5.830   4.123  15.560  0.00  0.00    +0.000 A 
ATOM     19  C   UNL     1       4.784   3.976  16.475  0.00  0.00    +0.000 A 
ATOM     20  F   UNL     1       3.568   3.727  15.962  0.00  0.00    +0.000 F 
ENDBRANCH  13  14
TORSDOF 1
ENDMDL
MODEL 5
REMARK VINA RESULT:      -6.4      2.684      3.297
REMARK  Name = 
REMARK  2 active torsions:
REMARK  status: ('A' for Active; 'I' for Inactive)
REMARK    1  A    between atoms: C_1  and  C_2
REMARK    2  A    between atoms: N_13  and  C_14
REMARK                            x       y       z     vdW  Elec       q    Type
REMARK                         _______ _______ _______ _____ _____    ______ ____
ROOT
ATOM      1  C   UNL     1       4.848   3.033  17.671  0.00  0.00    +0.000 C 
ATOM      2  C   UNL     1       4.521   4.528  17.672  0.00  0.00    +0.000 C 
ATOM      3  N   UNL     1       5.308   5.143  16.862  0.00  0.00    +0.000 NA
ATOM      4  S   UNL     1       5.188   6.707  16.563  0.00  0.00    +0.000 S 
ATOM      5  O   UNL     1       6.364   7.367  17.096  0.00  0.00    +0.000 OA
ATOM      6  O   UNL     1       4.809   6.876  15.176  0.00  0.00    +0.000 OA
ATOM      7  C   UNL     1       3.850   7.304  17.489  0.00  0.00    +0.000 A 
ATOM      8  C   UNL     1       3.488   8.652  17.328  0.00  0.00    +0.000 A 
ATOM      9  C   UNL     1       2.443   9.161  18.076  0.00  0.00    +0.000 A 
ATOM     10  C   UNL     1       1.847   8.308  18.977  0.00  0.00    +0.000 A 
ATOM     11  N   UNL     1       2.222   7.018  19.151  0.00  0.00    +0.000 NA
ATOM     12  C   UNL     1       3.188   6.466  18.363  0.00  0.00    +0.000 A 
ATOM     13  N   UNL     1       3.481   5.058  18.469  0.00  0.00    +0.000 N 
ENDROOT
BRANCH  13  14
ATOM     14  C   UNL     1       2.690   4.224  19.356  0.00  0.00    +0.000 A 
ATOM     15  C   UNL     1       3.097   3.948  20.677  0.00  0.00    +0.000 A 
ATOM     16  C   UNL     1       2.335   3.140  21.536  0.00  0.00    +0.000 A 
ATOM     17  C   UNL     1       1.094   2.663  21.134  0.00  0.00    +0.000 A 
ATOM     18  C   UNL     1       0.642   2.946  19.852  0.00  0.00    +0.000 A 
ATOM     19  C   UNL     1       1.448   3.671  18.969  0.00  0.00    +0.000 A 
ATOM     20  F   UNL     1       1.011   3.773  17.703  0.00  0.00    +0.000 F 
ENDBRANCH  13  14
TORSDOF 1
ENDMDL
MODEL 6
REMARK VINA RESULT:      -6.3      2.789      5.189
REMARK  Name = 
REMARK  2 active torsions:
REMARK  status: ('A' for Active; 'I' for Inactive)
REMARK    1  A    between atoms: C_1  and  C_2
REMARK    2  A    between atoms: N_13  and  C_14
REMARK                            x       y       z     vdW  Elec       q    Type
REMARK                         _______ _______ _______ _____ _____    ______ ____
ROOT
ATOM      1  C   UNL     1       6.284   3.645  16.034  0.00  0.00    +0.000 C 
ATOM      2  C   UNL     1       5.086   3.804  16.973  0.00  0.00    +0.000 C 
ATOM      3  N   UNL     1       4.252   2.844  16.776  0.00  0.00    +0.000 NA
ATOM      4  S   UNL     1       2.925   2.662  17.645  0.00  0.00    +0.000 S 
ATOM      5  O   UNL     1       1.780   2.895  16.786  0.00  0.00    +0.000 OA
ATOM      6  O   UNL     1       3.044   1.435  18.404  0.00  0.00    +0.000 OA
ATOM      7  C   UNL     1       2.902   3.938  18.818  0.00  0.00    +0.000 A 
ATOM      8  C   UNL     1       1.863   3.943  19.763  0.00  0.00    +0.000 A 
ATOM      9  C   UNL     1       1.805   4.965  20.693  0.00  0.00    +0.000 A 
ATOM     10  C   UNL     1       2.762   5.950  20.597  0.00  0.00    +0.000 A 
ATOM     11  N   UNL     1       3.742   5.957  19.662  0.00  0.00    +0.000 NA
ATOM     12  C   UNL     1       3.876   4.915  18.793  0.00  0.00    +0.000 A 
ATOM     13  N   UNL     1       5.003   4.873  17.894  0.00  0.00    +0.000 N 
ENDROOT
BRANCH  13  14
ATOM     14  C   UNL     1       6.028   5.897  17.978  0.00  0.00    +0.000 A 
ATOM     15  C   UNL     1       7.130   5.777  18.848  0.00  0.00    +0.000 A 
ATOM     16  C   UNL     1       8.122   6.767  18.933  0.00  0.00    +0.000 A 
ATOM     17  C   UNL     1       8.095   7.862  18.079  0.00  0.00    +0.000 A 
ATOM     18  C   UNL     1       7.045   7.996  17.180  0.00  0.00    +0.000 A 
ATOM     19  C   UNL     1       6.010   7.056  17.168  0.00  0.00    +0.000 A 
ATOM     20  F   UNL     1       4.957   7.333  16.382  0.00  0.00    +0.000 F 
ENDBRANCH  13  14
TORSDOF 1
ENDMDL
MODEL 7
REMARK VINA RESULT:      -6.2      3.446      4.393
REMARK  Name = 
REMARK  2 active torsions:
REMARK  status: ('A' for Active; 'I' for Inactive)
REMARK    1  A    between atoms: C_1  and  C_2
REMARK    2  A    between atoms: N_13  and  C_14
REMARK                            x       y       z     vdW  Elec       q    Type
REMARK                         _______ _______ _______ _____ _____    ______ ____
ROOT
ATOM      1  C   UNL     1       0.929   4.794  20.087  0.00  0.00    +0.000 C 
ATOM      2  C   UNL     1       2.318   4.755  19.446  0.00  0.00    +0.000 C 
ATOM      3  N   UNL     1       2.773   3.552  19.474  0.00  0.00    +0.000 NA
ATOM      4  S   UNL     1       4.169   3.142  18.816  0.00  0.00    +0.000 S 
ATOM      5  O   UNL     1       5.082   2.764  19.878  0.00  0.00    +0.000 OA
ATOM      6  O   UNL     1       3.904   2.244  17.713  0.00  0.00    +0.000 OA
ATOM      7  C   UNL     1       4.839   4.573  18.104  0.00  0.00    +0.000 A 
ATOM      8  C   UNL     1       6.039   4.449  17.384  0.00  0.00    +0.000 A 
ATOM      9  C   UNL     1       6.610   5.579  16.830  0.00  0.00    +0.000 A 
ATOM     10  C   UNL     1       5.976   6.778  17.064  0.00  0.00    +0.000 A 
ATOM     11  N   UNL     1       4.836   6.895  17.787  0.00  0.00    +0.000 NA
ATOM     12  C   UNL     1       4.204   5.787  18.267  0.00  0.00    +0.000 A 
ATOM     13  N   UNL     1       2.924   5.918  18.917  0.00  0.00    +0.000 N 
ENDROOT
BRANCH  13  14
ATOM     14  C   UNL     1       2.281   7.218  18.984  0.00  0.00    +0.000 A 
ATOM     15  C   UNL     1       2.020   7.979  17.827  0.00  0.00    +0.000 A 
ATOM     16  C   UNL     1       1.400   9.237  17.888  0.00  0.00    +0.000 A 
ATOM     17  C   UNL     1       0.933   9.731  19.100  0.00  0.00    +0.000 A 
ATOM     18  C   UNL     1       1.138   8.992  20.257  0.00  0.00    +0.000 A 
ATOM     19  C   UNL     1       1.841   7.785  20.202  0.00  0.00    +0.000 A 
ATOM     20  F   UNL     1       2.133   7.205  21.378  0.00  0.00    +0.000 F 
ENDBRANCH  13  14
TORSDOF 1
ENDMDL
MODEL 8
REMARK VINA RESULT:      -6.0      2.458      3.179
REMARK  Name = 
REMARK  2 active torsions:
REMARK  status: ('A' for Active; 'I' for Inactive)
REMARK    1  A    between atoms: C_1  and  C_2
REMARK    2  A    between atoms: N_13  and  C_14
REMARK                            x       y       z     vdW  Elec       q    Type
REMARK                         _______ _______ _______ _____ _____    ______ ____
ROOT
ATOM      1  C   UNL     1       2.560   7.258  19.374  0.00  0.00    +0.000 C 
ATOM      2  C   UNL     1       3.428   6.587  18.307  0.00  0.00    +0.000 C 
ATOM      3  N   UNL     1       4.029   7.488  17.612  0.00  0.00    +0.000 NA
ATOM      4  S   UNL     1       5.076   7.132  16.460  0.00  0.00    +0.000 S 
ATOM      5  O   UNL     1       4.508   7.526  15.185  0.00  0.00    +0.000 OA
ATOM      6  O   UNL     1       6.380   7.610  16.869  0.00  0.00    +0.000 OA
ATOM      7  C   UNL     1       5.208   5.404  16.404  0.00  0.00    +0.000 A 
ATOM      8  C   UNL     1       6.143   4.845  15.518  0.00  0.00    +0.000 A 
ATOM      9  C   UNL     1       6.249   3.469  15.432  0.00  0.00    +0.000 A 
ATOM     10  C   UNL     1       5.383   2.728  16.204  0.00  0.00    +0.000 A 
ATOM     11  N   UNL     1       4.461   3.274  17.034  0.00  0.00    +0.000 NA
ATOM     12  C   UNL     1       4.398   4.624  17.205  0.00  0.00    +0.000 A 
ATOM     13  N   UNL     1       3.504   5.181  18.190  0.00  0.00    +0.000 N 
ENDROOT
BRANCH  13  14
ATOM     14  C   UNL     1       2.739   4.295  19.048  0.00  0.00    +0.000 A 
ATOM     15  C   UNL     1       3.241   3.839  20.283  0.00  0.00    +0.000 A 
ATOM     16  C   UNL     1       2.504   2.981  21.114  0.00  0.00    +0.000 A 
ATOM     17  C   UNL     1       1.202   2.629  20.782  0.00  0.00    +0.000 A 
ATOM     18  C   UNL     1       0.659   3.090  19.590  0.00  0.00    +0.000 A 
ATOM     19  C   UNL     1       1.432   3.866  18.722  0.00  0.00    +0.000 A 
ATOM     20  F   UNL     1       0.892   4.145  17.524  0.00  0.00    +0.000 F 
ENDBRANCH  13  14
TORSDOF 1
ENDMDL
MODEL 9
REMARK VINA RESULT:      -6.0      3.405      4.339
REMARK  Name = 
REMARK  2 active torsions:
REMARK  status: ('A' for Active; 'I' for Inactive)
REMARK    1  A    between atoms: C_1  and  C_2
REMARK    2  A    between atoms: N_13  and  C_14
REMARK                            x       y       z     vdW  Elec       q    Type
REMARK                         _______ _______ _______ _____ _____    ______ ____
ROOT
ATOM      1  C   UNL     1       0.913   4.476  20.369  0.00  0.00    +0.000 C 
ATOM      2  C   UNL     1       2.292   4.500  19.706  0.00  0.00    +0.000 C 
ATOM      3  N   UNL     1       2.750   3.300  19.620  0.00  0.00    +0.000 NA
ATOM      4  S   UNL     1       4.137   2.956  18.908  0.00  0.00    +0.000 S 
ATOM      5  O   UNL     1       5.068   2.489  19.917  0.00  0.00    +0.000 OA
ATOM      6  O   UNL     1       3.858   2.158  17.733  0.00  0.00    +0.000 OA
ATOM      7  C   UNL     1       4.793   4.447  18.315  0.00  0.00    +0.000 A 
ATOM      8  C   UNL     1       5.981   4.392  17.568  0.00  0.00    +0.000 A 
ATOM      9  C   UNL     1       6.541   5.569  17.108  0.00  0.00    +0.000 A 
ATOM     10  C   UNL     1       5.907   6.740  17.457  0.00  0.00    +0.000 A 
ATOM     11  N   UNL     1       4.778   6.788  18.205  0.00  0.00    +0.000 NA
ATOM     12  C   UNL     1       4.156   5.639  18.594  0.00  0.00    +0.000 A 
ATOM     13  N   UNL     1       2.886   5.707  19.273  0.00  0.00    +0.000 N 
ENDROOT
BRANCH  13  14
ATOM     14  C   UNL     1       2.241   6.993  19.464  0.00  0.00    +0.000 A 
ATOM     15  C   UNL     1       1.898   7.470  20.745  0.00  0.00    +0.000 A 
ATOM     16  C   UNL     1       1.272   8.713  20.933  0.00  0.00    +0.000 A 
ATOM     17  C   UNL     1       1.057   9.561  19.854  0.00  0.00    +0.000 A 
ATOM     18  C   UNL     1       1.417   9.141  18.580  0.00  0.00    +0.000 A 
ATOM     19  C   UNL     1       1.952   7.864  18.388  0.00  0.00    +0.000 A 
ATOM     20  F   UNL     1       2.131   7.472  17.116  0.00  0.00    +0.000 F 
ENDBRANCH  13  14
TORSDOF 1
ENDMDL
