MODEL 1
REMARK VINA RESULT:      -7.6      0.000      0.000
REMARK  Name = 
REMARK  4 active torsions:
REMARK  status: ('A' for Active; 'I' for Inactive)
REMARK    1  A    between atoms: S_2  and  C_4
REMARK    2  A    between atoms: S_2  and  N_10
REMARK    3  A    between atoms: C_16  and  C_17
REMARK    4  A    between atoms: N_20  and  C_21
REMARK                            x       y       z     vdW  Elec       q    Type
REMARK                         _______ _______ _______ _____ _____    ______ ____
ROOT
ATOM      1  N   UNL     1       5.145   5.750  17.768  0.00  0.00    +0.000 NA
ATOM      2  C   UNL     1       4.061   6.393  16.987  0.00  0.00    +0.000 C 
ATOM      3  C   UNL     1       3.134   6.913  18.044  0.00  0.00    +0.000 A 
ATOM      4  C   UNL     1       2.399   8.079  18.046  0.00  0.00    +0.000 A 
ATOM      5  C   UNL     1       1.831   8.491  19.251  0.00  0.00    +0.000 A 
ATOM      6  C   UNL     1       1.844   7.640  20.366  0.00  0.00    +0.000 A 
ATOM      7  C   UNL     1       2.498   6.392  20.319  0.00  0.00    +0.000 A 
ATOM      8  C   UNL     1       3.347   6.201  19.234  0.00  0.00    +0.000 A 
ATOM      9  C   UNL     1       4.863   5.984  19.212  0.00  0.00    +0.000 C 
ENDROOT
BRANCH   7  10
ATOM     10  C   UNL     1       1.676   5.236  20.948  0.00  0.00    +0.000 C 
ATOM     11  C   UNL     1       2.407   4.073  21.615  0.00  0.00    +0.000 C 
ATOM     12  C   UNL     1       2.904   3.012  20.638  0.00  0.00    +0.000 C 
ATOM     13  N   UNL     1       1.825   2.482  19.784  0.00  0.00    +0.000 NA
ATOM     14  C   UNL     1       1.208   3.581  19.018  0.00  0.00    +0.000 C 
ATOM     15  C   UNL     1       0.639   4.667  19.945  0.00  0.00    +0.000 C 
BRANCH  13  16
ATOM     16  C   UNL     1       2.401   1.492  18.848  0.00  0.00    +0.000 C 
ATOM     17  C   UNL     1       2.666   2.161  17.471  0.00  0.00    +0.000 C 
ATOM     18  C   UNL     1       4.048   1.486  17.472  0.00  0.00    +0.000 C 
ATOM     19  C   UNL     1       3.942   1.416  19.010  0.00  0.00    +0.000 C 
ENDBRANCH  13  16
ENDBRANCH   7  10
BRANCH   1  21
ATOM     20  O   UNL     1       7.526   4.969  18.009  0.00  0.00    +0.000 OA
ATOM     21  S   UNL     1       6.708   5.827  17.167  0.00  0.00    +0.000 S 
ATOM     22  O   UNL     1       7.045   7.208  16.957  0.00  0.00    +0.000 OA
BRANCH  21  23
ATOM     23  C   UNL     1       6.602   5.029  15.576  0.00  0.00    +0.000 A 
ATOM     24  C   UNL     1       7.509   5.365  14.572  0.00  0.00    +0.000 A 
ATOM     25  C   UNL     1       7.356   4.804  13.304  0.00  0.00    +0.000 A 
ATOM     26  C   UNL     1       6.316   3.904  13.053  0.00  0.00    +0.000 A 
ATOM     27  C   UNL     1       5.454   3.520  14.080  0.00  0.00    +0.000 A 
ATOM     28  C   UNL     1       5.614   4.061  15.354  0.00  0.00    +0.000 A 
ENDBRANCH  21  23
ENDBRANCH   1  21
TORSDOF 4
ENDMDL
MODEL 2
REMARK VINA RESULT:      -7.2      9.009     11.546
REMARK  Name = 
REMARK  4 active torsions:
REMARK  status: ('A' for Active; 'I' for Inactive)
REMARK    1  A    between atoms: S_2  and  C_4
REMARK    2  A    between atoms: S_2  and  N_10
REMARK    3  A    between atoms: C_16  and  C_17
REMARK    4  A    between atoms: N_20  and  C_21
REMARK                            x       y       z     vdW  Elec       q    Type
REMARK                         _______ _______ _______ _____ _____    ______ ____
ROOT
ATOM      1  N   UNL     1      -5.377  12.049  19.929  0.00  0.00    +0.000 NA
ATOM      2  C   UNL     1      -6.387  11.992  21.015  0.00  0.00    +0.000 C 
ATOM      3  C   UNL     1      -5.867  12.972  22.022  0.00  0.00    +0.000 A 
ATOM      4  C   UNL     1      -6.578  13.834  22.830  0.00  0.00    +0.000 A 
ATOM      5  C   UNL     1      -5.876  14.849  23.480  0.00  0.00    +0.000 A 
ATOM      6  C   UNL     1      -4.474  14.860  23.465  0.00  0.00    +0.000 A 
ATOM      7  C   UNL     1      -3.748  13.901  22.730  0.00  0.00    +0.000 A 
ATOM      8  C   UNL     1      -4.491  13.155  21.820  0.00  0.00    +0.000 A 
ATOM      9  C   UNL     1      -4.379  13.092  20.294  0.00  0.00    +0.000 C 
ENDROOT
BRANCH   7  10
ATOM     10  C   UNL     1      -2.541  13.308  23.504  0.00  0.00    +0.000 C 
ATOM     11  C   UNL     1      -1.212  14.059  23.511  0.00  0.00    +0.000 C 
ATOM     12  C   UNL     1      -0.361  13.824  22.267  0.00  0.00    +0.000 C 
ATOM     13  N   UNL     1      -0.108  12.393  22.019  0.00  0.00    +0.000 NA
ATOM     14  C   UNL     1      -1.389  11.679  21.860  0.00  0.00    +0.000 C 
ATOM     15  C   UNL     1      -2.280  11.832  23.102  0.00  0.00    +0.000 C 
BRANCH  13  16
ATOM     16  C   UNL     1       0.688  12.257  20.780  0.00  0.00    +0.000 C 
ATOM     17  C   UNL     1       0.851  10.754  20.420  0.00  0.00    +0.000 C 
ATOM     18  C   UNL     1       0.494  11.121  18.970  0.00  0.00    +0.000 C 
ATOM     19  C   UNL     1      -0.221  12.368  19.528  0.00  0.00    +0.000 C 
ENDBRANCH  13  16
ENDBRANCH   7  10
BRANCH   1  21
ATOM     20  O   UNL     1      -6.108  13.206  17.817  0.00  0.00    +0.000 OA
ATOM     21  S   UNL     1      -5.904  11.868  18.348  0.00  0.00    +0.000 S 
ATOM     22  O   UNL     1      -6.955  10.888  18.329  0.00  0.00    +0.000 OA
BRANCH  21  23
ATOM     23  C   UNL     1      -4.492  11.190  17.494  0.00  0.00    +0.000 A 
ATOM     24  C   UNL     1      -4.313  11.453  16.137  0.00  0.00    +0.000 A 
ATOM     25  C   UNL     1      -3.258  10.840  15.461  0.00  0.00    +0.000 A 
ATOM     26  C   UNL     1      -2.385   9.987  16.144  0.00  0.00    +0.000 A 
ATOM     27  C   UNL     1      -2.529   9.784  17.515  0.00  0.00    +0.000 A 
ATOM     28  C   UNL     1      -3.568  10.409  18.201  0.00  0.00    +0.000 A 
ENDBRANCH  21  23
ENDBRANCH   1  21
TORSDOF 4
ENDMDL
MODEL 3
REMARK VINA RESULT:      -7.1      7.892     10.924
REMARK  Name = 
REMARK  4 active torsions:
REMARK  status: ('A' for Active; 'I' for Inactive)
REMARK    1  A    between atoms: S_2  and  C_4
REMARK    2  A    between atoms: S_2  and  N_10
REMARK    3  A    between atoms: C_16  and  C_17
REMARK    4  A    between atoms: N_20  and  C_21
REMARK                            x       y       z     vdW  Elec       q    Type
REMARK                         _______ _______ _______ _____ _____    ______ ____
ROOT
ATOM      1  N   UNL     1      -1.037  10.715  19.175  0.00  0.00    +0.000 NA
ATOM      2  C   UNL     1      -1.352   9.601  18.248  0.00  0.00    +0.000 C 
ATOM      3  C   UNL     1      -2.531  10.114  17.479  0.00  0.00    +0.000 A 
ATOM      4  C   UNL     1      -2.842   9.922  16.149  0.00  0.00    +0.000 A 
ATOM      5  C   UNL     1      -3.833  10.725  15.587  0.00  0.00    +0.000 A 
ATOM      6  C   UNL     1      -4.617  11.554  16.402  0.00  0.00    +0.000 A 
ATOM      7  C   UNL     1      -4.370  11.656  17.785  0.00  0.00    +0.000 A 
ATOM      8  C   UNL     1      -3.157  11.129  18.218  0.00  0.00    +0.000 A 
ATOM      9  C   UNL     1      -1.965  11.838  18.865  0.00  0.00    +0.000 C 
ENDROOT
BRANCH   7  10
ATOM     10  C   UNL     1      -5.656  11.607  18.652  0.00  0.00    +0.000 C 
ATOM     11  C   UNL     1      -6.996  11.995  18.031  0.00  0.00    +0.000 C 
ATOM     12  C   UNL     1      -7.244  13.500  17.984  0.00  0.00    +0.000 C 
ATOM     13  N   UNL     1      -7.122  14.132  19.310  0.00  0.00    +0.000 NA
ATOM     14  C   UNL     1      -5.774  13.890  19.859  0.00  0.00    +0.000 C 
ATOM     15  C   UNL     1      -5.475  12.388  19.980  0.00  0.00    +0.000 C 
BRANCH  13  16
ATOM     16  C   UNL     1      -7.340  15.588  19.166  0.00  0.00    +0.000 C 
ATOM     17  C   UNL     1      -6.017  16.351  19.451  0.00  0.00    +0.000 C 
ATOM     18  C   UNL     1      -6.294  17.189  18.192  0.00  0.00    +0.000 C 
ATOM     19  C   UNL     1      -7.170  16.024  17.686  0.00  0.00    +0.000 C 
ENDBRANCH  13  16
ENDBRANCH   7  10
BRANCH   1  21
ATOM     20  O   UNL     1       0.634  11.193  20.996  0.00  0.00    +0.000 OA
ATOM     21  S   UNL     1       0.571  10.998  19.556  0.00  0.00    +0.000 S 
ATOM     22  O   UNL     1       1.086  11.982  18.645  0.00  0.00    +0.000 OA
BRANCH  21  23
ATOM     23  C   UNL     1       1.379   9.445  19.216  0.00  0.00    +0.000 A 
ATOM     24  C   UNL     1       1.406   8.451  20.193  0.00  0.00    +0.000 A 
ATOM     25  C   UNL     1       2.122   7.279  19.949  0.00  0.00    +0.000 A 
ATOM     26  C   UNL     1       2.787   7.101  18.732  0.00  0.00    +0.000 A 
ATOM     27  C   UNL     1       2.697   8.068  17.732  0.00  0.00    +0.000 A 
ATOM     28  C   UNL     1       1.967   9.233  17.962  0.00  0.00    +0.000 A 
ENDBRANCH  21  23
ENDBRANCH   1  21
TORSDOF 4
ENDMDL
MODEL 4
REMARK VINA RESULT:      -7.0      8.589     12.111
REMARK  Name = 
REMARK  4 active torsions:
REMARK  status: ('A' for Active; 'I' for Inactive)
REMARK    1  A    between atoms: S_2  and  C_4
REMARK    2  A    between atoms: S_2  and  N_10
REMARK    3  A    between atoms: C_16  and  C_17
REMARK    4  A    between atoms: N_20  and  C_21
REMARK                            x       y       z     vdW  Elec       q    Type
REMARK                         _______ _______ _______ _____ _____    ______ ____
ROOT
ATOM      1  N   UNL     1      -5.532  12.132  18.585  0.00  0.00    +0.000 NA
ATOM      2  C   UNL     1      -5.461  12.259  17.108  0.00  0.00    +0.000 C 
ATOM      3  C   UNL     1      -4.227  11.487  16.753  0.00  0.00    +0.000 A 
ATOM      4  C   UNL     1      -3.996  10.694  15.650  0.00  0.00    +0.000 A 
ATOM      5  C   UNL     1      -2.885   9.851  15.672  0.00  0.00    +0.000 A 
ATOM      6  C   UNL     1      -1.935   9.961  16.697  0.00  0.00    +0.000 A 
ATOM      7  C   UNL     1      -2.120  10.862  17.765  0.00  0.00    +0.000 A 
ATOM      8  C   UNL     1      -3.398  11.398  17.882  0.00  0.00    +0.000 A 
ATOM      9  C   UNL     1      -4.416  11.246  19.017  0.00  0.00    +0.000 C 
ENDROOT
BRANCH   7  10
ATOM     10  C   UNL     1      -0.843  11.666  18.129  0.00  0.00    +0.000 C 
ATOM     11  C   UNL     1       0.475  10.926  18.341  0.00  0.00    +0.000 C 
ATOM     12  C   UNL     1       0.624  10.315  19.731  0.00  0.00    +0.000 C 
ATOM     13  N   UNL     1       0.446  11.309  20.806  0.00  0.00    +0.000 NA
ATOM     14  C   UNL     1      -0.890  11.926  20.700  0.00  0.00    +0.000 C 
ATOM     15  C   UNL     1      -1.091  12.607  19.337  0.00  0.00    +0.000 C 
BRANCH  13  16
ATOM     16  C   UNL     1       0.570  10.626  22.112  0.00  0.00    +0.000 C 
ATOM     17  C   UNL     1      -0.785  10.687  22.870  0.00  0.00    +0.000 C 
ATOM     18  C   UNL     1      -0.609   9.194  23.192  0.00  0.00    +0.000 C 
ATOM     19  C   UNL     1       0.316   9.102  21.961  0.00  0.00    +0.000 C 
ENDBRANCH  13  16
ENDBRANCH   7  10
BRANCH   1  21
ATOM     20  O   UNL     1      -7.419  10.627  19.298  0.00  0.00    +0.000 OA
ATOM     21  S   UNL     1      -7.045  12.032  19.300  0.00  0.00    +0.000 S 
ATOM     22  O   UNL     1      -7.892  13.032  18.710  0.00  0.00    +0.000 OA
BRANCH  21  23
ATOM     23  C   UNL     1      -6.753  12.481  21.001  0.00  0.00    +0.000 A 
ATOM     24  C   UNL     1      -5.608  13.201  21.340  0.00  0.00    +0.000 A 
ATOM     25  C   UNL     1      -5.345  13.463  22.684  0.00  0.00    +0.000 A 
ATOM     26  C   UNL     1      -6.228  13.022  23.673  0.00  0.00    +0.000 A 
ATOM     27  C   UNL     1      -7.405  12.363  23.323  0.00  0.00    +0.000 A 
ATOM     28  C   UNL     1      -7.685  12.116  21.981  0.00  0.00    +0.000 A 
ENDBRANCH  21  23
ENDBRANCH   1  21
TORSDOF 4
ENDMDL
MODEL 5
REMARK VINA RESULT:      -6.8      8.996     11.981
REMARK  Name = 
REMARK  4 active torsions:
REMARK  status: ('A' for Active; 'I' for Inactive)
REMARK    1  A    between atoms: S_2  and  C_4
REMARK    2  A    between atoms: S_2  and  N_10
REMARK    3  A    between atoms: C_16  and  C_17
REMARK    4  A    between atoms: N_20  and  C_21
REMARK                            x       y       z     vdW  Elec       q    Type
REMARK                         _______ _______ _______ _____ _____    ______ ____
ROOT
ATOM      1  N   UNL     1      -3.483  13.607  21.740  0.00  0.00    +0.000 NA
ATOM      2  C   UNL     1      -4.386  14.770  21.918  0.00  0.00    +0.000 C 
ATOM      3  C   UNL     1      -5.740  14.140  22.048  0.00  0.00    +0.000 A 
ATOM      4  C   UNL     1      -6.796  14.526  22.846  0.00  0.00    +0.000 A 
ATOM      5  C   UNL     1      -7.850  13.628  23.014  0.00  0.00    +0.000 A 
ATOM      6  C   UNL     1      -7.917  12.463  22.237  0.00  0.00    +0.000 A 
ATOM      7  C   UNL     1      -6.887  12.133  21.333  0.00  0.00    +0.000 A 
ATOM      8  C   UNL     1      -5.709  12.859  21.476  0.00  0.00    +0.000 A 
ATOM      9  C   UNL     1      -4.307  12.372  21.854  0.00  0.00    +0.000 C 
ENDROOT
BRANCH   7  10
ATOM     10  C   UNL     1      -7.403  11.647  19.953  0.00  0.00    +0.000 C 
ATOM     11  C   UNL     1      -6.870  10.340  19.370  0.00  0.00    +0.000 C 
ATOM     12  C   UNL     1      -5.522  10.479  18.669  0.00  0.00    +0.000 C 
ATOM     13  N   UNL     1      -5.539  11.510  17.615  0.00  0.00    +0.000 NA
ATOM     14  C   UNL     1      -5.909  12.814  18.197  0.00  0.00    +0.000 C 
ATOM     15  C   UNL     1      -7.285  12.760  18.879  0.00  0.00    +0.000 C 
BRANCH  13  16
ATOM     16  C   UNL     1      -4.189  11.603  17.017  0.00  0.00    +0.000 C 
ATOM     17  C   UNL     1      -3.191  10.736  17.833  0.00  0.00    +0.000 C 
ATOM     18  C   UNL     1      -2.661  10.188  16.498  0.00  0.00    +0.000 C 
ATOM     19  C   UNL     1      -4.022  10.563  15.877  0.00  0.00    +0.000 C 
ENDBRANCH  13  16
ENDBRANCH   7  10
BRANCH   1  21
ATOM     20  O   UNL     1      -2.117  13.828  23.843  0.00  0.00    +0.000 OA
ATOM     21  S   UNL     1      -1.946  13.689  22.405  0.00  0.00    +0.000 S 
ATOM     22  O   UNL     1      -1.174  14.637  21.650  0.00  0.00    +0.000 OA
BRANCH  21  23
ATOM     23  C   UNL     1      -1.264  12.065  22.127  0.00  0.00    +0.000 A 
ATOM     24  C   UNL     1      -1.212  11.148  23.175  0.00  0.00    +0.000 A 
ATOM     25  C   UNL     1      -0.591   9.916  22.969  0.00  0.00    +0.000 A 
ATOM     26  C   UNL     1      -0.045   9.604  21.721  0.00  0.00    +0.000 A 
ATOM     27  C   UNL     1      -0.162  10.497  20.657  0.00  0.00    +0.000 A 
ATOM     28  C   UNL     1      -0.799  11.721  20.851  0.00  0.00    +0.000 A 
ENDBRANCH  21  23
ENDBRANCH   1  21
TORSDOF 4
ENDMDL
MODEL 6
REMARK VINA RESULT:      -6.7      4.158      7.216
REMARK  Name = 
REMARK  4 active torsions:
REMARK  status: ('A' for Active; 'I' for Inactive)
REMARK    1  A    between atoms: S_2  and  C_4
REMARK    2  A    between atoms: S_2  and  N_10
REMARK    3  A    between atoms: C_16  and  C_17
REMARK    4  A    between atoms: N_20  and  C_21
REMARK                            x       y       z     vdW  Elec       q    Type
REMARK                         _______ _______ _______ _____ _____    ______ ____
ROOT
ATOM      1  N   UNL     1       2.230   7.505  18.494  0.00  0.00    +0.000 NA
ATOM      2  C   UNL     1       2.375   8.461  17.369  0.00  0.00    +0.000 C 
ATOM      3  C   UNL     1       2.033   9.781  17.990  0.00  0.00    +0.000 A 
ATOM      4  C   UNL     1       2.586  11.019  17.739  0.00  0.00    +0.000 A 
ATOM      5  C   UNL     1       2.310  12.051  18.635  0.00  0.00    +0.000 A 
ATOM      6  C   UNL     1       1.344  11.878  19.637  0.00  0.00    +0.000 A 
ATOM      7  C   UNL     1       0.694  10.640  19.813  0.00  0.00    +0.000 A 
ATOM      8  C   UNL     1       1.267   9.562  19.145  0.00  0.00    +0.000 A 
ATOM      9  C   UNL     1       1.901   8.291  19.716  0.00  0.00    +0.000 C 
ENDROOT
BRANCH   7  10
ATOM     10  C   UNL     1      -0.837  10.767  20.030  0.00  0.00    +0.000 C 
ATOM     11  C   UNL     1      -1.768   9.708  19.444  0.00  0.00    +0.000 C 
ATOM     12  C   UNL     1      -2.093   9.919  17.969  0.00  0.00    +0.000 C 
ATOM     13  N   UNL     1      -2.649  11.258  17.700  0.00  0.00    +0.000 NA
ATOM     14  C   UNL     1      -1.689  12.293  18.127  0.00  0.00    +0.000 C 
ATOM     15  C   UNL     1      -1.354  12.171  19.621  0.00  0.00    +0.000 C 
BRANCH  13  16
ATOM     16  C   UNL     1      -2.900  11.387  16.247  0.00  0.00    +0.000 C 
ATOM     17  C   UNL     1      -2.530  10.061  15.529  0.00  0.00    +0.000 C 
ATOM     18  C   UNL     1      -3.857  10.172  14.760  0.00  0.00    +0.000 C 
ATOM     19  C   UNL     1      -4.378  11.053  15.914  0.00  0.00    +0.000 C 
ENDBRANCH  13  16
ENDBRANCH   7  10
BRANCH   1  21
ATOM     20  O   UNL     1       4.190   6.443  19.663  0.00  0.00    +0.000 OA
ATOM     21  S   UNL     1       3.275   6.196  18.560  0.00  0.00    +0.000 S 
ATOM     22  O   UNL     1       3.759   5.934  17.233  0.00  0.00    +0.000 OA
BRANCH  21  23
ATOM     23  C   UNL     1       2.235   4.834  19.055  0.00  0.00    +0.000 A 
ATOM     24  C   UNL     1       1.910   4.664  20.400  0.00  0.00    +0.000 A 
ATOM     25  C   UNL     1       1.176   3.543  20.785  0.00  0.00    +0.000 A 
ATOM     26  C   UNL     1       0.758   2.613  19.828  0.00  0.00    +0.000 A 
ATOM     27  C   UNL     1       1.026   2.824  18.476  0.00  0.00    +0.000 A 
ATOM     28  C   UNL     1       1.742   3.953  18.083  0.00  0.00    +0.000 A 
ENDBRANCH  21  23
ENDBRANCH   1  21
TORSDOF 4
ENDMDL
MODEL 7
REMARK VINA RESULT:      -6.7      8.237     11.843
REMARK  Name = 
REMARK  4 active torsions:
REMARK  status: ('A' for Active; 'I' for Inactive)
REMARK    1  A    between atoms: S_2  and  C_4
REMARK    2  A    between atoms: S_2  and  N_10
REMARK    3  A    between atoms: C_16  and  C_17
REMARK    4  A    between atoms: N_20  and  C_21
REMARK                            x       y       z     vdW  Elec       q    Type
REMARK                         _______ _______ _______ _____ _____    ______ ____
ROOT
ATOM      1  N   UNL     1      -1.393  11.204  19.433  0.00  0.00    +0.000 NA
ATOM      2  C   UNL     1      -1.348   9.924  18.684  0.00  0.00    +0.000 C 
ATOM      3  C   UNL     1      -2.273  10.166  17.530  0.00  0.00    +0.000 A 
ATOM      4  C   UNL     1      -2.159   9.724  16.229  0.00  0.00    +0.000 A 
ATOM      5  C   UNL     1      -2.984  10.306  15.267  0.00  0.00    +0.000 A 
ATOM      6  C   UNL     1      -4.024  11.163  15.653  0.00  0.00    +0.000 A 
ATOM      7  C   UNL     1      -4.209  11.519  17.004  0.00  0.00    +0.000 A 
ATOM      8  C   UNL     1      -3.151  11.211  17.855  0.00  0.00    +0.000 A 
ATOM      9  C   UNL     1      -2.251  12.148  18.665  0.00  0.00    +0.000 C 
ENDROOT
BRANCH   7  10
ATOM     10  C   UNL     1      -5.689  11.467  17.465  0.00  0.00    +0.000 C 
ATOM     11  C   UNL     1      -6.547  12.728  17.380  0.00  0.00    +0.000 C 
ATOM     12  C   UNL     1      -6.354  13.687  18.551  0.00  0.00    +0.000 C 
ATOM     13  N   UNL     1      -6.575  13.036  19.855  0.00  0.00    +0.000 NA
ATOM     14  C   UNL     1      -5.645  11.902  20.012  0.00  0.00    +0.000 C 
ATOM     15  C   UNL     1      -5.820  10.868  18.890  0.00  0.00    +0.000 C 
BRANCH  13  16
ATOM     16  C   UNL     1      -6.332  14.024  20.929  0.00  0.00    +0.000 C 
ATOM     17  C   UNL     1      -5.137  13.565  21.808  0.00  0.00    +0.000 C 
ATOM     18  C   UNL     1      -4.596  15.002  21.725  0.00  0.00    +0.000 C 
ATOM     19  C   UNL     1      -5.410  15.166  20.425  0.00  0.00    +0.000 C 
ENDBRANCH  13  16
ENDBRANCH   7  10
BRANCH   1  21
ATOM     20  O   UNL     1       0.684  12.616  19.261  0.00  0.00    +0.000 OA
ATOM     21  S   UNL     1       0.008  11.727  20.192  0.00  0.00    +0.000 S 
ATOM     22  O   UNL     1       0.675  10.583  20.751  0.00  0.00    +0.000 OA
BRANCH  21  23
ATOM     23  C   UNL     1      -0.578  12.744  21.534  0.00  0.00    +0.000 A 
ATOM     24  C   UNL     1      -0.077  14.035  21.694  0.00  0.00    +0.000 A 
ATOM     25  C   UNL     1      -0.474  14.784  22.802  0.00  0.00    +0.000 A 
ATOM     26  C   UNL     1      -1.374  14.249  23.728  0.00  0.00    +0.000 A 
ATOM     27  C   UNL     1      -1.925  12.985  23.525  0.00  0.00    +0.000 A 
ATOM     28  C   UNL     1      -1.549  12.239  22.410  0.00  0.00    +0.000 A 
ENDBRANCH  21  23
ENDBRANCH   1  21
TORSDOF 4
ENDMDL
MODEL 8
REMARK VINA RESULT:      -6.7      3.176      5.839
REMARK  Name = 
REMARK  4 active torsions:
REMARK  status: ('A' for Active; 'I' for Inactive)
REMARK    1  A    between atoms: S_2  and  C_4
REMARK    2  A    between atoms: S_2  and  N_10
REMARK    3  A    between atoms: C_16  and  C_17
REMARK    4  A    between atoms: N_20  and  C_21
REMARK                            x       y       z     vdW  Elec       q    Type
REMARK                         _______ _______ _______ _____ _____    ______ ____
ROOT
ATOM      1  N   UNL     1       3.032   4.378  19.071  0.00  0.00    +0.000 NA
ATOM      2  C   UNL     1       2.149   4.846  17.974  0.00  0.00    +0.000 C 
ATOM      3  C   UNL     1       1.975   6.305  18.268  0.00  0.00    +0.000 A 
ATOM      4  C   UNL     1       1.884   7.357  17.381  0.00  0.00    +0.000 A 
ATOM      5  C   UNL     1       2.011   8.650  17.886  0.00  0.00    +0.000 A 
ATOM      6  C   UNL     1       2.030   8.870  19.271  0.00  0.00    +0.000 A 
ATOM      7  C   UNL     1       2.003   7.791  20.178  0.00  0.00    +0.000 A 
ATOM      8  C   UNL     1       2.247   6.538  19.625  0.00  0.00    +0.000 A 
ATOM      9  C   UNL     1       3.399   5.565  19.893  0.00  0.00    +0.000 C 
ENDROOT
BRANCH   7  10
ATOM     10  C   UNL     1       1.028   8.001  21.366  0.00  0.00    +0.000 C 
ATOM     11  C   UNL     1      -0.463   8.177  21.092  0.00  0.00    +0.000 C 
ATOM     12  C   UNL     1      -0.855   9.596  20.691  0.00  0.00    +0.000 C 
ATOM     13  N   UNL     1      -0.421  10.601  21.679  0.00  0.00    +0.000 NA
ATOM     14  C   UNL     1       1.044  10.541  21.843  0.00  0.00    +0.000 C 
ATOM     15  C   UNL     1       1.506   9.148  22.296  0.00  0.00    +0.000 C 
BRANCH  13  16
ATOM     16  C   UNL     1      -0.808  11.944  21.195  0.00  0.00    +0.000 C 
ATOM     17  C   UNL     1       0.460  12.746  20.795  0.00  0.00    +0.000 C 
ATOM     18  C   UNL     1      -0.275  13.160  19.509  0.00  0.00    +0.000 C 
ATOM     19  C   UNL     1      -1.153  11.903  19.683  0.00  0.00    +0.000 C 
ENDBRANCH  13  16
ENDBRANCH   7  10
BRANCH   1  21
ATOM     20  O   UNL     1       3.440   2.125  18.026  0.00  0.00    +0.000 OA
ATOM     21  S   UNL     1       4.153   3.180  18.729  0.00  0.00    +0.000 S 
ATOM     22  O   UNL     1       4.904   2.907  19.923  0.00  0.00    +0.000 OA
BRANCH  21  23
ATOM     23  C   UNL     1       5.248   3.935  17.541  0.00  0.00    +0.000 A 
ATOM     24  C   UNL     1       4.951   3.860  16.181  0.00  0.00    +0.000 A 
ATOM     25  C   UNL     1       5.863   4.371  15.258  0.00  0.00    +0.000 A 
ATOM     26  C   UNL     1       7.050   4.966  15.697  0.00  0.00    +0.000 A 
ATOM     27  C   UNL     1       7.309   5.100  17.060  0.00  0.00    +0.000 A 
ATOM     28  C   UNL     1       6.392   4.609  17.988  0.00  0.00    +0.000 A 
ENDBRANCH  21  23
ENDBRANCH   1  21
TORSDOF 4
ENDMDL
MODEL 9
REMARK VINA RESULT:      -6.7      7.927     10.963
REMARK  Name = 
REMARK  4 active torsions:
REMARK  status: ('A' for Active; 'I' for Inactive)
REMARK    1  A    between atoms: S_2  and  C_4
REMARK    2  A    between atoms: S_2  and  N_10
REMARK    3  A    between atoms: C_16  and  C_17
REMARK    4  A    between atoms: N_20  and  C_21
REMARK                            x       y       z     vdW  Elec       q    Type
REMARK                         _______ _______ _______ _____ _____    ______ ____
ROOT
ATOM      1  N   UNL     1      -1.091  10.780  19.178  0.00  0.00    +0.000 NA
ATOM      2  C   UNL     1      -1.335   9.634  18.269  0.00  0.00    +0.000 C 
ATOM      3  C   UNL     1      -2.477  10.103  17.419  0.00  0.00    +0.000 A 
ATOM      4  C   UNL     1      -2.708   9.866  16.081  0.00  0.00    +0.000 A 
ATOM      5  C   UNL     1      -3.678  10.634  15.439  0.00  0.00    +0.000 A 
ATOM      6  C   UNL     1      -4.521  11.473  16.182  0.00  0.00    +0.000 A 
ATOM      7  C   UNL     1      -4.354  11.621  17.574  0.00  0.00    +0.000 A 
ATOM      8  C   UNL     1      -3.160  11.128  18.091  0.00  0.00    +0.000 A 
ATOM      9  C   UNL     1      -2.017  11.877  18.782  0.00  0.00    +0.000 C 
ENDROOT
BRANCH   7  10
ATOM     10  C   UNL     1      -5.687  11.575  18.368  0.00  0.00    +0.000 C 
ATOM     11  C   UNL     1      -6.954  12.153  17.742  0.00  0.00    +0.000 C 
ATOM     12  C   UNL     1      -7.077  13.667  17.879  0.00  0.00    +0.000 C 
ATOM     13  N   UNL     1      -6.980  14.115  19.281  0.00  0.00    +0.000 NA
ATOM     14  C   UNL     1      -5.689  13.691  19.853  0.00  0.00    +0.000 C 
ATOM     15  C   UNL     1      -5.518  12.165  19.793  0.00  0.00    +0.000 C 
BRANCH  13  16
ATOM     16  C   UNL     1      -7.073  15.592  19.316  0.00  0.00    +0.000 C 
ATOM     17  C   UNL     1      -7.917  16.037  20.542  0.00  0.00    +0.000 C 
ATOM     18  C   UNL     1      -6.834  17.089  20.835  0.00  0.00    +0.000 C 
ATOM     19  C   UNL     1      -5.848  16.201  20.049  0.00  0.00    +0.000 C 
ENDBRANCH  13  16
ENDBRANCH   7  10
BRANCH   1  21
ATOM     20  O   UNL     1       0.482  11.243  21.088  0.00  0.00    +0.000 OA
ATOM     21  S   UNL     1       0.487  11.103  19.640  0.00  0.00    +0.000 S 
ATOM     22  O   UNL     1       1.006  12.140  18.791  0.00  0.00    +0.000 OA
BRANCH  21  23
ATOM     23  C   UNL     1       1.364   9.593  19.277  0.00  0.00    +0.000 A 
ATOM     24  C   UNL     1       1.963   9.424  18.029  0.00  0.00    +0.000 A 
ATOM     25  C   UNL     1       2.564   8.203  17.725  0.00  0.00    +0.000 A 
ATOM     26  C   UNL     1       2.577   7.170  18.668  0.00  0.00    +0.000 A 
ATOM     27  C   UNL     1       2.038   7.370  19.938  0.00  0.00    +0.000 A 
ATOM     28  C   UNL     1       1.455   8.595  20.256  0.00  0.00    +0.000 A 
ENDBRANCH  21  23
ENDBRANCH   1  21
TORSDOF 4
ENDMDL
