MODEL 1
REMARK VINA RESULT:      -7.9      0.000      0.000
REMARK  Name = 
REMARK  12 active torsions:
REMARK  status: ('A' for Active; 'I' for Inactive)
REMARK    1  A    between atoms: C_1  and  C_2
REMARK    2  A    between atoms: C_2  and  N_3
REMARK    3  A    between atoms: C_4  and  C_5
REMARK    4  A    between atoms: C_5  and  O_6
REMARK    5  A    between atoms: O_6  and  C_7
REMARK    6  A    between atoms: C_7  and  C_9
REMARK    7  A    between atoms: C_9  and  N_10
REMARK    8  A    between atoms: C_11  and  C_13
REMARK    9  A    between atoms: C_22  and  S_23
REMARK   10  A    between atoms: S_23  and  N_26
REMARK   11  A    between atoms: N_26  and  C_27
REMARK   12  A    between atoms: N_26  and  C_28
REMARK                            x       y       z     vdW  Elec       q    Type
REMARK                         _______ _______ _______ _____ _____    ______ ____
ROOT
ATOM      1  N   UNL     1       2.331   5.716  20.189  0.00  0.00    +0.000 N 
ATOM      2  C   UNL     1       3.075   5.753  19.027  0.00  0.00    +0.000 A 
ATOM      3  N   UNL     1       3.010   6.951  18.473  0.00  0.00    +0.000 NA
ATOM      4  C   UNL     1       2.190   7.693  19.274  0.00  0.00    +0.000 A 
ATOM      5  C   UNL     1       1.801   9.032  19.133  0.00  0.00    +0.000 A 
ATOM      6  C   UNL     1       0.966   9.578  20.119  0.00  0.00    +0.000 A 
ATOM      7  C   UNL     1       0.472   8.805  21.174  0.00  0.00    +0.000 A 
ATOM      8  C   UNL     1       0.853   7.466  21.315  0.00  0.00    +0.000 A 
ATOM      9  C   UNL     1       1.730   6.947  20.353  0.00  0.00    +0.000 A 
ENDROOT
BRANCH   6  10
ATOM     10  S   UNL     1       0.517  11.297  19.992  0.00  0.00    +0.000 S 
ATOM     11  O   UNL     1       0.759  11.905  21.283  0.00  0.00    +0.000 OA
ATOM     12  O   UNL     1       1.131  11.822  18.790  0.00  0.00    +0.000 OA
BRANCH  10  13
ATOM     13  N   UNL     1      -1.170  11.228  19.751  0.00  0.00    +0.000 NA
ATOM     14  C   UNL     1      -1.979  12.273  20.398  0.00  0.00    +0.000 C 
ATOM     15  C   UNL     1      -1.628  10.894  18.390  0.00  0.00    +0.000 C 
ENDBRANCH  10  13
ENDBRANCH   6  10
BRANCH   1  17
ATOM     16  C   UNL     1       1.161   3.604  20.717  0.00  0.00    +0.000 C 
ATOM     17  C   UNL     1       2.225   4.609  21.120  0.00  0.00    +0.000 C 
ENDBRANCH   1  17
BRANCH   2  18
ATOM     18  C   UNL     1       3.838   4.581  18.492  0.00  0.00    +0.000 C 
BRANCH  18  19
ATOM     19  O   UNL     1       5.044   5.070  17.896  0.00  0.00    +0.000 OA
BRANCH  19  20
ATOM     20  C   UNL     1       6.155   5.001  18.674  0.00  0.00    +0.000 C 
ATOM     21  O   UNL     1       6.193   5.215  19.882  0.00  0.00    +0.000 OA
BRANCH  20  22
ATOM     22  C   UNL     1       7.338   4.486  17.869  0.00  0.00    +0.000 C 
BRANCH  22  23
ATOM     23  N   UNL     1       6.926   4.093  16.531  0.00  0.00    +0.000 N 
ATOM     24  C   UNL     1       7.149   4.930  15.458  0.00  0.00    +0.000 C 
ATOM     25  O   UNL     1       7.710   6.014  15.561  0.00  0.00    +0.000 OA
ATOM     26  H   UNL     1       6.487   3.192  16.409  0.00  0.00    +0.000 HD
BRANCH  24  27
ATOM     27  C   UNL     1       6.704   4.450  14.123  0.00  0.00    +0.000 A 
ATOM     28  C   UNL     1       7.527   4.508  12.992  0.00  0.00    +0.000 A 
ATOM     29  C   UNL     1       7.056   4.036  11.764  0.00  0.00    +0.000 A 
ATOM     30  C   UNL     1       5.770   3.501  11.663  0.00  0.00    +0.000 A 
ATOM     31  C   UNL     1       4.953   3.428  12.790  0.00  0.00    +0.000 A 
ATOM     32  C   UNL     1       5.421   3.895  14.019  0.00  0.00    +0.000 A 
ENDBRANCH  24  27
ENDBRANCH  22  23
ENDBRANCH  20  22
ENDBRANCH  19  20
ENDBRANCH  18  19
ENDBRANCH   2  18
TORSDOF 9
ENDMDL
MODEL 2
REMARK VINA RESULT:      -7.9      1.331      1.698
REMARK  Name = 
REMARK  12 active torsions:
REMARK  status: ('A' for Active; 'I' for Inactive)
REMARK    1  A    between atoms: C_1  and  C_2
REMARK    2  A    between atoms: C_2  and  N_3
REMARK    3  A    between atoms: C_4  and  C_5
REMARK    4  A    between atoms: C_5  and  O_6
REMARK    5  A    between atoms: O_6  and  C_7
REMARK    6  A    between atoms: C_7  and  C_9
REMARK    7  A    between atoms: C_9  and  N_10
REMARK    8  A    between atoms: C_11  and  C_13
REMARK    9  A    between atoms: C_22  and  S_23
REMARK   10  A    between atoms: S_23  and  N_26
REMARK   11  A    between atoms: N_26  and  C_27
REMARK   12  A    between atoms: N_26  and  C_28
REMARK                            x       y       z     vdW  Elec       q    Type
REMARK                         _______ _______ _______ _____ _____    ______ ____
ROOT
ATOM      1  N   UNL     1       2.069   6.550  20.087  0.00  0.00    +0.000 N 
ATOM      2  C   UNL     1       2.562   6.669  18.804  0.00  0.00    +0.000 A 
ATOM      3  N   UNL     1       2.375   7.895  18.347  0.00  0.00    +0.000 NA
ATOM      4  C   UNL     1       1.727   8.572  19.341  0.00  0.00    +0.000 A 
ATOM      5  C   UNL     1       1.305   9.908  19.362  0.00  0.00    +0.000 A 
ATOM      6  C   UNL     1       0.682  10.379  20.527  0.00  0.00    +0.000 A 
ATOM      7  C   UNL     1       0.419   9.536  21.612  0.00  0.00    +0.000 A 
ATOM      8  C   UNL     1       0.833   8.200  21.592  0.00  0.00    +0.000 A 
ATOM      9  C   UNL     1       1.502   7.756  20.443  0.00  0.00    +0.000 A 
ENDROOT
BRANCH   6  10
ATOM     10  S   UNL     1       0.201  12.093  20.598  0.00  0.00    +0.000 S 
ATOM     11  O   UNL     1      -1.237  12.134  20.752  0.00  0.00    +0.000 OA
ATOM     12  O   UNL     1       1.075  12.753  21.545  0.00  0.00    +0.000 OA
BRANCH  10  13
ATOM     13  N   UNL     1       0.579  12.654  19.032  0.00  0.00    +0.000 NA
ATOM     14  C   UNL     1      -0.539  13.150  18.215  0.00  0.00    +0.000 C 
ATOM     15  C   UNL     1       1.803  13.466  18.901  0.00  0.00    +0.000 C 
ENDBRANCH  10  13
ENDBRANCH   6  10
BRANCH   1  17
ATOM     16  C   UNL     1       1.212   4.277  20.549  0.00  0.00    +0.000 C 
ATOM     17  C   UNL     1       2.164   5.389  20.953  0.00  0.00    +0.000 C 
ENDBRANCH   1  17
BRANCH   2  18
ATOM     18  C   UNL     1       3.211   5.546  18.057  0.00  0.00    +0.000 C 
BRANCH  18  19
ATOM     19  O   UNL     1       4.630   5.701  18.166  0.00  0.00    +0.000 OA
BRANCH  19  20
ATOM     20  C   UNL     1       5.292   4.665  18.744  0.00  0.00    +0.000 C 
ATOM     21  O   UNL     1       4.807   3.862  19.535  0.00  0.00    +0.000 OA
BRANCH  20  22
ATOM     22  C   UNL     1       6.697   4.547  18.174  0.00  0.00    +0.000 C 
BRANCH  22  23
ATOM     23  N   UNL     1       6.660   4.193  16.764  0.00  0.00    +0.000 N 
ATOM     24  C   UNL     1       6.905   5.146  15.799  0.00  0.00    +0.000 C 
ATOM     25  O   UNL     1       7.183   6.309  16.062  0.00  0.00    +0.000 OA
ATOM     26  H   UNL     1       6.462   3.234  16.515  0.00  0.00    +0.000 HD
BRANCH  24  27
ATOM     27  C   UNL     1       6.854   4.700  14.381  0.00  0.00    +0.000 A 
ATOM     28  C   UNL     1       5.924   3.760  13.922  0.00  0.00    +0.000 A 
ATOM     29  C   UNL     1       5.920   3.384  12.576  0.00  0.00    +0.000 A 
ATOM     30  C   UNL     1       6.838   3.946  11.687  0.00  0.00    +0.000 A 
ATOM     31  C   UNL     1       7.757   4.894  12.137  0.00  0.00    +0.000 A 
ATOM     32  C   UNL     1       7.761   5.274  13.479  0.00  0.00    +0.000 A 
ENDBRANCH  24  27
ENDBRANCH  22  23
ENDBRANCH  20  22
ENDBRANCH  19  20
ENDBRANCH  18  19
ENDBRANCH   2  18
TORSDOF 9
ENDMDL
MODEL 3
REMARK VINA RESULT:      -7.7      2.416      8.745
REMARK  Name = 
REMARK  12 active torsions:
REMARK  status: ('A' for Active; 'I' for Inactive)
REMARK    1  A    between atoms: C_1  and  C_2
REMARK    2  A    between atoms: C_2  and  N_3
REMARK    3  A    between atoms: C_4  and  C_5
REMARK    4  A    between atoms: C_5  and  O_6
REMARK    5  A    between atoms: O_6  and  C_7
REMARK    6  A    between atoms: C_7  and  C_9
REMARK    7  A    between atoms: C_9  and  N_10
REMARK    8  A    between atoms: C_11  and  C_13
REMARK    9  A    between atoms: C_22  and  S_23
REMARK   10  A    between atoms: S_23  and  N_26
REMARK   11  A    between atoms: N_26  and  C_27
REMARK   12  A    between atoms: N_26  and  C_28
REMARK                            x       y       z     vdW  Elec       q    Type
REMARK                         _______ _______ _______ _____ _____    ______ ____
ROOT
ATOM      1  N   UNL     1       2.606   5.278  20.287  0.00  0.00    +0.000 N 
ATOM      2  C   UNL     1       2.217   6.585  20.076  0.00  0.00    +0.000 A 
ATOM      3  N   UNL     1       3.004   7.165  19.187  0.00  0.00    +0.000 NA
ATOM      4  C   UNL     1       3.933   6.227  18.838  0.00  0.00    +0.000 A 
ATOM      5  C   UNL     1       4.989   6.335  17.923  0.00  0.00    +0.000 A 
ATOM      6  C   UNL     1       5.793   5.204  17.716  0.00  0.00    +0.000 A 
ATOM      7  C   UNL     1       5.605   4.024  18.443  0.00  0.00    +0.000 A 
ATOM      8  C   UNL     1       4.555   3.915  19.361  0.00  0.00    +0.000 A 
ATOM      9  C   UNL     1       3.726   5.034  19.520  0.00  0.00    +0.000 A 
ENDROOT
BRANCH   6  10
ATOM     10  S   UNL     1       7.098   5.302  16.507  0.00  0.00    +0.000 S 
ATOM     11  O   UNL     1       7.562   6.672  16.479  0.00  0.00    +0.000 OA
ATOM     12  O   UNL     1       8.011   4.207  16.761  0.00  0.00    +0.000 OA
BRANCH  10  13
ATOM     13  N   UNL     1       6.278   4.994  15.044  0.00  0.00    +0.000 NA
ATOM     14  C   UNL     1       7.101   4.885  13.829  0.00  0.00    +0.000 C 
ATOM     15  C   UNL     1       5.184   4.007  15.097  0.00  0.00    +0.000 C 
ENDBRANCH  10  13
ENDBRANCH   6  10
BRANCH   1  17
ATOM     16  C   UNL     1       1.014   3.387  20.333  0.00  0.00    +0.000 C 
ATOM     17  C   UNL     1       1.940   4.296  21.122  0.00  0.00    +0.000 C 
ENDBRANCH   1  17
BRANCH   2  18
ATOM     18  C   UNL     1       1.061   7.230  20.775  0.00  0.00    +0.000 C 
BRANCH  18  19
ATOM     19  O   UNL     1       1.154   8.645  20.575  0.00  0.00    +0.000 OA
BRANCH  19  20
ATOM     20  C   UNL     1       0.860   9.412  21.657  0.00  0.00    +0.000 C 
ATOM     21  O   UNL     1       1.009   9.078  22.829  0.00  0.00    +0.000 OA
BRANCH  20  22
ATOM     22  C   UNL     1       0.444  10.809  21.222  0.00  0.00    +0.000 C 
BRANCH  22  23
ATOM     23  N   UNL     1      -0.722  10.759  20.355  0.00  0.00    +0.000 N 
ATOM     24  C   UNL     1      -0.590  10.954  18.996  0.00  0.00    +0.000 C 
ATOM     25  O   UNL     1       0.489  11.154  18.451  0.00  0.00    +0.000 OA
ATOM     26  H   UNL     1      -1.623  10.567  20.770  0.00  0.00    +0.000 HD
BRANCH  24  27
ATOM     27  C   UNL     1      -1.830  10.880  18.179  0.00  0.00    +0.000 A 
ATOM     28  C   UNL     1      -2.968  11.641  18.471  0.00  0.00    +0.000 A 
ATOM     29  C   UNL     1      -4.103  11.533  17.663  0.00  0.00    +0.000 A 
ATOM     30  C   UNL     1      -4.104  10.673  16.562  0.00  0.00    +0.000 A 
ATOM     31  C   UNL     1      -2.967   9.925  16.260  0.00  0.00    +0.000 A 
ATOM     32  C   UNL     1      -1.830  10.032  17.063  0.00  0.00    +0.000 A 
ENDBRANCH  24  27
ENDBRANCH  22  23
ENDBRANCH  20  22
ENDBRANCH  19  20
ENDBRANCH  18  19
ENDBRANCH   2  18
TORSDOF 9
ENDMDL
MODEL 4
REMARK VINA RESULT:      -7.7      1.386      1.606
REMARK  Name = 
REMARK  12 active torsions:
REMARK  status: ('A' for Active; 'I' for Inactive)
REMARK    1  A    between atoms: C_1  and  C_2
REMARK    2  A    between atoms: C_2  and  N_3
REMARK    3  A    between atoms: C_4  and  C_5
REMARK    4  A    between atoms: C_5  and  O_6
REMARK    5  A    between atoms: O_6  and  C_7
REMARK    6  A    between atoms: C_7  and  C_9
REMARK    7  A    between atoms: C_9  and  N_10
REMARK    8  A    between atoms: C_11  and  C_13
REMARK    9  A    between atoms: C_22  and  S_23
REMARK   10  A    between atoms: S_23  and  N_26
REMARK   11  A    between atoms: N_26  and  C_27
REMARK   12  A    between atoms: N_26  and  C_28
REMARK                            x       y       z     vdW  Elec       q    Type
REMARK                         _______ _______ _______ _____ _____    ______ ____
ROOT
ATOM      1  N   UNL     1       2.209   6.486  19.945  0.00  0.00    +0.000 N 
ATOM      2  C   UNL     1       2.880   6.703  18.759  0.00  0.00    +0.000 A 
ATOM      3  N   UNL     1       2.646   7.924  18.310  0.00  0.00    +0.000 NA
ATOM      4  C   UNL     1       1.788   8.496  19.206  0.00  0.00    +0.000 A 
ATOM      5  C   UNL     1       1.238   9.785  19.195  0.00  0.00    +0.000 A 
ATOM      6  C   UNL     1       0.399  10.147  20.259  0.00  0.00    +0.000 A 
ATOM      7  C   UNL     1       0.055   9.239  21.266  0.00  0.00    +0.000 A 
ATOM      8  C   UNL     1       0.598   7.950  21.277  0.00  0.00    +0.000 A 
ATOM      9  C   UNL     1       1.477   7.618  20.237  0.00  0.00    +0.000 A 
ENDROOT
BRANCH   6  10
ATOM     10  S   UNL     1      -0.255  11.804  20.297  0.00  0.00    +0.000 S 
ATOM     11  O   UNL     1      -1.369  11.853  19.375  0.00  0.00    +0.000 OA
ATOM     12  O   UNL     1      -0.417  12.178  21.686  0.00  0.00    +0.000 OA
BRANCH  10  13
ATOM     13  N   UNL     1       1.018  12.725  19.634  0.00  0.00    +0.000 NA
ATOM     14  C   UNL     1       0.662  13.699  18.590  0.00  0.00    +0.000 C 
ATOM     15  C   UNL     1       2.030  13.229  20.581  0.00  0.00    +0.000 C 
ENDBRANCH  10  13
ENDBRANCH   6  10
BRANCH   1  17
ATOM     16  C   UNL     1       1.166   4.315  20.504  0.00  0.00    +0.000 C 
ATOM     17  C   UNL     1       2.283   5.305  20.784  0.00  0.00    +0.000 C 
ENDBRANCH   1  17
BRANCH   2  18
ATOM     18  C   UNL     1       3.745   5.677  18.095  0.00  0.00    +0.000 C 
BRANCH  18  19
ATOM     19  O   UNL     1       5.078   5.828  18.596  0.00  0.00    +0.000 OA
BRANCH  19  20
ATOM     20  C   UNL     1       5.790   4.679  18.728  0.00  0.00    +0.000 C 
ATOM     21  O   UNL     1       5.414   3.672  19.320  0.00  0.00    +0.000 OA
BRANCH  20  22
ATOM     22  C   UNL     1       7.077   4.754  17.920  0.00  0.00    +0.000 C 
BRANCH  22  23
ATOM     23  N   UNL     1       6.872   4.266  16.566  0.00  0.00    +0.000 N 
ATOM     24  C   UNL     1       6.458   5.124  15.570  0.00  0.00    +0.000 C 
ATOM     25  O   UNL     1       6.265   6.320  15.755  0.00  0.00    +0.000 OA
ATOM     26  H   UNL     1       7.051   3.290  16.375  0.00  0.00    +0.000 HD
BRANCH  24  27
ATOM     27  C   UNL     1       6.280   4.547  14.212  0.00  0.00    +0.000 A 
ATOM     28  C   UNL     1       7.294   4.567  13.247  0.00  0.00    +0.000 A 
ATOM     29  C   UNL     1       7.070   4.003  11.989  0.00  0.00    +0.000 A 
ATOM     30  C   UNL     1       5.840   3.413  11.692  0.00  0.00    +0.000 A 
ATOM     31  C   UNL     1       4.832   3.377  12.655  0.00  0.00    +0.000 A 
ATOM     32  C   UNL     1       5.053   3.937  13.913  0.00  0.00    +0.000 A 
ENDBRANCH  24  27
ENDBRANCH  22  23
ENDBRANCH  20  22
ENDBRANCH  19  20
ENDBRANCH  18  19
ENDBRANCH   2  18
TORSDOF 9
ENDMDL
MODEL 5
REMARK VINA RESULT:      -7.6      0.533      1.017
REMARK  Name = 
REMARK  12 active torsions:
REMARK  status: ('A' for Active; 'I' for Inactive)
REMARK    1  A    between atoms: C_1  and  C_2
REMARK    2  A    between atoms: C_2  and  N_3
REMARK    3  A    between atoms: C_4  and  C_5
REMARK    4  A    between atoms: C_5  and  O_6
REMARK    5  A    between atoms: O_6  and  C_7
REMARK    6  A    between atoms: C_7  and  C_9
REMARK    7  A    between atoms: C_9  and  N_10
REMARK    8  A    between atoms: C_11  and  C_13
REMARK    9  A    between atoms: C_22  and  S_23
REMARK   10  A    between atoms: S_23  and  N_26
REMARK   11  A    between atoms: N_26  and  C_27
REMARK   12  A    between atoms: N_26  and  C_28
REMARK                            x       y       z     vdW  Elec       q    Type
REMARK                         _______ _______ _______ _____ _____    ______ ____
ROOT
ATOM      1  N   UNL     1       2.488   5.497  19.623  0.00  0.00    +0.000 N 
ATOM      2  C   UNL     1       3.119   5.591  18.399  0.00  0.00    +0.000 A 
ATOM      3  N   UNL     1       3.048   6.827  17.934  0.00  0.00    +0.000 NA
ATOM      4  C   UNL     1       2.335   7.537  18.859  0.00  0.00    +0.000 A 
ATOM      5  C   UNL     1       1.986   8.893  18.845  0.00  0.00    +0.000 A 
ATOM      6  C   UNL     1       1.270   9.395  19.942  0.00  0.00    +0.000 A 
ATOM      7  C   UNL     1       0.849   8.566  20.987  0.00  0.00    +0.000 A 
ATOM      8  C   UNL     1       1.191   7.210  21.000  0.00  0.00    +0.000 A 
ATOM      9  C   UNL     1       1.952   6.732  19.925  0.00  0.00    +0.000 A 
ENDROOT
BRANCH   6  10
ATOM     10  S   UNL     1       0.876  11.132  19.974  0.00  0.00    +0.000 S 
ATOM     11  O   UNL     1       1.375  11.668  21.223  0.00  0.00    +0.000 OA
ATOM     12  O   UNL     1       1.281  11.695  18.703  0.00  0.00    +0.000 OA
BRANCH  10  13
ATOM     13  N   UNL     1      -0.828  11.130  20.045  0.00  0.00    +0.000 NA
ATOM     14  C   UNL     1      -1.449  11.870  21.155  0.00  0.00    +0.000 C 
ATOM     15  C   UNL     1      -1.541  11.291  18.765  0.00  0.00    +0.000 C 
ENDBRANCH  10  13
ENDBRANCH   6  10
BRANCH   1  17
ATOM     16  C   UNL     1       1.190   3.488  20.245  0.00  0.00    +0.000 C 
ATOM     17  C   UNL     1       2.429   4.332  20.484  0.00  0.00    +0.000 C 
ENDBRANCH   1  17
BRANCH   2  18
ATOM     18  C   UNL     1       3.782   4.436  17.716  0.00  0.00    +0.000 C 
BRANCH  18  19
ATOM     19  O   UNL     1       4.843   3.971  18.558  0.00  0.00    +0.000 OA
BRANCH  19  20
ATOM     20  C   UNL     1       5.817   4.878  18.833  0.00  0.00    +0.000 C 
ATOM     21  O   UNL     1       5.757   5.748  19.697  0.00  0.00    +0.000 OA
BRANCH  20  22
ATOM     22  C   UNL     1       7.062   4.588  18.010  0.00  0.00    +0.000 C 
BRANCH  22  23
ATOM     23  N   UNL     1       6.711   4.165  16.664  0.00  0.00    +0.000 N 
ATOM     24  C   UNL     1       6.979   4.981  15.584  0.00  0.00    +0.000 C 
ATOM     25  O   UNL     1       7.532   6.069  15.689  0.00  0.00    +0.000 OA
ATOM     26  H   UNL     1       6.280   3.260  16.541  0.00  0.00    +0.000 HD
BRANCH  24  27
ATOM     27  C   UNL     1       6.595   4.472  14.241  0.00  0.00    +0.000 A 
ATOM     28  C   UNL     1       5.356   3.869  13.992  0.00  0.00    +0.000 A 
ATOM     29  C   UNL     1       5.049   3.415  12.707  0.00  0.00    +0.000 A 
ATOM     30  C   UNL     1       5.971   3.564  11.669  0.00  0.00    +0.000 A 
ATOM     31  C   UNL     1       7.200   4.177  11.910  0.00  0.00    +0.000 A 
ATOM     32  C   UNL     1       7.509   4.635  13.191  0.00  0.00    +0.000 A 
ENDBRANCH  24  27
ENDBRANCH  22  23
ENDBRANCH  20  22
ENDBRANCH  19  20
ENDBRANCH  18  19
ENDBRANCH   2  18
TORSDOF 9
ENDMDL
MODEL 6
REMARK VINA RESULT:      -7.6      3.028      8.609
REMARK  Name = 
REMARK  12 active torsions:
REMARK  status: ('A' for Active; 'I' for Inactive)
REMARK    1  A    between atoms: C_1  and  C_2
REMARK    2  A    between atoms: C_2  and  N_3
REMARK    3  A    between atoms: C_4  and  C_5
REMARK    4  A    between atoms: C_5  and  O_6
REMARK    5  A    between atoms: O_6  and  C_7
REMARK    6  A    between atoms: C_7  and  C_9
REMARK    7  A    between atoms: C_9  and  N_10
REMARK    8  A    between atoms: C_11  and  C_13
REMARK    9  A    between atoms: C_22  and  S_23
REMARK   10  A    between atoms: S_23  and  N_26
REMARK   11  A    between atoms: N_26  and  C_27
REMARK   12  A    between atoms: N_26  and  C_28
REMARK                            x       y       z     vdW  Elec       q    Type
REMARK                         _______ _______ _______ _____ _____    ______ ____
ROOT
ATOM      1  N   UNL     1       1.907   5.218  20.099  0.00  0.00    +0.000 N 
ATOM      2  C   UNL     1       1.751   6.576  20.286  0.00  0.00    +0.000 A 
ATOM      3  N   UNL     1       2.483   7.251  19.416  0.00  0.00    +0.000 NA
ATOM      4  C   UNL     1       3.145   6.315  18.673  0.00  0.00    +0.000 A 
ATOM      5  C   UNL     1       4.041   6.507  17.614  0.00  0.00    +0.000 A 
ATOM      6  C   UNL     1       4.566   5.367  16.987  0.00  0.00    +0.000 A 
ATOM      7  C   UNL     1       4.271   4.077  17.439  0.00  0.00    +0.000 A 
ATOM      8  C   UNL     1       3.381   3.882  18.500  0.00  0.00    +0.000 A 
ATOM      9  C   UNL     1       2.821   5.026  19.084  0.00  0.00    +0.000 A 
ENDROOT
BRANCH   6  10
ATOM     10  S   UNL     1       5.655   5.592  15.595  0.00  0.00    +0.000 S 
ATOM     11  O   UNL     1       5.648   4.361  14.834  0.00  0.00    +0.000 OA
ATOM     12  O   UNL     1       5.316   6.857  14.976  0.00  0.00    +0.000 OA
BRANCH  10  13
ATOM     13  N   UNL     1       7.184   5.745  16.334  0.00  0.00    +0.000 NA
ATOM     14  C   UNL     1       7.465   7.011  17.029  0.00  0.00    +0.000 C 
ATOM     15  C   UNL     1       7.690   4.561  17.053  0.00  0.00    +0.000 C 
ENDBRANCH  10  13
ENDBRANCH   6  10
BRANCH   1  17
ATOM     16  C   UNL     1       0.664   3.095  19.857  0.00  0.00    +0.000 C 
ATOM     17  C   UNL     1       1.206   4.157  20.798  0.00  0.00    +0.000 C 
ENDBRANCH   1  17
BRANCH   2  18
ATOM     18  C   UNL     1       0.869   7.174  21.337  0.00  0.00    +0.000 C 
BRANCH  18  19
ATOM     19  O   UNL     1       0.648   8.549  21.003  0.00  0.00    +0.000 OA
BRANCH  19  20
ATOM     20  C   UNL     1       0.946   9.446  21.979  0.00  0.00    +0.000 C 
ATOM     21  O   UNL     1       1.892   9.364  22.756  0.00  0.00    +0.000 OA
BRANCH  20  22
ATOM     22  C   UNL     1       0.022  10.651  21.894  0.00  0.00    +0.000 C 
BRANCH  22  23
ATOM     23  N   UNL     1      -0.928  10.504  20.804  0.00  0.00    +0.000 N 
ATOM     24  C   UNL     1      -0.751  11.197  19.625  0.00  0.00    +0.000 C 
ATOM     25  O   UNL     1       0.202  11.940  19.423  0.00  0.00    +0.000 OA
ATOM     26  H   UNL     1      -1.709   9.876  20.928  0.00  0.00    +0.000 HD
BRANCH  24  27
ATOM     27  C   UNL     1      -1.764  10.985  18.558  0.00  0.00    +0.000 A 
ATOM     28  C   UNL     1      -2.992  11.656  18.544  0.00  0.00    +0.000 A 
ATOM     29  C   UNL     1      -3.903  11.420  17.510  0.00  0.00    +0.000 A 
ATOM     30  C   UNL     1      -3.589  10.522  16.488  0.00  0.00    +0.000 A 
ATOM     31  C   UNL     1      -2.360   9.862  16.491  0.00  0.00    +0.000 A 
ATOM     32  C   UNL     1      -1.447  10.098  17.519  0.00  0.00    +0.000 A 
ENDBRANCH  24  27
ENDBRANCH  22  23
ENDBRANCH  20  22
ENDBRANCH  19  20
ENDBRANCH  18  19
ENDBRANCH   2  18
TORSDOF 9
ENDMDL
MODEL 7
REMARK VINA RESULT:      -7.6      1.888      3.272
REMARK  Name = 
REMARK  12 active torsions:
REMARK  status: ('A' for Active; 'I' for Inactive)
REMARK    1  A    between atoms: C_1  and  C_2
REMARK    2  A    between atoms: C_2  and  N_3
REMARK    3  A    between atoms: C_4  and  C_5
REMARK    4  A    between atoms: C_5  and  O_6
REMARK    5  A    between atoms: O_6  and  C_7
REMARK    6  A    between atoms: C_7  and  C_9
REMARK    7  A    between atoms: C_9  and  N_10
REMARK    8  A    between atoms: C_11  and  C_13
REMARK    9  A    between atoms: C_22  and  S_23
REMARK   10  A    between atoms: S_23  and  N_26
REMARK   11  A    between atoms: N_26  and  C_27
REMARK   12  A    between atoms: N_26  and  C_28
REMARK                            x       y       z     vdW  Elec       q    Type
REMARK                         _______ _______ _______ _____ _____    ______ ____
ROOT
ATOM      1  N   UNL     1       2.255   7.097  19.078  0.00  0.00    +0.000 N 
ATOM      2  C   UNL     1       2.105   6.357  20.233  0.00  0.00    +0.000 A 
ATOM      3  N   UNL     1       1.504   7.073  21.168  0.00  0.00    +0.000 NA
ATOM      4  C   UNL     1       1.288   8.305  20.618  0.00  0.00    +0.000 A 
ATOM      5  C   UNL     1       0.676   9.427  21.191  0.00  0.00    +0.000 A 
ATOM      6  C   UNL     1       0.544  10.576  20.398  0.00  0.00    +0.000 A 
ATOM      7  C   UNL     1       1.066  10.639  19.102  0.00  0.00    +0.000 A 
ATOM      8  C   UNL     1       1.683   9.522  18.529  0.00  0.00    +0.000 A 
ATOM      9  C   UNL     1       1.761   8.363  19.312  0.00  0.00    +0.000 A 
ENDROOT
BRANCH   6  10
ATOM     10  S   UNL     1      -0.293  11.990  21.087  0.00  0.00    +0.000 S 
ATOM     11  O   UNL     1      -1.377  11.496  21.908  0.00  0.00    +0.000 OA
ATOM     12  O   UNL     1       0.718  12.872  21.633  0.00  0.00    +0.000 OA
BRANCH  10  13
ATOM     13  N   UNL     1      -0.972  12.733  19.710  0.00  0.00    +0.000 NA
ATOM     14  C   UNL     1      -2.331  12.317  19.331  0.00  0.00    +0.000 C 
ATOM     15  C   UNL     1      -0.743  14.182  19.562  0.00  0.00    +0.000 C 
ENDBRANCH  10  13
ENDBRANCH   6  10
BRANCH   1  17
ATOM     16  C   UNL     1       4.146   7.231  17.491  0.00  0.00    +0.000 C 
ATOM     17  C   UNL     1       2.787   6.633  17.810  0.00  0.00    +0.000 C 
ENDBRANCH   1  17
BRANCH   2  18
ATOM     18  C   UNL     1       2.569   4.941  20.378  0.00  0.00    +0.000 C 
BRANCH  18  19
ATOM     19  O   UNL     1       1.480   4.078  20.033  0.00  0.00    +0.000 OA
BRANCH  19  20
ATOM     20  C   UNL     1       1.621   3.391  18.869  0.00  0.00    +0.000 C 
ATOM     21  O   UNL     1       0.832   3.411  17.930  0.00  0.00    +0.000 OA
BRANCH  20  22
ATOM     22  C   UNL     1       2.969   2.687  18.826  0.00  0.00    +0.000 C 
BRANCH  22  23
ATOM     23  N   UNL     1       3.743   3.114  17.671  0.00  0.00    +0.000 N 
ATOM     24  C   UNL     1       4.976   3.709  17.839  0.00  0.00    +0.000 C 
ATOM     25  O   UNL     1       5.488   3.888  18.936  0.00  0.00    +0.000 OA
ATOM     26  H   UNL     1       3.360   2.953  16.750  0.00  0.00    +0.000 HD
BRANCH  24  27
ATOM     27  C   UNL     1       5.705   4.108  16.606  0.00  0.00    +0.000 A 
ATOM     28  C   UNL     1       6.999   4.643  16.639  0.00  0.00    +0.000 A 
ATOM     29  C   UNL     1       7.637   4.995  15.447  0.00  0.00    +0.000 A 
ATOM     30  C   UNL     1       6.991   4.810  14.223  0.00  0.00    +0.000 A 
ATOM     31  C   UNL     1       5.709   4.264  14.185  0.00  0.00    +0.000 A 
ATOM     32  C   UNL     1       5.070   3.908  15.373  0.00  0.00    +0.000 A 
ENDBRANCH  24  27
ENDBRANCH  22  23
ENDBRANCH  20  22
ENDBRANCH  19  20
ENDBRANCH  18  19
ENDBRANCH   2  18
TORSDOF 9
ENDMDL
MODEL 8
REMARK VINA RESULT:      -7.6      1.415      1.968
REMARK  Name = 
REMARK  12 active torsions:
REMARK  status: ('A' for Active; 'I' for Inactive)
REMARK    1  A    between atoms: C_1  and  C_2
REMARK    2  A    between atoms: C_2  and  N_3
REMARK    3  A    between atoms: C_4  and  C_5
REMARK    4  A    between atoms: C_5  and  O_6
REMARK    5  A    between atoms: O_6  and  C_7
REMARK    6  A    between atoms: C_7  and  C_9
REMARK    7  A    between atoms: C_9  and  N_10
REMARK    8  A    between atoms: C_11  and  C_13
REMARK    9  A    between atoms: C_22  and  S_23
REMARK   10  A    between atoms: S_23  and  N_26
REMARK   11  A    between atoms: N_26  and  C_27
REMARK   12  A    between atoms: N_26  and  C_28
REMARK                            x       y       z     vdW  Elec       q    Type
REMARK                         _______ _______ _______ _____ _____    ______ ____
ROOT
ATOM      1  N   UNL     1       2.148   6.657  19.961  0.00  0.00    +0.000 N 
ATOM      2  C   UNL     1       2.645   6.846  18.688  0.00  0.00    +0.000 A 
ATOM      3  N   UNL     1       2.401   8.077  18.273  0.00  0.00    +0.000 NA
ATOM      4  C   UNL     1       1.712   8.686  19.283  0.00  0.00    +0.000 A 
ATOM      5  C   UNL     1       1.224   9.997  19.347  0.00  0.00    +0.000 A 
ATOM      6  C   UNL     1       0.569  10.395  20.522  0.00  0.00    +0.000 A 
ATOM      7  C   UNL     1       0.339   9.502  21.574  0.00  0.00    +0.000 A 
ATOM      8  C   UNL     1       0.820   8.190  21.510  0.00  0.00    +0.000 A 
ATOM      9  C   UNL     1       1.519   7.820  20.354  0.00  0.00    +0.000 A 
ENDROOT
BRANCH   6  10
ATOM     10  S   UNL     1       0.002  12.079  20.648  0.00  0.00    +0.000 S 
ATOM     11  O   UNL     1       0.022  12.440  22.049  0.00  0.00    +0.000 OA
ATOM     12  O   UNL     1       0.724  12.858  19.664  0.00  0.00    +0.000 OA
BRANCH  10  13
ATOM     13  N   UNL     1      -1.627  11.965  20.157  0.00  0.00    +0.000 NA
ATOM     14  C   UNL     1      -2.609  12.755  20.917  0.00  0.00    +0.000 C 
ATOM     15  C   UNL     1      -1.879  11.963  18.704  0.00  0.00    +0.000 C 
ENDBRANCH  10  13
ENDBRANCH   6  10
BRANCH   1  17
ATOM     16  C   UNL     1       1.139   4.500  20.625  0.00  0.00    +0.000 C 
ATOM     17  C   UNL     1       2.294   5.473  20.786  0.00  0.00    +0.000 C 
ENDBRANCH   1  17
BRANCH   2  18
ATOM     18  C   UNL     1       3.355   5.784  17.908  0.00  0.00    +0.000 C 
BRANCH  18  19
ATOM     19  O   UNL     1       2.389   4.807  17.505  0.00  0.00    +0.000 OA
BRANCH  19  20
ATOM     20  C   UNL     1       2.833   3.523  17.464  0.00  0.00    +0.000 C 
ATOM     21  O   UNL     1       2.124   2.528  17.352  0.00  0.00    +0.000 OA
BRANCH  20  22
ATOM     22  C   UNL     1       4.353   3.486  17.440  0.00  0.00    +0.000 C 
BRANCH  22  23
ATOM     23  N   UNL     1       4.855   3.564  16.078  0.00  0.00    +0.000 N 
ATOM     24  C   UNL     1       6.007   4.267  15.798  0.00  0.00    +0.000 C 
ATOM     25  O   UNL     1       6.670   4.834  16.658  0.00  0.00    +0.000 OA
ATOM     26  H   UNL     1       4.346   3.082  15.350  0.00  0.00    +0.000 HD
BRANCH  24  27
ATOM     27  C   UNL     1       6.457   4.292  14.381  0.00  0.00    +0.000 A 
ATOM     28  C   UNL     1       5.909   3.450  13.405  0.00  0.00    +0.000 A 
ATOM     29  C   UNL     1       6.368   3.523  12.087  0.00  0.00    +0.000 A 
ATOM     30  C   UNL     1       7.366   4.435  11.739  0.00  0.00    +0.000 A 
ATOM     31  C   UNL     1       7.903   5.285  12.705  0.00  0.00    +0.000 A 
ATOM     32  C   UNL     1       7.445   5.218  14.021  0.00  0.00    +0.000 A 
ENDBRANCH  24  27
ENDBRANCH  22  23
ENDBRANCH  20  22
ENDBRANCH  19  20
ENDBRANCH  18  19
ENDBRANCH   2  18
TORSDOF 9
ENDMDL
MODEL 9
REMARK VINA RESULT:      -7.6      2.419      8.807
REMARK  Name = 
REMARK  12 active torsions:
REMARK  status: ('A' for Active; 'I' for Inactive)
REMARK    1  A    between atoms: C_1  and  C_2
REMARK    2  A    between atoms: C_2  and  N_3
REMARK    3  A    between atoms: C_4  and  C_5
REMARK    4  A    between atoms: C_5  and  O_6
REMARK    5  A    between atoms: O_6  and  C_7
REMARK    6  A    between atoms: C_7  and  C_9
REMARK    7  A    between atoms: C_9  and  N_10
REMARK    8  A    between atoms: C_11  and  C_13
REMARK    9  A    between atoms: C_22  and  S_23
REMARK   10  A    between atoms: S_23  and  N_26
REMARK   11  A    between atoms: N_26  and  C_27
REMARK   12  A    between atoms: N_26  and  C_28
REMARK                            x       y       z     vdW  Elec       q    Type
REMARK                         _______ _______ _______ _____ _____    ______ ____
ROOT
ATOM      1  N   UNL     1       2.232   4.860  19.759  0.00  0.00    +0.000 N 
ATOM      2  C   UNL     1       2.143   6.214  20.006  0.00  0.00    +0.000 A 
ATOM      3  N   UNL     1       3.144   6.857  19.431  0.00  0.00    +0.000 NA
ATOM      4  C   UNL     1       3.909   5.901  18.826  0.00  0.00    +0.000 A 
ATOM      5  C   UNL     1       5.081   6.058  18.076  0.00  0.00    +0.000 A 
ATOM      6  C   UNL     1       5.666   4.907  17.527  0.00  0.00    +0.000 A 
ATOM      7  C   UNL     1       5.149   3.631  17.772  0.00  0.00    +0.000 A 
ATOM      8  C   UNL     1       3.982   3.470  18.526  0.00  0.00    +0.000 A 
ATOM      9  C   UNL     1       3.377   4.632  19.024  0.00  0.00    +0.000 A 
ENDROOT
BRANCH   6  10
ATOM     10  S   UNL     1       7.119   5.096  16.514  0.00  0.00    +0.000 S 
ATOM     11  O   UNL     1       7.378   6.514  16.385  0.00  0.00    +0.000 OA
ATOM     12  O   UNL     1       8.129   4.194  17.026  0.00  0.00    +0.000 OA
BRANCH  10  13
ATOM     13  N   UNL     1       6.597   4.517  14.997  0.00  0.00    +0.000 NA
ATOM     14  C   UNL     1       5.154   4.590  14.717  0.00  0.00    +0.000 C 
ATOM     15  C   UNL     1       7.435   4.864  13.834  0.00  0.00    +0.000 C 
ENDBRANCH  10  13
ENDBRANCH   6  10
BRANCH   1  17
ATOM     16  C   UNL     1       1.687   3.100  21.408  0.00  0.00    +0.000 C 
ATOM     17  C   UNL     1       1.276   3.839  20.147  0.00  0.00    +0.000 C 
ENDBRANCH   1  17
BRANCH   2  18
ATOM     18  C   UNL     1       1.052   6.840  20.818  0.00  0.00    +0.000 C 
BRANCH  18  19
ATOM     19  O   UNL     1       1.605   7.958  21.520  0.00  0.00    +0.000 OA
BRANCH  19  20
ATOM     20  C   UNL     1       0.766   9.010  21.705  0.00  0.00    +0.000 C 
ATOM     21  O   UNL     1       0.101   9.223  22.715  0.00  0.00    +0.000 OA
BRANCH  20  22
ATOM     22  C   UNL     1       0.859   9.978  20.535  0.00  0.00    +0.000 C 
BRANCH  22  23
ATOM     23  N   UNL     1      -0.391  10.021  19.794  0.00  0.00    +0.000 N 
ATOM     24  C   UNL     1      -0.585  10.965  18.807  0.00  0.00    +0.000 C 
ATOM     25  O   UNL     1       0.267  11.785  18.490  0.00  0.00    +0.000 OA
ATOM     26  H   UNL     1      -1.104   9.339  20.012  0.00  0.00    +0.000 HD
BRANCH  24  27
ATOM     27  C   UNL     1      -1.888  10.937  18.092  0.00  0.00    +0.000 A 
ATOM     28  C   UNL     1      -2.092  10.181  16.931  0.00  0.00    +0.000 A 
ATOM     29  C   UNL     1      -3.341  10.189  16.306  0.00  0.00    +0.000 A 
ATOM     30  C   UNL     1      -4.389  10.944  16.838  0.00  0.00    +0.000 A 
ATOM     31  C   UNL     1      -4.194  11.686  18.002  0.00  0.00    +0.000 A 
ATOM     32  C   UNL     1      -2.949  11.678  18.631  0.00  0.00    +0.000 A 
ENDBRANCH  24  27
ENDBRANCH  22  23
ENDBRANCH  20  22
ENDBRANCH  19  20
ENDBRANCH  18  19
ENDBRANCH   2  18
TORSDOF 9
ENDMDL
