MODEL 1
REMARK VINA RESULT:      -8.1      0.000      0.000
REMARK  Name = 
REMARK  5 active torsions:
REMARK  status: ('A' for Active; 'I' for Inactive)
REMARK    1  A    between atoms: C_1  and  N_2
REMARK    2  A    between atoms: N_2  and  C_3
REMARK    3  A    between atoms: C_3  and  C_4
REMARK    4  A    between atoms: C_10  and  C_12
REMARK    5  A    between atoms: N_16  and  C_17
REMARK                            x       y       z     vdW  Elec       q    Type
REMARK                         _______ _______ _______ _____ _____    ______ ____
ROOT
ATOM      1  C   UNL     1       3.640   3.391  19.346  0.00  0.00    +0.000 C 
ATOM      2  C   UNL     1       2.396   2.473  19.551  0.00  0.00    +0.000 C 
ATOM      3  C   UNL     1       1.079   3.257  19.421  0.00  0.00    +0.000 C 
ATOM      4  C   UNL     1       1.032   4.428  20.399  0.00  0.00    +0.000 C 
ATOM      5  N   UNL     1       2.236   5.243  20.269  0.00  0.00    +0.000 N 
ATOM      6  C   UNL     1       3.506   4.522  20.377  0.00  0.00    +0.000 C 
ENDROOT
BRANCH   5   7
ATOM      7  C   UNL     1       2.164   6.465  19.613  0.00  0.00    +0.000 A 
ATOM      8  N   UNL     1       2.432   6.529  18.274  0.00  0.00    +0.000 NA
ATOM      9  C   UNL     1       2.366   7.713  17.628  0.00  0.00    +0.000 A 
ATOM     10  N   UNL     1       2.089   8.926  18.139  0.00  0.00    +0.000 NA
ATOM     11  C   UNL     1       1.779   8.828  19.440  0.00  0.00    +0.000 A 
ATOM     12  C   UNL     1       1.746   7.679  20.217  0.00  0.00    +0.000 A 
ATOM     13  N   UNL     1       1.238   7.976  21.472  0.00  0.00    +0.000 NA
ATOM     14  C   UNL     1       0.945   9.259  21.442  0.00  0.00    +0.000 A 
ATOM     15  N   UNL     1       1.392   9.833  20.279  0.00  0.00    +0.000 N 
ATOM     16  C   UNL     1       1.315  11.240  19.961  0.00  0.00    +0.000 C 
ATOM     17  C   UNL     1      -0.116  11.701  19.718  0.00  0.00    +0.000 C 
ATOM     18  C   UNL     1      -0.965  11.812  20.990  0.00  0.00    +0.000 C 
ATOM     19  C   UNL     1      -1.167  10.511  21.774  0.00  0.00    +0.000 C 
ATOM     20  C   UNL     1       0.112   9.987  22.435  0.00  0.00    +0.000 C 
ENDBRANCH   5   7
BRANCH   1  23
ATOM     21  C   UNL     1       5.039   4.109  15.775  0.00  0.00    +0.000 C 
ATOM     22  N   UNL     1       5.032   3.937  17.229  0.00  0.00    +0.000 N 
ATOM     23  C   UNL     1       3.798   3.686  17.833  0.00  0.00    +0.000 C 
ATOM     24  O   UNL     1       2.801   3.570  17.102  0.00  0.00    +0.000 OA
BRANCH  22  25
ATOM     25  C   UNL     1       6.281   4.268  17.896  0.00  0.00    +0.000 C 
BRANCH  25  26
ATOM     26  C   UNL     1       6.701   5.714  18.013  0.00  0.00    +0.000 A 
ATOM     27  C   UNL     1       7.839   6.136  18.706  0.00  0.00    +0.000 A 
ATOM     28  C   UNL     1       8.312   7.446  18.568  0.00  0.00    +0.000 A 
ATOM     29  C   UNL     1       7.649   8.353  17.743  0.00  0.00    +0.000 A 
ATOM     30  C   UNL     1       6.494   7.963  17.075  0.00  0.00    +0.000 A 
ATOM     31  C   UNL     1       6.024   6.656  17.210  0.00  0.00    +0.000 A 
ENDBRANCH  25  26
ENDBRANCH  22  25
ENDBRANCH   1  23
TORSDOF 4
ENDMDL
MODEL 2
REMARK VINA RESULT:      -7.9      0.660      1.064
REMARK  Name = 
REMARK  5 active torsions:
REMARK  status: ('A' for Active; 'I' for Inactive)
REMARK    1  A    between atoms: C_1  and  N_2
REMARK    2  A    between atoms: N_2  and  C_3
REMARK    3  A    between atoms: C_3  and  C_4
REMARK    4  A    between atoms: C_10  and  C_12
REMARK    5  A    between atoms: N_16  and  C_17
REMARK                            x       y       z     vdW  Elec       q    Type
REMARK                         _______ _______ _______ _____ _____    ______ ____
ROOT
ATOM      1  C   UNL     1       4.009   3.747  18.912  0.00  0.00    +0.000 C 
ATOM      2  C   UNL     1       2.906   2.687  19.219  0.00  0.00    +0.000 C 
ATOM      3  C   UNL     1       1.512   3.329  19.334  0.00  0.00    +0.000 C 
ATOM      4  C   UNL     1       1.493   4.428  20.393  0.00  0.00    +0.000 C 
ATOM      5  N   UNL     1       2.578   5.376  20.157  0.00  0.00    +0.000 N 
ATOM      6  C   UNL     1       3.915   4.793  20.033  0.00  0.00    +0.000 C 
ENDROOT
BRANCH   5   7
ATOM      7  C   UNL     1       2.289   6.619  19.610  0.00  0.00    +0.000 A 
ATOM      8  N   UNL     1       2.351   6.792  18.255  0.00  0.00    +0.000 NA
ATOM      9  C   UNL     1       2.073   7.997  17.715  0.00  0.00    +0.000 A 
ATOM     10  N   UNL     1       1.753   9.140  18.348  0.00  0.00    +0.000 NA
ATOM     11  C   UNL     1       1.648   8.932  19.668  0.00  0.00    +0.000 A 
ATOM     12  C   UNL     1       1.844   7.742  20.355  0.00  0.00    +0.000 A 
ATOM     13  N   UNL     1       1.497   7.907  21.687  0.00  0.00    +0.000 NA
ATOM     14  C   UNL     1       1.076   9.149  21.793  0.00  0.00    +0.000 A 
ATOM     15  N   UNL     1       1.288   9.836  20.625  0.00  0.00    +0.000 N 
ATOM     16  C   UNL     1       1.026  11.244  20.426  0.00  0.00    +0.000 C 
ATOM     17  C   UNL     1      -0.464  11.558  20.419  0.00  0.00    +0.000 C 
ATOM     18  C   UNL     1      -1.126  11.499  21.801  0.00  0.00    +0.000 C 
ATOM     19  C   UNL     1      -1.080  10.140  22.508  0.00  0.00    +0.000 C 
ATOM     20  C   UNL     1       0.328   9.721  22.943  0.00  0.00    +0.000 C 
ENDBRANCH   5   7
BRANCH   1  23
ATOM     21  C   UNL     1       4.745   4.433  15.142  0.00  0.00    +0.000 C 
ATOM     22  N   UNL     1       5.005   4.117  16.548  0.00  0.00    +0.000 N 
ATOM     23  C   UNL     1       3.912   4.146  17.418  0.00  0.00    +0.000 C 
ATOM     24  O   UNL     1       2.790   4.380  16.941  0.00  0.00    +0.000 OA
BRANCH  22  25
ATOM     25  C   UNL     1       6.409   4.027  16.911  0.00  0.00    +0.000 C 
BRANCH  25  26
ATOM     26  C   UNL     1       7.142   5.268  17.363  0.00  0.00    +0.000 A 
ATOM     27  C   UNL     1       7.092   6.487  16.681  0.00  0.00    +0.000 A 
ATOM     28  C   UNL     1       7.579   7.656  17.276  0.00  0.00    +0.000 A 
ATOM     29  C   UNL     1       8.129   7.620  18.556  0.00  0.00    +0.000 A 
ATOM     30  C   UNL     1       8.222   6.411  19.235  0.00  0.00    +0.000 A 
ATOM     31  C   UNL     1       7.734   5.245  18.642  0.00  0.00    +0.000 A 
ENDBRANCH  25  26
ENDBRANCH  22  25
ENDBRANCH   1  23
TORSDOF 4
ENDMDL
MODEL 3
REMARK VINA RESULT:      -7.7      6.039      9.023
REMARK  Name = 
REMARK  5 active torsions:
REMARK  status: ('A' for Active; 'I' for Inactive)
REMARK    1  A    between atoms: C_1  and  N_2
REMARK    2  A    between atoms: N_2  and  C_3
REMARK    3  A    between atoms: C_3  and  C_4
REMARK    4  A    between atoms: C_10  and  C_12
REMARK    5  A    between atoms: N_16  and  C_17
REMARK                            x       y       z     vdW  Elec       q    Type
REMARK                         _______ _______ _______ _____ _____    ______ ____
ROOT
ATOM      1  C   UNL     1      -2.130  10.087  17.918  0.00  0.00    +0.000 C 
ATOM      2  C   UNL     1      -2.123  10.097  16.358  0.00  0.00    +0.000 C 
ATOM      3  C   UNL     1      -3.058  11.179  15.789  0.00  0.00    +0.000 C 
ATOM      4  C   UNL     1      -4.484  11.007  16.305  0.00  0.00    +0.000 C 
ATOM      5  N   UNL     1      -4.485  10.912  17.762  0.00  0.00    +0.000 N 
ATOM      6  C   UNL     1      -3.597   9.899  18.333  0.00  0.00    +0.000 C 
ENDROOT
BRANCH   5   7
ATOM      7  C   UNL     1      -4.899  12.003  18.515  0.00  0.00    +0.000 A 
ATOM      8  N   UNL     1      -4.306  12.256  19.720  0.00  0.00    +0.000 NA
ATOM      9  C   UNL     1      -4.704  13.314  20.460  0.00  0.00    +0.000 A 
ATOM     10  N   UNL     1      -5.680  14.198  20.191  0.00  0.00    +0.000 NA
ATOM     11  C   UNL     1      -6.210  13.959  18.982  0.00  0.00    +0.000 A 
ATOM     12  C   UNL     1      -5.864  12.954  18.091  0.00  0.00    +0.000 A 
ATOM     13  N   UNL     1      -6.540  13.135  16.894  0.00  0.00    +0.000 NA
ATOM     14  C   UNL     1      -7.249  14.233  17.049  0.00  0.00    +0.000 A 
ATOM     15  N   UNL     1      -7.182  14.676  18.346  0.00  0.00    +0.000 N 
ATOM     16  C   UNL     1      -7.912  15.803  18.880  0.00  0.00    +0.000 C 
ATOM     17  C   UNL     1      -7.410  17.131  18.330  0.00  0.00    +0.000 C 
ATOM     18  C   UNL     1      -7.809  17.399  16.874  0.00  0.00    +0.000 C 
ATOM     19  C   UNL     1      -7.286  16.396  15.841  0.00  0.00    +0.000 C 
ATOM     20  C   UNL     1      -7.912  15.003  15.965  0.00  0.00    +0.000 C 
ENDBRANCH   5   7
BRANCH   1  23
ATOM     21  C   UNL     1       0.558  12.352  19.612  0.00  0.00    +0.000 C 
ATOM     22  N   UNL     1      -0.199  11.141  19.287  0.00  0.00    +0.000 N 
ATOM     23  C   UNL     1      -1.289  11.285  18.427  0.00  0.00    +0.000 C 
ATOM     24  O   UNL     1      -1.514  12.409  17.950  0.00  0.00    +0.000 OA
BRANCH  22  25
ATOM     25  C   UNL     1       0.143   9.969  20.076  0.00  0.00    +0.000 C 
BRANCH  25  26
ATOM     26  C   UNL     1       1.212   9.024  19.580  0.00  0.00    +0.000 A 
ATOM     27  C   UNL     1       1.627   7.888  20.282  0.00  0.00    +0.000 A 
ATOM     28  C   UNL     1       2.430   6.923  19.663  0.00  0.00    +0.000 A 
ATOM     29  C   UNL     1       2.835   7.085  18.339  0.00  0.00    +0.000 A 
ATOM     30  C   UNL     1       2.464   8.227  17.638  0.00  0.00    +0.000 A 
ATOM     31  C   UNL     1       1.661   9.187  18.254  0.00  0.00    +0.000 A 
ENDBRANCH  25  26
ENDBRANCH  22  25
ENDBRANCH   1  23
TORSDOF 4
ENDMDL
MODEL 4
REMARK VINA RESULT:      -7.7      2.768      8.031
REMARK  Name = 
REMARK  5 active torsions:
REMARK  status: ('A' for Active; 'I' for Inactive)
REMARK    1  A    between atoms: C_1  and  N_2
REMARK    2  A    between atoms: N_2  and  C_3
REMARK    3  A    between atoms: C_3  and  C_4
REMARK    4  A    between atoms: C_10  and  C_12
REMARK    5  A    between atoms: N_16  and  C_17
REMARK                            x       y       z     vdW  Elec       q    Type
REMARK                         _______ _______ _______ _____ _____    ______ ____
ROOT
ATOM      1  C   UNL     1      -0.712  10.161  21.666  0.00  0.00    +0.000 C 
ATOM      2  C   UNL     1      -0.018  10.001  23.054  0.00  0.00    +0.000 C 
ATOM      3  C   UNL     1       1.420   9.473  22.917  0.00  0.00    +0.000 C 
ATOM      4  C   UNL     1       1.455   8.149  22.158  0.00  0.00    +0.000 C 
ATOM      5  N   UNL     1       0.734   8.272  20.895  0.00  0.00    +0.000 N 
ATOM      6  C   UNL     1      -0.635   8.782  20.992  0.00  0.00    +0.000 C 
ENDROOT
BRANCH   5   7
ATOM      7  C   UNL     1       1.449   8.373  19.709  0.00  0.00    +0.000 A 
ATOM      8  N   UNL     1       1.325   9.495  18.939  0.00  0.00    +0.000 NA
ATOM      9  C   UNL     1       2.015   9.600  17.783  0.00  0.00    +0.000 A 
ATOM     10  N   UNL     1       2.838   8.698  17.219  0.00  0.00    +0.000 NA
ATOM     11  C   UNL     1       2.983   7.632  18.018  0.00  0.00    +0.000 A 
ATOM     12  C   UNL     1       2.389   7.412  19.252  0.00  0.00    +0.000 A 
ATOM     13  N   UNL     1       2.907   6.261  19.824  0.00  0.00    +0.000 NA
ATOM     14  C   UNL     1       3.808   5.816  18.975  0.00  0.00    +0.000 A 
ATOM     15  N   UNL     1       3.778   6.541  17.810  0.00  0.00    +0.000 N 
ATOM     16  C   UNL     1       4.572   6.264  16.635  0.00  0.00    +0.000 C 
ATOM     17  C   UNL     1       6.050   6.553  16.855  0.00  0.00    +0.000 C 
ATOM     18  C   UNL     1       6.768   5.525  17.739  0.00  0.00    +0.000 C 
ATOM     19  C   UNL     1       6.242   5.392  19.171  0.00  0.00    +0.000 C 
ATOM     20  C   UNL     1       4.839   4.782  19.257  0.00  0.00    +0.000 C 
ENDBRANCH   5   7
BRANCH   1  23
ATOM     21  C   UNL     1      -0.316  13.539  19.752  0.00  0.00    +0.000 C 
ATOM     22  N   UNL     1      -0.962  12.332  20.273  0.00  0.00    +0.000 N 
ATOM     23  C   UNL     1      -0.157  11.433  20.977  0.00  0.00    +0.000 C 
ATOM     24  O   UNL     1       1.032  11.736  21.165  0.00  0.00    +0.000 OA
BRANCH  22  25
ATOM     25  C   UNL     1      -2.319  12.107  19.803  0.00  0.00    +0.000 C 
BRANCH  25  26
ATOM     26  C   UNL     1      -2.543  11.512  18.433  0.00  0.00    +0.000 A 
ATOM     27  C   UNL     1      -1.671  10.599  17.834  0.00  0.00    +0.000 A 
ATOM     28  C   UNL     1      -2.054   9.896  16.686  0.00  0.00    +0.000 A 
ATOM     29  C   UNL     1      -3.309  10.104  16.117  0.00  0.00    +0.000 A 
ATOM     30  C   UNL     1      -4.176  11.036  16.677  0.00  0.00    +0.000 A 
ATOM     31  C   UNL     1      -3.795  11.734  17.823  0.00  0.00    +0.000 A 
ENDBRANCH  25  26
ENDBRANCH  22  25
ENDBRANCH   1  23
TORSDOF 4
ENDMDL
MODEL 5
REMARK VINA RESULT:      -7.6      2.069      3.205
REMARK  Name = 
REMARK  5 active torsions:
REMARK  status: ('A' for Active; 'I' for Inactive)
REMARK    1  A    between atoms: C_1  and  N_2
REMARK    2  A    between atoms: N_2  and  C_3
REMARK    3  A    between atoms: C_3  and  C_4
REMARK    4  A    between atoms: C_10  and  C_12
REMARK    5  A    between atoms: N_16  and  C_17
REMARK                            x       y       z     vdW  Elec       q    Type
REMARK                         _______ _______ _______ _____ _____    ______ ____
ROOT
ATOM      1  C   UNL     1       4.564   5.211  18.534  0.00  0.00    +0.000 C 
ATOM      2  C   UNL     1       3.770   3.985  17.987  0.00  0.00    +0.000 C 
ATOM      3  C   UNL     1       2.311   4.350  17.659  0.00  0.00    +0.000 C 
ATOM      4  C   UNL     1       1.599   4.935  18.875  0.00  0.00    +0.000 C 
ATOM      5  N   UNL     1       2.383   6.029  19.441  0.00  0.00    +0.000 N 
ATOM      6  C   UNL     1       3.778   5.715  19.754  0.00  0.00    +0.000 C 
ENDROOT
BRANCH   5   7
ATOM      7  C   UNL     1       1.978   7.340  19.225  0.00  0.00    +0.000 A 
ATOM      8  N   UNL     1       1.854   7.806  17.946  0.00  0.00    +0.000 NA
ATOM      9  C   UNL     1       1.464   9.079  17.726  0.00  0.00    +0.000 A 
ATOM     10  N   UNL     1       1.188  10.034  18.633  0.00  0.00    +0.000 NA
ATOM     11  C   UNL     1       1.266   9.538  19.876  0.00  0.00    +0.000 A 
ATOM     12  C   UNL     1       1.594   8.243  20.250  0.00  0.00    +0.000 A 
ATOM     13  N   UNL     1       1.421   8.092  21.617  0.00  0.00    +0.000 NA
ATOM     14  C   UNL     1       0.972   9.251  22.049  0.00  0.00    +0.000 A 
ATOM     15  N   UNL     1       1.003  10.188  21.047  0.00  0.00    +0.000 N 
ATOM     16  C   UNL     1       0.665  11.585  21.201  0.00  0.00    +0.000 C 
ATOM     17  C   UNL     1      -0.824  11.795  21.444  0.00  0.00    +0.000 C 
ATOM     18  C   UNL     1      -1.295  11.395  22.848  0.00  0.00    +0.000 C 
ATOM     19  C   UNL     1      -1.106   9.921  23.221  0.00  0.00    +0.000 C 
ATOM     20  C   UNL     1       0.362   9.510  23.379  0.00  0.00    +0.000 C 
ENDBRANCH   5   7
BRANCH   1  23
ATOM     21  C   UNL     1       5.412   6.685  15.021  0.00  0.00    +0.000 C 
ATOM     22  N   UNL     1       5.188   5.679  16.062  0.00  0.00    +0.000 N 
ATOM     23  C   UNL     1       4.914   6.147  17.349  0.00  0.00    +0.000 C 
ATOM     24  O   UNL     1       4.822   7.374  17.519  0.00  0.00    +0.000 OA
BRANCH  22  25
ATOM     25  C   UNL     1       5.497   4.312  15.676  0.00  0.00    +0.000 C 
BRANCH  25  26
ATOM     26  C   UNL     1       6.103   4.041  14.320  0.00  0.00    +0.000 A 
ATOM     27  C   UNL     1       5.453   3.322  13.312  0.00  0.00    +0.000 A 
ATOM     28  C   UNL     1       5.953   3.320  12.004  0.00  0.00    +0.000 A 
ATOM     29  C   UNL     1       7.110   4.029  11.689  0.00  0.00    +0.000 A 
ATOM     30  C   UNL     1       7.790   4.719  12.686  0.00  0.00    +0.000 A 
ATOM     31  C   UNL     1       7.291   4.724  13.989  0.00  0.00    +0.000 A 
ENDBRANCH  25  26
ENDBRANCH  22  25
ENDBRANCH   1  23
TORSDOF 4
ENDMDL
MODEL 6
REMARK VINA RESULT:      -7.4      3.853      8.556
REMARK  Name = 
REMARK  5 active torsions:
REMARK  status: ('A' for Active; 'I' for Inactive)
REMARK    1  A    between atoms: C_1  and  N_2
REMARK    2  A    between atoms: N_2  and  C_3
REMARK    3  A    between atoms: C_3  and  C_4
REMARK    4  A    between atoms: C_10  and  C_12
REMARK    5  A    between atoms: N_16  and  C_17
REMARK                            x       y       z     vdW  Elec       q    Type
REMARK                         _______ _______ _______ _____ _____    ______ ____
ROOT
ATOM      1  C   UNL     1       1.922  13.243  18.722  0.00  0.00    +0.000 C 
ATOM      2  C   UNL     1       0.595  14.044  18.542  0.00  0.00    +0.000 C 
ATOM      3  C   UNL     1      -0.607  13.303  19.152  0.00  0.00    +0.000 C 
ATOM      4  C   UNL     1      -0.755  11.904  18.560  0.00  0.00    +0.000 C 
ATOM      5  N   UNL     1       0.511  11.181  18.650  0.00  0.00    +0.000 N 
ATOM      6  C   UNL     1       1.675  11.866  18.087  0.00  0.00    +0.000 C 
ENDROOT
BRANCH   5   7
ATOM      7  C   UNL     1       0.662  10.191  19.613  0.00  0.00    +0.000 A 
ATOM      8  N   UNL     1       0.058  10.335  20.830  0.00  0.00    +0.000 NA
ATOM      9  C   UNL     1       0.201   9.379  21.773  0.00  0.00    +0.000 A 
ATOM     10  N   UNL     1       0.920   8.245  21.705  0.00  0.00    +0.000 NA
ATOM     11  C   UNL     1       1.459   8.102  20.486  0.00  0.00    +0.000 A 
ATOM     12  C   UNL     1       1.349   8.967  19.406  0.00  0.00    +0.000 A 
ATOM     13  N   UNL     1       1.926   8.392  18.285  0.00  0.00    +0.000 NA
ATOM     14  C   UNL     1       2.344   7.205  18.669  0.00  0.00    +0.000 A 
ATOM     15  N   UNL     1       2.205   7.056  20.026  0.00  0.00    +0.000 N 
ATOM     16  C   UNL     1       2.648   5.911  20.788  0.00  0.00    +0.000 C 
ATOM     17  C   UNL     1       1.817   4.668  20.499  0.00  0.00    +0.000 C 
ATOM     18  C   UNL     1       2.097   4.028  19.134  0.00  0.00    +0.000 C 
ATOM     19  C   UNL     1       1.811   4.907  17.912  0.00  0.00    +0.000 C 
ATOM     20  C   UNL     1       2.766   6.096  17.773  0.00  0.00    +0.000 C 
ENDBRANCH   5   7
BRANCH   1  23
ATOM     21  C   UNL     1       3.490  14.500  22.067  0.00  0.00    +0.000 C 
ATOM     22  N   UNL     1       3.196  14.443  20.633  0.00  0.00    +0.000 N 
ATOM     23  C   UNL     1       2.395  13.388  20.190  0.00  0.00    +0.000 C 
ATOM     24  O   UNL     1       1.940  12.603  21.037  0.00  0.00    +0.000 OA
BRANCH  22  25
ATOM     25  C   UNL     1       3.957  15.369  19.810  0.00  0.00    +0.000 C 
BRANCH  25  26
ATOM     26  C   UNL     1       3.226  16.383  18.962  0.00  0.00    +0.000 A 
ATOM     27  C   UNL     1       3.372  16.479  17.574  0.00  0.00    +0.000 A 
ATOM     28  C   UNL     1       2.490  17.260  16.819  0.00  0.00    +0.000 A 
ATOM     29  C   UNL     1       1.457  17.959  17.439  0.00  0.00    +0.000 A 
ATOM     30  C   UNL     1       1.319  17.905  18.822  0.00  0.00    +0.000 A 
ATOM     31  C   UNL     1       2.197  17.125  19.575  0.00  0.00    +0.000 A 
ENDBRANCH  25  26
ENDBRANCH  22  25
ENDBRANCH   1  23
TORSDOF 4
ENDMDL
MODEL 7
REMARK VINA RESULT:      -7.4      4.073      7.305
REMARK  Name = 
REMARK  5 active torsions:
REMARK  status: ('A' for Active; 'I' for Inactive)
REMARK    1  A    between atoms: C_1  and  N_2
REMARK    2  A    between atoms: N_2  and  C_3
REMARK    3  A    between atoms: C_3  and  C_4
REMARK    4  A    between atoms: C_10  and  C_12
REMARK    5  A    between atoms: N_16  and  C_17
REMARK                            x       y       z     vdW  Elec       q    Type
REMARK                         _______ _______ _______ _____ _____    ______ ____
ROOT
ATOM      1  C   UNL     1       1.120  12.005  20.374  0.00  0.00    +0.000 C 
ATOM      2  C   UNL     1       0.837  13.290  21.213  0.00  0.00    +0.000 C 
ATOM      3  C   UNL     1      -0.637  13.721  21.119  0.00  0.00    +0.000 C 
ATOM      4  C   UNL     1      -1.060  13.938  19.669  0.00  0.00    +0.000 C 
ATOM      5  N   UNL     1      -0.719  12.769  18.863  0.00  0.00    +0.000 N 
ATOM      6  C   UNL     1       0.675  12.329  18.940  0.00  0.00    +0.000 C 
ENDROOT
BRANCH   5   7
ATOM      7  C   UNL     1      -1.724  11.891  18.478  0.00  0.00    +0.000 A 
ATOM      8  N   UNL     1      -1.398  10.741  17.815  0.00  0.00    +0.000 NA
ATOM      9  C   UNL     1      -2.369   9.883  17.436  0.00  0.00    +0.000 A 
ATOM     10  N   UNL     1      -3.699  10.006  17.593  0.00  0.00    +0.000 NA
ATOM     11  C   UNL     1      -3.987  11.114  18.291  0.00  0.00    +0.000 A 
ATOM     12  C   UNL     1      -3.098  12.052  18.794  0.00  0.00    +0.000 A 
ATOM     13  N   UNL     1      -3.779  12.969  19.580  0.00  0.00    +0.000 NA
ATOM     14  C   UNL     1      -5.035  12.578  19.575  0.00  0.00    +0.000 A 
ATOM     15  N   UNL     1      -5.219  11.545  18.692  0.00  0.00    +0.000 N 
ATOM     16  C   UNL     1      -6.491  10.937  18.373  0.00  0.00    +0.000 C 
ATOM     17  C   UNL     1      -7.054  10.132  19.536  0.00  0.00    +0.000 C 
ATOM     18  C   UNL     1      -7.606  10.986  20.684  0.00  0.00    +0.000 C 
ATOM     19  C   UNL     1      -6.595  11.904  21.379  0.00  0.00    +0.000 C 
ATOM     20  C   UNL     1      -6.102  13.054  20.495  0.00  0.00    +0.000 C 
ENDBRANCH   5   7
BRANCH   1  23
ATOM     21  C   UNL     1       0.165   8.403  21.530  0.00  0.00    +0.000 C 
ATOM     22  N   UNL     1       0.653   9.472  20.656  0.00  0.00    +0.000 N 
ATOM     23  C   UNL     1       0.564  10.779  21.140  0.00  0.00    +0.000 C 
ATOM     24  O   UNL     1       0.133  10.948  22.292  0.00  0.00    +0.000 OA
BRANCH  22  25
ATOM     25  C   UNL     1       0.968   9.062  19.297  0.00  0.00    +0.000 C 
BRANCH  25  26
ATOM     26  C   UNL     1       2.091   8.082  19.058  0.00  0.00    +0.000 A 
ATOM     27  C   UNL     1       2.303   6.942  19.839  0.00  0.00    +0.000 A 
ATOM     28  C   UNL     1       3.195   5.947  19.420  0.00  0.00    +0.000 A 
ATOM     29  C   UNL     1       3.891   6.083  18.221  0.00  0.00    +0.000 A 
ATOM     30  C   UNL     1       3.722   7.227  17.449  0.00  0.00    +0.000 A 
ATOM     31  C   UNL     1       2.831   8.217  17.865  0.00  0.00    +0.000 A 
ENDBRANCH  25  26
ENDBRANCH  22  25
ENDBRANCH   1  23
TORSDOF 4
ENDMDL
MODEL 8
REMARK VINA RESULT:      -7.3      4.016      7.367
REMARK  Name = 
REMARK  5 active torsions:
REMARK  status: ('A' for Active; 'I' for Inactive)
REMARK    1  A    between atoms: C_1  and  N_2
REMARK    2  A    between atoms: N_2  and  C_3
REMARK    3  A    between atoms: C_3  and  C_4
REMARK    4  A    between atoms: C_10  and  C_12
REMARK    5  A    between atoms: N_16  and  C_17
REMARK                            x       y       z     vdW  Elec       q    Type
REMARK                         _______ _______ _______ _____ _____    ______ ____
ROOT
ATOM      1  C   UNL     1       0.476  10.018  18.441  0.00  0.00    +0.000 C 
ATOM      2  C   UNL     1       1.805  10.818  18.280  0.00  0.00    +0.000 C 
ATOM      3  C   UNL     1       1.723  12.203  18.945  0.00  0.00    +0.000 C 
ATOM      4  C   UNL     1       0.553  13.014  18.394  0.00  0.00    +0.000 C 
ATOM      5  N   UNL     1      -0.680  12.235  18.465  0.00  0.00    +0.000 N 
ATOM      6  C   UNL     1      -0.628  10.907  17.850  0.00  0.00    +0.000 C 
ENDROOT
BRANCH   5   7
ATOM      7  C   UNL     1      -1.616  12.529  19.447  0.00  0.00    +0.000 A 
ATOM      8  N   UNL     1      -1.219  13.168  20.589  0.00  0.00    +0.000 NA
ATOM      9  C   UNL     1      -2.122  13.456  21.550  0.00  0.00    +0.000 A 
ATOM     10  N   UNL     1      -3.435  13.165  21.574  0.00  0.00    +0.000 NA
ATOM     11  C   UNL     1      -3.808  12.587  20.423  0.00  0.00    +0.000 A 
ATOM     12  C   UNL     1      -3.009  12.285  19.330  0.00  0.00    +0.000 A 
ATOM     13  N   UNL     1      -3.797  11.828  18.285  0.00  0.00    +0.000 NA
ATOM     14  C   UNL     1      -5.036  11.882  18.724  0.00  0.00    +0.000 A 
ATOM     15  N   UNL     1      -5.066  12.200  20.059  0.00  0.00    +0.000 N 
ATOM     16  C   UNL     1      -6.256  12.255  20.876  0.00  0.00    +0.000 C 
ATOM     17  C   UNL     1      -7.156  13.427  20.508  0.00  0.00    +0.000 C 
ATOM     18  C   UNL     1      -7.916  13.246  19.189  0.00  0.00    +0.000 C 
ATOM     19  C   UNL     1      -7.051  13.089  17.934  0.00  0.00    +0.000 C 
ATOM     20  C   UNL     1      -6.263  11.776  17.891  0.00  0.00    +0.000 C 
ENDBRANCH   5   7
BRANCH   1  23
ATOM     21  C   UNL     1       1.175   8.233  21.840  0.00  0.00    +0.000 C 
ATOM     22  N   UNL     1       1.329   8.590  20.428  0.00  0.00    +0.000 N 
ATOM     23  C   UNL     1       0.393   9.476  19.890  0.00  0.00    +0.000 C 
ATOM     24  O   UNL     1      -0.470   9.946  20.648  0.00  0.00    +0.000 OA
BRANCH  22  25
ATOM     25  C   UNL     1       2.310   7.804  19.697  0.00  0.00    +0.000 C 
BRANCH  25  26
ATOM     26  C   UNL     1       2.100   6.317  19.533  0.00  0.00    +0.000 A 
ATOM     27  C   UNL     1       1.575   5.496  20.535  0.00  0.00    +0.000 A 
ATOM     28  C   UNL     1       1.171   4.188  20.243  0.00  0.00    +0.000 A 
ATOM     29  C   UNL     1       1.295   3.682  18.950  0.00  0.00    +0.000 A 
ATOM     30  C   UNL     1       1.850   4.472  17.949  0.00  0.00    +0.000 A 
ATOM     31  C   UNL     1       2.250   5.777  18.240  0.00  0.00    +0.000 A 
ENDBRANCH  25  26
ENDBRANCH  22  25
ENDBRANCH   1  23
TORSDOF 4
ENDMDL
MODEL 9
REMARK VINA RESULT:      -7.2      4.635      7.963
REMARK  Name = 
REMARK  5 active torsions:
REMARK  status: ('A' for Active; 'I' for Inactive)
REMARK    1  A    between atoms: C_1  and  N_2
REMARK    2  A    between atoms: N_2  and  C_3
REMARK    3  A    between atoms: C_3  and  C_4
REMARK    4  A    between atoms: C_10  and  C_12
REMARK    5  A    between atoms: N_16  and  C_17
REMARK                            x       y       z     vdW  Elec       q    Type
REMARK                         _______ _______ _______ _____ _____    ______ ____
ROOT
ATOM      1  C   UNL     1      -2.070  10.173  17.872  0.00  0.00    +0.000 C 
ATOM      2  C   UNL     1      -2.134  10.098  16.315  0.00  0.00    +0.000 C 
ATOM      3  C   UNL     1      -3.122  11.123  15.733  0.00  0.00    +0.000 C 
ATOM      4  C   UNL     1      -4.518  10.945  16.323  0.00  0.00    +0.000 C 
ATOM      5  N   UNL     1      -4.451  10.930  17.782  0.00  0.00    +0.000 N 
ATOM      6  C   UNL     1      -3.511   9.972  18.365  0.00  0.00    +0.000 C 
ENDROOT
BRANCH   5   7
ATOM      7  C   UNL     1      -4.861  12.051  18.493  0.00  0.00    +0.000 A 
ATOM      8  N   UNL     1      -5.939  12.770  18.059  0.00  0.00    +0.000 NA
ATOM      9  C   UNL     1      -6.342  13.861  18.743  0.00  0.00    +0.000 A 
ATOM     10  N   UNL     1      -5.792  14.405  19.844  0.00  0.00    +0.000 NA
ATOM     11  C   UNL     1      -4.771  13.653  20.278  0.00  0.00    +0.000 A 
ATOM     12  C   UNL     1      -4.284  12.482  19.717  0.00  0.00    +0.000 A 
ATOM     13  N   UNL     1      -3.318  11.931  20.544  0.00  0.00    +0.000 NA
ATOM     14  C   UNL     1      -3.246  12.730  21.587  0.00  0.00    +0.000 A 
ATOM     15  N   UNL     1      -4.008  13.855  21.392  0.00  0.00    +0.000 N 
ATOM     16  C   UNL     1      -4.084  14.977  22.299  0.00  0.00    +0.000 C 
ATOM     17  C   UNL     1      -4.810  14.628  23.590  0.00  0.00    +0.000 C 
ATOM     18  C   UNL     1      -4.001  13.746  24.549  0.00  0.00    +0.000 C 
ATOM     19  C   UNL     1      -3.603  12.367  24.013  0.00  0.00    +0.000 C 
ATOM     20  C   UNL     1      -2.575  12.422  22.878  0.00  0.00    +0.000 C 
ENDBRANCH   5   7
BRANCH   1  23
ATOM     21  C   UNL     1       0.580  12.602  19.391  0.00  0.00    +0.000 C 
ATOM     22  N   UNL     1      -0.171  11.363  19.174  0.00  0.00    +0.000 N 
ATOM     23  C   UNL     1      -1.240  11.418  18.277  0.00  0.00    +0.000 C 
ATOM     24  O   UNL     1      -1.451  12.487  17.682  0.00  0.00    +0.000 OA
BRANCH  22  25
ATOM     25  C   UNL     1       0.150  10.278  20.087  0.00  0.00    +0.000 C 
BRANCH  25  26
ATOM     26  C   UNL     1       1.149   9.225  19.669  0.00  0.00    +0.000 A 
ATOM     27  C   UNL     1       1.495   8.128  20.464  0.00  0.00    +0.000 A 
ATOM     28  C   UNL     1       2.226   7.063  19.927  0.00  0.00    +0.000 A 
ATOM     29  C   UNL     1       2.627   7.083  18.592  0.00  0.00    +0.000 A 
ATOM     30  C   UNL     1       2.325   8.182  17.797  0.00  0.00    +0.000 A 
ATOM     31  C   UNL     1       1.593   9.244  18.331  0.00  0.00    +0.000 A 
ENDBRANCH  25  26
ENDBRANCH  22  25
ENDBRANCH   1  23
TORSDOF 4
ENDMDL
