MODEL 1
REMARK VINA RESULT:      -8.1      0.000      0.000
REMARK  Name = 
REMARK  9 active torsions:
REMARK  status: ('A' for Active; 'I' for Inactive)
REMARK    1  A    between atoms: C_1  and  C_2
REMARK    2  A    between atoms: C_2  and  O_3
REMARK    3  A    between atoms: O_3  and  C_4
REMARK    4  A    between atoms: C_4  and  C_5
REMARK    5  A    between atoms: C_5  and  N_6
REMARK    6  A    between atoms: N_9  and  C_10
REMARK    7  A    between atoms: C_10  and  C_11
REMARK    8  A    between atoms: C_16  and  C_17
REMARK    9  A    between atoms: C_20  and  C_21
REMARK                            x       y       z     vdW  Elec       q    Type
REMARK                         _______ _______ _______ _____ _____    ______ ____
ROOT
ATOM      1  N   UNL     1       3.747   4.249  17.154  0.00  0.00    +0.000 N 
ATOM      2  C   UNL     1       4.898   3.958  16.406  0.00  0.00    +0.000 A 
ATOM      3  O   UNL     1       5.137   2.821  15.991  0.00  0.00    +0.000 OA
ATOM      4  N   UNL     1       5.809   5.018  16.180  0.00  0.00    +0.000 N 
ATOM      5  C   UNL     1       5.624   6.338  16.607  0.00  0.00    +0.000 A 
ATOM      6  O   UNL     1       6.414   7.255  16.411  0.00  0.00    +0.000 OA
ATOM      7  C   UNL     1       4.432   6.521  17.338  0.00  0.00    +0.000 A 
ATOM      8  N   UNL     1       3.914   7.636  17.917  0.00  0.00    +0.000 N 
ATOM      9  C   UNL     1       2.715   7.285  18.509  0.00  0.00    +0.000 A 
ATOM     10  N   UNL     1       2.506   5.982  18.370  0.00  0.00    +0.000 NA
ATOM     11  C   UNL     1       3.548   5.526  17.614  0.00  0.00    +0.000 A 
ATOM     12  H   UNL     1       4.335   8.555  17.915  0.00  0.00    +0.000 HD
ENDROOT
BRANCH   9  13
ATOM     13  C   UNL     1       1.841   8.245  19.178  0.00  0.00    +0.000 A 
ATOM     14  C   UNL     1       1.318   9.347  18.493  0.00  0.00    +0.000 A 
ATOM     15  C   UNL     1       0.471  10.251  19.142  0.00  0.00    +0.000 A 
ATOM     16  C   UNL     1       0.105  10.085  20.488  0.00  0.00    +0.000 A 
ATOM     17  C   UNL     1       0.640   8.975  21.164  0.00  0.00    +0.000 A 
ATOM     18  C   UNL     1       1.491   8.067  20.520  0.00  0.00    +0.000 A 
BRANCH  16  19
ATOM     19  C   UNL     1      -0.821  11.034  21.149  0.00  0.00    +0.000 A 
ATOM     20  C   UNL     1      -0.971  11.047  22.550  0.00  0.00    +0.000 A 
ATOM     21  C   UNL     1      -1.849  11.928  23.185  0.00  0.00    +0.000 A 
ATOM     22  C   UNL     1      -2.590  12.831  22.433  0.00  0.00    +0.000 A 
ATOM     23  C   UNL     1      -2.457  12.849  21.047  0.00  0.00    +0.000 A 
ATOM     24  C   UNL     1      -1.585  11.957  20.415  0.00  0.00    +0.000 A 
ENDBRANCH  16  19
ENDBRANCH   9  13
BRANCH   4  25
ATOM     25  C   UNL     1       7.085   4.705  15.542  0.00  0.00    +0.000 C 
ATOM     26  C   UNL     1       7.078   4.824  14.024  0.00  0.00    +0.000 C 
ENDBRANCH   4  25
BRANCH   1  27
ATOM     27  C   UNL     1       2.766   3.198  17.437  0.00  0.00    +0.000 C 
BRANCH  27  28
ATOM     28  C   UNL     1       3.149   2.308  18.623  0.00  0.00    +0.000 C 
BRANCH  28  29
ATOM     29  O   UNL     1       1.975   1.834  19.289  0.00  0.00    +0.000 OA
BRANCH  29  31
ATOM     30  C   UNL     1       1.408   2.825  21.387  0.00  0.00    +0.000 C 
ATOM     31  C   UNL     1       1.253   2.910  19.883  0.00  0.00    +0.000 C 
ENDBRANCH  29  31
ENDBRANCH  28  29
ENDBRANCH  27  28
ENDBRANCH   1  27
TORSDOF 7
ENDMDL
MODEL 2
REMARK VINA RESULT:      -8.0      0.314      1.278
REMARK  Name = 
REMARK  9 active torsions:
REMARK  status: ('A' for Active; 'I' for Inactive)
REMARK    1  A    between atoms: C_1  and  C_2
REMARK    2  A    between atoms: C_2  and  O_3
REMARK    3  A    between atoms: O_3  and  C_4
REMARK    4  A    between atoms: C_4  and  C_5
REMARK    5  A    between atoms: C_5  and  N_6
REMARK    6  A    between atoms: N_9  and  C_10
REMARK    7  A    between atoms: C_10  and  C_11
REMARK    8  A    between atoms: C_16  and  C_17
REMARK    9  A    between atoms: C_20  and  C_21
REMARK                            x       y       z     vdW  Elec       q    Type
REMARK                         _______ _______ _______ _____ _____    ______ ____
ROOT
ATOM      1  N   UNL     1       3.694   4.281  17.201  0.00  0.00    +0.000 N 
ATOM      2  C   UNL     1       4.861   3.994  16.477  0.00  0.00    +0.000 A 
ATOM      3  O   UNL     1       5.114   2.857  16.070  0.00  0.00    +0.000 OA
ATOM      4  N   UNL     1       5.771   5.057  16.267  0.00  0.00    +0.000 N 
ATOM      5  C   UNL     1       5.572   6.378  16.686  0.00  0.00    +0.000 A 
ATOM      6  O   UNL     1       6.362   7.298  16.504  0.00  0.00    +0.000 OA
ATOM      7  C   UNL     1       4.364   6.557  17.392  0.00  0.00    +0.000 A 
ATOM      8  N   UNL     1       3.830   7.671  17.958  0.00  0.00    +0.000 N 
ATOM      9  C   UNL     1       2.620   7.316  18.526  0.00  0.00    +0.000 A 
ATOM     10  N   UNL     1       2.420   6.012  18.387  0.00  0.00    +0.000 NA
ATOM     11  C   UNL     1       3.479   5.559  17.653  0.00  0.00    +0.000 A 
ATOM     12  H   UNL     1       4.246   8.592  17.962  0.00  0.00    +0.000 HD
ENDROOT
BRANCH   9  13
ATOM     13  C   UNL     1       1.729   8.274  19.175  0.00  0.00    +0.000 A 
ATOM     14  C   UNL     1       1.437   8.180  20.540  0.00  0.00    +0.000 A 
ATOM     15  C   UNL     1       0.593   9.113  21.153  0.00  0.00    +0.000 A 
ATOM     16  C   UNL     1       0.021  10.176  20.434  0.00  0.00    +0.000 A 
ATOM     17  C   UNL     1       0.322  10.256  19.063  0.00  0.00    +0.000 A 
ATOM     18  C   UNL     1       1.165   9.323  18.444  0.00  0.00    +0.000 A 
BRANCH  16  19
ATOM     19  C   UNL     1      -0.842  11.174  21.106  0.00  0.00    +0.000 A 
ATOM     20  C   UNL     1      -1.503  12.178  20.371  0.00  0.00    +0.000 A 
ATOM     21  C   UNL     1      -2.310  13.132  20.994  0.00  0.00    +0.000 A 
ATOM     22  C   UNL     1      -2.489  13.097  22.371  0.00  0.00    +0.000 A 
ATOM     23  C   UNL     1      -1.857  12.110  23.125  0.00  0.00    +0.000 A 
ATOM     24  C   UNL     1      -1.041  11.164  22.497  0.00  0.00    +0.000 A 
ENDBRANCH  16  19
ENDBRANCH   9  13
BRANCH   4  25
ATOM     25  C   UNL     1       7.062   4.748  15.656  0.00  0.00    +0.000 C 
ATOM     26  C   UNL     1       7.074   4.824  14.135  0.00  0.00    +0.000 C 
ENDBRANCH   4  25
BRANCH   1  27
ATOM     27  C   UNL     1       2.711   3.227  17.466  0.00  0.00    +0.000 C 
BRANCH  27  28
ATOM     28  C   UNL     1       2.765   2.690  18.900  0.00  0.00    +0.000 C 
BRANCH  28  29
ATOM     29  O   UNL     1       1.443   2.452  19.391  0.00  0.00    +0.000 OA
BRANCH  29  31
ATOM     30  C   UNL     1       2.260   2.929  21.584  0.00  0.00    +0.000 C 
ATOM     31  C   UNL     1       1.183   3.225  20.560  0.00  0.00    +0.000 C 
ENDBRANCH  29  31
ENDBRANCH  28  29
ENDBRANCH  27  28
ENDBRANCH   1  27
TORSDOF 7
ENDMDL
MODEL 3
REMARK VINA RESULT:      -8.0      1.713      4.088
REMARK  Name = 
REMARK  9 active torsions:
REMARK  status: ('A' for Active; 'I' for Inactive)
REMARK    1  A    between atoms: C_1  and  C_2
REMARK    2  A    between atoms: C_2  and  O_3
REMARK    3  A    between atoms: O_3  and  C_4
REMARK    4  A    between atoms: C_4  and  C_5
REMARK    5  A    between atoms: C_5  and  N_6
REMARK    6  A    between atoms: N_9  and  C_10
REMARK    7  A    between atoms: C_10  and  C_11
REMARK    8  A    between atoms: C_16  and  C_17
REMARK    9  A    between atoms: C_20  and  C_21
REMARK                            x       y       z     vdW  Elec       q    Type
REMARK                         _______ _______ _______ _____ _____    ______ ____
ROOT
ATOM      1  N   UNL     1       3.925   5.824  18.105  0.00  0.00    +0.000 N 
ATOM      2  C   UNL     1       4.347   4.488  18.177  0.00  0.00    +0.000 A 
ATOM      3  O   UNL     1       5.101   3.995  17.332  0.00  0.00    +0.000 OA
ATOM      4  N   UNL     1       3.837   3.704  19.238  0.00  0.00    +0.000 N 
ATOM      5  C   UNL     1       2.983   4.172  20.243  0.00  0.00    +0.000 A 
ATOM      6  O   UNL     1       2.541   3.491  21.162  0.00  0.00    +0.000 OA
ATOM      7  C   UNL     1       2.632   5.529  20.082  0.00  0.00    +0.000 A 
ATOM      8  N   UNL     1       1.829   6.329  20.832  0.00  0.00    +0.000 N 
ATOM      9  C   UNL     1       1.819   7.582  20.249  0.00  0.00    +0.000 A 
ATOM     10  N   UNL     1       2.535   7.567  19.131  0.00  0.00    +0.000 NA
ATOM     11  C   UNL     1       3.064   6.311  19.056  0.00  0.00    +0.000 A 
ATOM     12  H   UNL     1       1.330   6.051  21.665  0.00  0.00    +0.000 HD
ENDROOT
BRANCH   9  13
ATOM     13  C   UNL     1       1.108   8.724  20.818  0.00  0.00    +0.000 A 
ATOM     14  C   UNL     1       0.840   9.864  20.052  0.00  0.00    +0.000 A 
ATOM     15  C   UNL     1       0.145  10.945  20.604  0.00  0.00    +0.000 A 
ATOM     16  C   UNL     1      -0.317  10.925  21.931  0.00  0.00    +0.000 A 
ATOM     17  C   UNL     1      -0.040   9.774  22.688  0.00  0.00    +0.000 A 
ATOM     18  C   UNL     1       0.659   8.690  22.140  0.00  0.00    +0.000 A 
BRANCH  16  19
ATOM     19  C   UNL     1      -1.082  12.065  22.488  0.00  0.00    +0.000 A 
ATOM     20  C   UNL     1      -0.585  13.381  22.409  0.00  0.00    +0.000 A 
ATOM     21  C   UNL     1      -1.290  14.463  22.942  0.00  0.00    +0.000 A 
ATOM     22  C   UNL     1      -2.518  14.257  23.556  0.00  0.00    +0.000 A 
ATOM     23  C   UNL     1      -3.040  12.968  23.641  0.00  0.00    +0.000 A 
ATOM     24  C   UNL     1      -2.325  11.886  23.117  0.00  0.00    +0.000 A 
ENDBRANCH  16  19
ENDBRANCH   9  13
BRANCH   4  25
ATOM     25  C   UNL     1       4.136   2.274  19.243  0.00  0.00    +0.000 C 
ATOM     26  C   UNL     1       3.224   1.435  18.357  0.00  0.00    +0.000 C 
ENDBRANCH   4  25
BRANCH   1  27
ATOM     27  C   UNL     1       4.404   6.693  17.026  0.00  0.00    +0.000 C 
BRANCH  27  28
ATOM     28  C   UNL     1       5.916   6.603  16.797  0.00  0.00    +0.000 C 
BRANCH  28  29
ATOM     29  O   UNL     1       6.542   7.851  17.108  0.00  0.00    +0.000 OA
BRANCH  29  31
ATOM     30  C   UNL     1       7.741   6.364  18.541  0.00  0.00    +0.000 C 
ATOM     31  C   UNL     1       7.803   7.648  17.740  0.00  0.00    +0.000 C 
ENDBRANCH  29  31
ENDBRANCH  28  29
ENDBRANCH  27  28
ENDBRANCH   1  27
TORSDOF 7
ENDMDL
MODEL 4
REMARK VINA RESULT:      -8.0      1.567      4.121
REMARK  Name = 
REMARK  9 active torsions:
REMARK  status: ('A' for Active; 'I' for Inactive)
REMARK    1  A    between atoms: C_1  and  C_2
REMARK    2  A    between atoms: C_2  and  O_3
REMARK    3  A    between atoms: O_3  and  C_4
REMARK    4  A    between atoms: C_4  and  C_5
REMARK    5  A    between atoms: C_5  and  N_6
REMARK    6  A    between atoms: N_9  and  C_10
REMARK    7  A    between atoms: C_10  and  C_11
REMARK    8  A    between atoms: C_16  and  C_17
REMARK    9  A    between atoms: C_20  and  C_21
REMARK                            x       y       z     vdW  Elec       q    Type
REMARK                         _______ _______ _______ _____ _____    ______ ____
ROOT
ATOM      1  N   UNL     1       3.813   5.719  18.267  0.00  0.00    +0.000 N 
ATOM      2  C   UNL     1       4.228   4.383  18.371  0.00  0.00    +0.000 A 
ATOM      3  O   UNL     1       4.974   3.864  17.536  0.00  0.00    +0.000 OA
ATOM      4  N   UNL     1       3.718   3.628  19.454  0.00  0.00    +0.000 N 
ATOM      5  C   UNL     1       2.872   4.127  20.450  0.00  0.00    +0.000 A 
ATOM      6  O   UNL     1       2.430   3.473  21.388  0.00  0.00    +0.000 OA
ATOM      7  C   UNL     1       2.528   5.482  20.256  0.00  0.00    +0.000 A 
ATOM      8  N   UNL     1       1.734   6.305  20.990  0.00  0.00    +0.000 N 
ATOM      9  C   UNL     1       1.728   7.543  20.375  0.00  0.00    +0.000 A 
ATOM     10  N   UNL     1       2.438   7.496  19.255  0.00  0.00    +0.000 NA
ATOM     11  C   UNL     1       2.960   6.234  19.210  0.00  0.00    +0.000 A 
ATOM     12  H   UNL     1       1.237   6.052  21.833  0.00  0.00    +0.000 HD
ENDROOT
BRANCH   9  13
ATOM     13  C   UNL     1       1.026   8.703  20.918  0.00  0.00    +0.000 A 
ATOM     14  C   UNL     1       0.700   9.796  20.107  0.00  0.00    +0.000 A 
ATOM     15  C   UNL     1       0.015  10.895  20.636  0.00  0.00    +0.000 A 
ATOM     16  C   UNL     1      -0.380  10.940  21.984  0.00  0.00    +0.000 A 
ATOM     17  C   UNL     1      -0.044   9.836  22.786  0.00  0.00    +0.000 A 
ATOM     18  C   UNL     1       0.646   8.734  22.262  0.00  0.00    +0.000 A 
BRANCH  16  19
ATOM     19  C   UNL     1      -1.135  12.097  22.519  0.00  0.00    +0.000 A 
ATOM     20  C   UNL     1      -0.617  13.404  22.435  0.00  0.00    +0.000 A 
ATOM     21  C   UNL     1      -1.313  14.502  22.946  0.00  0.00    +0.000 A 
ATOM     22  C   UNL     1      -2.554  14.321  23.542  0.00  0.00    +0.000 A 
ATOM     23  C   UNL     1      -3.097  13.041  23.631  0.00  0.00    +0.000 A 
ATOM     24  C   UNL     1      -2.391  11.943  23.128  0.00  0.00    +0.000 A 
ENDBRANCH  16  19
ENDBRANCH   9  13
BRANCH   4  25
ATOM     25  C   UNL     1       4.009   2.197  19.494  0.00  0.00    +0.000 C 
ATOM     26  C   UNL     1       3.198   1.360  18.513  0.00  0.00    +0.000 C 
ENDBRANCH   4  25
BRANCH   1  27
ATOM     27  C   UNL     1       4.292   6.557  17.164  0.00  0.00    +0.000 C 
BRANCH  27  28
ATOM     28  C   UNL     1       5.777   6.918  17.273  0.00  0.00    +0.000 C 
BRANCH  28  29
ATOM     29  O   UNL     1       6.460   6.585  16.061  0.00  0.00    +0.000 OA
BRANCH  29  31
ATOM     30  C   UNL     1       6.461   4.848  14.422  0.00  0.00    +0.000 C 
ATOM     31  C   UNL     1       5.614   5.846  15.183  0.00  0.00    +0.000 C 
ENDBRANCH  29  31
ENDBRANCH  28  29
ENDBRANCH  27  28
ENDBRANCH   1  27
TORSDOF 7
ENDMDL
MODEL 5
REMARK VINA RESULT:      -7.9      1.587      4.188
REMARK  Name = 
REMARK  9 active torsions:
REMARK  status: ('A' for Active; 'I' for Inactive)
REMARK    1  A    between atoms: C_1  and  C_2
REMARK    2  A    between atoms: C_2  and  O_3
REMARK    3  A    between atoms: O_3  and  C_4
REMARK    4  A    between atoms: C_4  and  C_5
REMARK    5  A    between atoms: C_5  and  N_6
REMARK    6  A    between atoms: N_9  and  C_10
REMARK    7  A    between atoms: C_10  and  C_11
REMARK    8  A    between atoms: C_16  and  C_17
REMARK    9  A    between atoms: C_20  and  C_21
REMARK                            x       y       z     vdW  Elec       q    Type
REMARK                         _______ _______ _______ _____ _____    ______ ____
ROOT
ATOM      1  N   UNL     1       3.795   5.737  18.316  0.00  0.00    +0.000 N 
ATOM      2  C   UNL     1       4.230   4.408  18.429  0.00  0.00    +0.000 A 
ATOM      3  O   UNL     1       4.992   3.898  17.603  0.00  0.00    +0.000 OA
ATOM      4  N   UNL     1       3.723   3.650  19.511  0.00  0.00    +0.000 N 
ATOM      5  C   UNL     1       2.860   4.139  20.498  0.00  0.00    +0.000 A 
ATOM      6  O   UNL     1       2.421   3.480  21.434  0.00  0.00    +0.000 OA
ATOM      7  C   UNL     1       2.496   5.486  20.296  0.00  0.00    +0.000 A 
ATOM      8  N   UNL     1       1.682   6.299  21.019  0.00  0.00    +0.000 N 
ATOM      9  C   UNL     1       1.662   7.535  20.399  0.00  0.00    +0.000 A 
ATOM     10  N   UNL     1       2.382   7.495  19.286  0.00  0.00    +0.000 NA
ATOM     11  C   UNL     1       2.925   6.242  19.250  0.00  0.00    +0.000 A 
ATOM     12  H   UNL     1       1.182   6.041  21.858  0.00  0.00    +0.000 HD
ENDROOT
BRANCH   9  13
ATOM     13  C   UNL     1       0.937   8.686  20.932  0.00  0.00    +0.000 A 
ATOM     14  C   UNL     1       0.430   8.681  22.236  0.00  0.00    +0.000 A 
ATOM     15  C   UNL     1      -0.250   9.795  22.739  0.00  0.00    +0.000 A 
ATOM     16  C   UNL     1      -0.439  10.955  21.968  0.00  0.00    +0.000 A 
ATOM     17  C   UNL     1       0.074  10.944  20.660  0.00  0.00    +0.000 A 
ATOM     18  C   UNL     1       0.753   9.829  20.150  0.00  0.00    +0.000 A 
BRANCH  16  19
ATOM     19  C   UNL     1      -1.132  12.138  22.529  0.00  0.00    +0.000 A 
ATOM     20  C   UNL     1      -2.398  12.018  23.137  0.00  0.00    +0.000 A 
ATOM     21  C   UNL     1      -3.067  13.128  23.659  0.00  0.00    +0.000 A 
ATOM     22  C   UNL     1      -2.480  14.385  23.599  0.00  0.00    +0.000 A 
ATOM     23  C   UNL     1      -1.225  14.533  23.012  0.00  0.00    +0.000 A 
ATOM     24  C   UNL     1      -0.563  13.421  22.481  0.00  0.00    +0.000 A 
ENDBRANCH  16  19
ENDBRANCH   9  13
BRANCH   4  25
ATOM     25  C   UNL     1       4.037   2.224  19.559  0.00  0.00    +0.000 C 
ATOM     26  C   UNL     1       3.286   1.377  18.538  0.00  0.00    +0.000 C 
ENDBRANCH   4  25
BRANCH   1  27
ATOM     27  C   UNL     1       4.269   6.579  17.215  0.00  0.00    +0.000 C 
BRANCH  27  28
ATOM     28  C   UNL     1       5.751   6.953  17.329  0.00  0.00    +0.000 C 
BRANCH  28  29
ATOM     29  O   UNL     1       6.479   6.449  16.206  0.00  0.00    +0.000 OA
BRANCH  29  31
ATOM     30  C   UNL     1       6.293   4.816  14.473  0.00  0.00    +0.000 C 
ATOM     31  C   UNL     1       5.596   5.942  15.209  0.00  0.00    +0.000 C 
ENDBRANCH  29  31
ENDBRANCH  28  29
ENDBRANCH  27  28
ENDBRANCH   1  27
TORSDOF 7
ENDMDL
MODEL 6
REMARK VINA RESULT:      -7.9      1.802      4.412
REMARK  Name = 
REMARK  9 active torsions:
REMARK  status: ('A' for Active; 'I' for Inactive)
REMARK    1  A    between atoms: C_1  and  C_2
REMARK    2  A    between atoms: C_2  and  O_3
REMARK    3  A    between atoms: O_3  and  C_4
REMARK    4  A    between atoms: C_4  and  C_5
REMARK    5  A    between atoms: C_5  and  N_6
REMARK    6  A    between atoms: N_9  and  C_10
REMARK    7  A    between atoms: C_10  and  C_11
REMARK    8  A    between atoms: C_16  and  C_17
REMARK    9  A    between atoms: C_20  and  C_21
REMARK                            x       y       z     vdW  Elec       q    Type
REMARK                         _______ _______ _______ _____ _____    ______ ____
ROOT
ATOM      1  N   UNL     1       3.503   6.062  18.411  0.00  0.00    +0.000 N 
ATOM      2  C   UNL     1       3.983   4.747  18.493  0.00  0.00    +0.000 A 
ATOM      3  O   UNL     1       4.728   4.268  17.633  0.00  0.00    +0.000 OA
ATOM      4  N   UNL     1       3.542   3.963  19.586  0.00  0.00    +0.000 N 
ATOM      5  C   UNL     1       2.703   4.416  20.610  0.00  0.00    +0.000 A 
ATOM      6  O   UNL     1       2.322   3.736  21.556  0.00  0.00    +0.000 OA
ATOM      7  C   UNL     1       2.291   5.753  20.436  0.00  0.00    +0.000 A 
ATOM      8  N   UNL     1       1.481   6.534  21.199  0.00  0.00    +0.000 N 
ATOM      9  C   UNL     1       1.399   7.774  20.593  0.00  0.00    +0.000 A 
ATOM     10  N   UNL     1       2.076   7.767  19.452  0.00  0.00    +0.000 NA
ATOM     11  C   UNL     1       2.655   6.532  19.383  0.00  0.00    +0.000 A 
ATOM     12  H   UNL     1       1.022   6.253  22.054  0.00  0.00    +0.000 HD
ENDROOT
BRANCH   9  13
ATOM     13  C   UNL     1       0.660   8.897  21.165  0.00  0.00    +0.000 A 
ATOM     14  C   UNL     1       0.183   8.854  22.480  0.00  0.00    +0.000 A 
ATOM     15  C   UNL     1      -0.511   9.942  23.021  0.00  0.00    +0.000 A 
ATOM     16  C   UNL     1      -0.744  11.112  22.278  0.00  0.00    +0.000 A 
ATOM     17  C   UNL     1      -0.261  11.139  20.959  0.00  0.00    +0.000 A 
ATOM     18  C   UNL     1       0.432  10.051  20.411  0.00  0.00    +0.000 A 
BRANCH  16  19
ATOM     19  C   UNL     1      -1.451  12.267  22.879  0.00  0.00    +0.000 A 
ATOM     20  C   UNL     1      -0.824  13.524  22.992  0.00  0.00    +0.000 A 
ATOM     21  C   UNL     1      -1.475  14.618  23.568  0.00  0.00    +0.000 A 
ATOM     22  C   UNL     1      -2.778  14.485  24.031  0.00  0.00    +0.000 A 
ATOM     23  C   UNL     1      -3.427  13.257  23.924  0.00  0.00    +0.000 A 
ATOM     24  C   UNL     1      -2.767  12.162  23.358  0.00  0.00    +0.000 A 
ENDBRANCH  16  19
ENDBRANCH   9  13
BRANCH   4  25
ATOM     25  C   UNL     1       3.901   2.547  19.607  0.00  0.00    +0.000 C 
ATOM     26  C   UNL     1       3.039   1.664  18.713  0.00  0.00    +0.000 C 
ENDBRANCH   4  25
BRANCH   1  27
ATOM     27  C   UNL     1       3.909   6.929  17.301  0.00  0.00    +0.000 C 
BRANCH  27  28
ATOM     28  C   UNL     1       5.334   7.473  17.441  0.00  0.00    +0.000 C 
BRANCH  28  29
ATOM     29  O   UNL     1       6.200   6.849  16.489  0.00  0.00    +0.000 OA
BRANCH  29  31
ATOM     30  C   UNL     1       7.863   7.885  17.854  0.00  0.00    +0.000 C 
ATOM     31  C   UNL     1       7.507   6.667  17.027  0.00  0.00    +0.000 C 
ENDBRANCH  29  31
ENDBRANCH  28  29
ENDBRANCH  27  28
ENDBRANCH   1  27
TORSDOF 7
ENDMDL
MODEL 7
REMARK VINA RESULT:      -7.9      4.706      9.880
REMARK  Name = 
REMARK  9 active torsions:
REMARK  status: ('A' for Active; 'I' for Inactive)
REMARK    1  A    between atoms: C_1  and  C_2
REMARK    2  A    between atoms: C_2  and  O_3
REMARK    3  A    between atoms: O_3  and  C_4
REMARK    4  A    between atoms: C_4  and  C_5
REMARK    5  A    between atoms: C_5  and  N_6
REMARK    6  A    between atoms: N_9  and  C_10
REMARK    7  A    between atoms: C_10  and  C_11
REMARK    8  A    between atoms: C_16  and  C_17
REMARK    9  A    between atoms: C_20  and  C_21
REMARK                            x       y       z     vdW  Elec       q    Type
REMARK                         _______ _______ _______ _____ _____    ______ ____
ROOT
ATOM      1  N   UNL     1      -2.070  11.856  19.738  0.00  0.00    +0.000 N 
ATOM      2  C   UNL     1      -2.676  12.466  20.847  0.00  0.00    +0.000 A 
ATOM      3  O   UNL     1      -3.639  13.229  20.728  0.00  0.00    +0.000 OA
ATOM      4  N   UNL     1      -2.109  12.209  22.118  0.00  0.00    +0.000 N 
ATOM      5  C   UNL     1      -1.022  11.359  22.354  0.00  0.00    +0.000 A 
ATOM      6  O   UNL     1      -0.531  11.138  23.456  0.00  0.00    +0.000 OA
ATOM      7  C   UNL     1      -0.499  10.790  21.174  0.00  0.00    +0.000 A 
ATOM      8  N   UNL     1       0.543   9.937  20.992  0.00  0.00    +0.000 N 
ATOM      9  C   UNL     1       0.642   9.675  19.638  0.00  0.00    +0.000 A 
ATOM     10  N   UNL     1      -0.260  10.385  18.973  0.00  0.00    +0.000 NA
ATOM     11  C   UNL     1      -0.984  11.039  19.929  0.00  0.00    +0.000 A 
ATOM     12  H   UNL     1       1.137   9.564  21.720  0.00  0.00    +0.000 HD
ENDROOT
BRANCH   9  13
ATOM     13  C   UNL     1       1.615   8.745  19.072  0.00  0.00    +0.000 A 
ATOM     14  C   UNL     1       1.973   7.572  19.746  0.00  0.00    +0.000 A 
ATOM     15  C   UNL     1       2.896   6.683  19.187  0.00  0.00    +0.000 A 
ATOM     16  C   UNL     1       3.484   6.921  17.933  0.00  0.00    +0.000 A 
ATOM     17  C   UNL     1       3.117   8.103  17.268  0.00  0.00    +0.000 A 
ATOM     18  C   UNL     1       2.195   9.000  17.826  0.00  0.00    +0.000 A 
BRANCH  16  19
ATOM     19  C   UNL     1       4.433   5.951  17.340  0.00  0.00    +0.000 A 
ATOM     20  C   UNL     1       4.077   4.599  17.165  0.00  0.00    +0.000 A 
ATOM     21  C   UNL     1       4.967   3.671  16.619  0.00  0.00    +0.000 A 
ATOM     22  C   UNL     1       6.234   4.077  16.219  0.00  0.00    +0.000 A 
ATOM     23  C   UNL     1       6.612   5.409  16.371  0.00  0.00    +0.000 A 
ATOM     24  C   UNL     1       5.722   6.331  16.930  0.00  0.00    +0.000 A 
ENDBRANCH  16  19
ENDBRANCH   9  13
BRANCH   4  25
ATOM     25  C   UNL     1      -2.622  12.955  23.265  0.00  0.00    +0.000 C 
ATOM     26  C   UNL     1      -3.774  12.276  23.995  0.00  0.00    +0.000 C 
ENDBRANCH   4  25
BRANCH   1  27
ATOM     27  C   UNL     1      -2.596  12.086  18.390  0.00  0.00    +0.000 C 
BRANCH  27  28
ATOM     28  C   UNL     1      -3.639  11.049  17.959  0.00  0.00    +0.000 C 
BRANCH  28  29
ATOM     29  O   UNL     1      -3.931  11.189  16.565  0.00  0.00    +0.000 OA
BRANCH  29  31
ATOM     30  C   UNL     1      -3.261  10.145  14.524  0.00  0.00    +0.000 C 
ATOM     31  C   UNL     1      -2.793  10.869  15.769  0.00  0.00    +0.000 C 
ENDBRANCH  29  31
ENDBRANCH  28  29
ENDBRANCH  27  28
ENDBRANCH   1  27
TORSDOF 7
ENDMDL
MODEL 8
REMARK VINA RESULT:      -7.8      4.678      9.743
REMARK  Name = 
REMARK  9 active torsions:
REMARK  status: ('A' for Active; 'I' for Inactive)
REMARK    1  A    between atoms: C_1  and  C_2
REMARK    2  A    between atoms: C_2  and  O_3
REMARK    3  A    between atoms: O_3  and  C_4
REMARK    4  A    between atoms: C_4  and  C_5
REMARK    5  A    between atoms: C_5  and  N_6
REMARK    6  A    between atoms: N_9  and  C_10
REMARK    7  A    between atoms: C_10  and  C_11
REMARK    8  A    between atoms: C_16  and  C_17
REMARK    9  A    between atoms: C_20  and  C_21
REMARK                            x       y       z     vdW  Elec       q    Type
REMARK                         _______ _______ _______ _____ _____    ______ ____
ROOT
ATOM      1  N   UNL     1      -2.293  11.812  19.516  0.00  0.00    +0.000 N 
ATOM      2  C   UNL     1      -2.896  12.499  20.582  0.00  0.00    +0.000 A 
ATOM      3  O   UNL     1      -3.904  13.194  20.424  0.00  0.00    +0.000 OA
ATOM      4  N   UNL     1      -2.273  12.403  21.849  0.00  0.00    +0.000 N 
ATOM      5  C   UNL     1      -1.133  11.640  22.127  0.00  0.00    +0.000 A 
ATOM      6  O   UNL     1      -0.595  11.558  23.225  0.00  0.00    +0.000 OA
ATOM      7  C   UNL     1      -0.618  10.983  20.990  0.00  0.00    +0.000 A 
ATOM      8  N   UNL     1       0.464  10.171  20.854  0.00  0.00    +0.000 N 
ATOM      9  C   UNL     1       0.532   9.779  19.530  0.00  0.00    +0.000 A 
ATOM     10  N   UNL     1      -0.429  10.369  18.832  0.00  0.00    +0.000 NA
ATOM     11  C   UNL     1      -1.157  11.077  19.745  0.00  0.00    +0.000 A 
ATOM     12  H   UNL     1       1.102   9.906  21.592  0.00  0.00    +0.000 HD
ENDROOT
BRANCH   9  13
ATOM     13  C   UNL     1       1.537   8.849  19.022  0.00  0.00    +0.000 A 
ATOM     14  C   UNL     1       2.157   9.058  17.785  0.00  0.00    +0.000 A 
ATOM     15  C   UNL     1       3.129   8.168  17.316  0.00  0.00    +0.000 A 
ATOM     16  C   UNL     1       3.526   7.047  18.065  0.00  0.00    +0.000 A 
ATOM     17  C   UNL     1       2.894   6.849  19.304  0.00  0.00    +0.000 A 
ATOM     18  C   UNL     1       1.918   7.736  19.777  0.00  0.00    +0.000 A 
BRANCH  16  19
ATOM     19  C   UNL     1       4.581   6.134  17.568  0.00  0.00    +0.000 A 
ATOM     20  C   UNL     1       5.273   5.276  18.446  0.00  0.00    +0.000 A 
ATOM     21  C   UNL     1       6.278   4.419  17.992  0.00  0.00    +0.000 A 
ATOM     22  C   UNL     1       6.608   4.388  16.643  0.00  0.00    +0.000 A 
ATOM     23  C   UNL     1       5.935   5.218  15.749  0.00  0.00    +0.000 A 
ATOM     24  C   UNL     1       4.937   6.083  16.210  0.00  0.00    +0.000 A 
ENDBRANCH  16  19
ENDBRANCH   9  13
BRANCH   4  25
ATOM     25  C   UNL     1      -2.790  13.233  22.934  0.00  0.00    +0.000 C 
ATOM     26  C   UNL     1      -3.774  12.526  23.857  0.00  0.00    +0.000 C 
ENDBRANCH   4  25
BRANCH   1  27
ATOM     27  C   UNL     1      -2.876  11.875  18.174  0.00  0.00    +0.000 C 
BRANCH  27  28
ATOM     28  C   UNL     1      -3.856  10.735  17.880  0.00  0.00    +0.000 C 
BRANCH  28  29
ATOM     29  O   UNL     1      -3.255   9.775  17.006  0.00  0.00    +0.000 OA
BRANCH  29  31
ATOM     30  C   UNL     1      -3.404  10.204  14.661  0.00  0.00    +0.000 C 
ATOM     31  C   UNL     1      -2.591  10.418  15.920  0.00  0.00    +0.000 C 
ENDBRANCH  29  31
ENDBRANCH  28  29
ENDBRANCH  27  28
ENDBRANCH   1  27
TORSDOF 7
ENDMDL
MODEL 9
REMARK VINA RESULT:      -7.8      1.761      4.151
REMARK  Name = 
REMARK  9 active torsions:
REMARK  status: ('A' for Active; 'I' for Inactive)
REMARK    1  A    between atoms: C_1  and  C_2
REMARK    2  A    between atoms: C_2  and  O_3
REMARK    3  A    between atoms: O_3  and  C_4
REMARK    4  A    between atoms: C_4  and  C_5
REMARK    5  A    between atoms: C_5  and  N_6
REMARK    6  A    between atoms: N_9  and  C_10
REMARK    7  A    between atoms: C_10  and  C_11
REMARK    8  A    between atoms: C_16  and  C_17
REMARK    9  A    between atoms: C_20  and  C_21
REMARK                            x       y       z     vdW  Elec       q    Type
REMARK                         _______ _______ _______ _____ _____    ______ ____
ROOT
ATOM      1  N   UNL     1       3.849   5.788  18.102  0.00  0.00    +0.000 N 
ATOM      2  C   UNL     1       4.308   4.465  18.187  0.00  0.00    +0.000 A 
ATOM      3  O   UNL     1       5.067   3.981  17.342  0.00  0.00    +0.000 OA
ATOM      4  N   UNL     1       3.829   3.681  19.264  0.00  0.00    +0.000 N 
ATOM      5  C   UNL     1       2.972   4.140  20.271  0.00  0.00    +0.000 A 
ATOM      6  O   UNL     1       2.558   3.460  21.203  0.00  0.00    +0.000 OA
ATOM      7  C   UNL     1       2.583   5.485  20.095  0.00  0.00    +0.000 A 
ATOM      8  N   UNL     1       1.766   6.273  20.842  0.00  0.00    +0.000 N 
ATOM      9  C   UNL     1       1.717   7.517  20.243  0.00  0.00    +0.000 A 
ATOM     10  N   UNL     1       2.422   7.507  19.119  0.00  0.00    +0.000 NA
ATOM     11  C   UNL     1       2.985   6.264  19.055  0.00  0.00    +0.000 A 
ATOM     12  H   UNL     1       1.282   5.993  21.684  0.00  0.00    +0.000 HD
ENDROOT
BRANCH   9  13
ATOM     13  C   UNL     1       0.981   8.647  20.803  0.00  0.00    +0.000 A 
ATOM     14  C   UNL     1       0.505   8.619  22.119  0.00  0.00    +0.000 A 
ATOM     15  C   UNL     1      -0.187   9.714  22.648  0.00  0.00    +0.000 A 
ATOM     16  C   UNL     1      -0.418  10.876  21.894  0.00  0.00    +0.000 A 
ATOM     17  C   UNL     1       0.064  10.889  20.574  0.00  0.00    +0.000 A 
ATOM     18  C   UNL     1       0.755   9.794  20.037  0.00  0.00    +0.000 A 
BRANCH  16  19
ATOM     19  C   UNL     1      -1.122  12.039  22.483  0.00  0.00    +0.000 A 
ATOM     20  C   UNL     1      -2.356  11.883  23.145  0.00  0.00    +0.000 A 
ATOM     21  C   UNL     1      -3.037  12.972  23.693  0.00  0.00    +0.000 A 
ATOM     22  C   UNL     1      -2.491  14.247  23.606  0.00  0.00    +0.000 A 
ATOM     23  C   UNL     1      -1.268  14.432  22.966  0.00  0.00    +0.000 A 
ATOM     24  C   UNL     1      -0.596  13.340  22.408  0.00  0.00    +0.000 A 
ENDBRANCH  16  19
ENDBRANCH   9  13
BRANCH   4  25
ATOM     25  C   UNL     1       4.167   2.260  19.285  0.00  0.00    +0.000 C 
ATOM     26  C   UNL     1       3.252   1.381  18.442  0.00  0.00    +0.000 C 
ENDBRANCH   4  25
BRANCH   1  27
ATOM     27  C   UNL     1       4.294   6.655  17.007  0.00  0.00    +0.000 C 
BRANCH  27  28
ATOM     28  C   UNL     1       5.471   7.559  17.386  0.00  0.00    +0.000 C 
BRANCH  28  29
ATOM     29  O   UNL     1       6.671   7.107  16.751  0.00  0.00    +0.000 OA
BRANCH  29  31
ATOM     30  C   UNL     1       8.210   7.252  18.572  0.00  0.00    +0.000 C 
ATOM     31  C   UNL     1       7.457   6.322  17.643  0.00  0.00    +0.000 C 
ENDBRANCH  29  31
ENDBRANCH  28  29
ENDBRANCH  27  28
ENDBRANCH   1  27
TORSDOF 7
ENDMDL
