MODEL 1
REMARK VINA RESULT:      -8.3      0.000      0.000
REMARK  Name = 
REMARK  4 active torsions:
REMARK  status: ('A' for Active; 'I' for Inactive)
REMARK    1  A    between atoms: C_2  and  C_9
REMARK    2  A    between atoms: C_11  and  C_12
REMARK    3  A    between atoms: C_15  and  O_16
REMARK    4  A    between atoms: O_16  and  C_17
REMARK                            x       y       z     vdW  Elec       q    Type
REMARK                         _______ _______ _______ _____ _____    ______ ____
ROOT
ATOM      1  C   UNL     1       4.710   5.522  17.277  0.00  0.00    +0.000 A 
ATOM      2  C   UNL     1       3.878   6.611  17.524  0.00  0.00    +0.000 A 
ATOM      3  C   UNL     1       3.089   6.638  18.676  0.00  0.00    +0.000 A 
ATOM      4  C   UNL     1       3.200   5.540  19.539  0.00  0.00    +0.000 A 
ATOM      5  C   UNL     1       4.054   4.489  19.211  0.00  0.00    +0.000 A 
ATOM      6  N   UNL     1       4.806   4.440  18.090  0.00  0.00    +0.000 NA
ENDROOT
BRANCH   1   8
ATOM      7  O   UNL     1       6.285   6.560  15.901  0.00  0.00    +0.000 OA
ATOM      8  C   UNL     1       5.574   5.572  16.063  0.00  0.00    +0.000 C 
ATOM      9  N   UNL     1       5.458   4.499  15.211  0.00  0.00    +0.000 N 
ATOM     10  C   UNL     1       6.202   4.417  14.073  0.00  0.00    +0.000 A 
ATOM     11  N   UNL     1       6.026   3.583  13.068  0.00  0.00    +0.000 NA
ATOM     12  C   UNL     1       7.012   3.937  12.174  0.00  0.00    +0.000 A 
ATOM     13  C   UNL     1       7.785   4.938  12.699  0.00  0.00    +0.000 A 
ATOM     14  O   UNL     1       7.273   5.256  13.913  0.00  0.00    +0.000 OA
ATOM     15  H   UNL     1       4.748   3.801  15.371  0.00  0.00    +0.000 HD
ENDBRANCH   1   8
BRANCH   3  16
ATOM     16  C   UNL     1       2.213   7.795  18.956  0.00  0.00    +0.000 A 
ATOM     17  C   UNL     1       1.935   8.758  17.970  0.00  0.00    +0.000 A 
ATOM     18  C   UNL     1       1.135   9.872  18.244  0.00  0.00    +0.000 A 
ATOM     19  C   UNL     1       0.568  10.046  19.504  0.00  0.00    +0.000 A 
ATOM     20  C   UNL     1       0.861   9.126  20.507  0.00  0.00    +0.000 A 
ATOM     21  C   UNL     1       1.661   8.007  20.229  0.00  0.00    +0.000 A 
BRANCH  19  22
ATOM     22  O   UNL     1      -0.186  11.169  19.642  0.00  0.00    +0.000 OA
BRANCH  22  23
ATOM     23  C   UNL     1      -1.470  11.229  19.039  0.00  0.00    +0.000 C 
ATOM     24  F   UNL     1      -2.419  11.810  19.802  0.00  0.00    +0.000 F 
ATOM     25  F   UNL     1      -1.382  11.899  17.871  0.00  0.00    +0.000 F 
ATOM     26  F   UNL     1      -1.876   9.966  18.770  0.00  0.00    +0.000 F 
ENDBRANCH  22  23
ENDBRANCH  19  22
ENDBRANCH   3  16
TORSDOF 4
ENDMDL
MODEL 2
REMARK VINA RESULT:      -8.3      0.115      1.237
REMARK  Name = 
REMARK  4 active torsions:
REMARK  status: ('A' for Active; 'I' for Inactive)
REMARK    1  A    between atoms: C_2  and  C_9
REMARK    2  A    between atoms: C_11  and  C_12
REMARK    3  A    between atoms: C_15  and  O_16
REMARK    4  A    between atoms: O_16  and  C_17
REMARK                            x       y       z     vdW  Elec       q    Type
REMARK                         _______ _______ _______ _____ _____    ______ ____
ROOT
ATOM      1  C   UNL     1       4.704   5.545  17.282  0.00  0.00    +0.000 A 
ATOM      2  C   UNL     1       3.877   6.640  17.520  0.00  0.00    +0.000 A 
ATOM      3  C   UNL     1       3.091   6.681  18.673  0.00  0.00    +0.000 A 
ATOM      4  C   UNL     1       3.198   5.592  19.547  0.00  0.00    +0.000 A 
ATOM      5  C   UNL     1       4.048   4.534  19.228  0.00  0.00    +0.000 A 
ATOM      6  N   UNL     1       4.797   4.471  18.106  0.00  0.00    +0.000 NA
ENDROOT
BRANCH   1   8
ATOM      7  O   UNL     1       6.290   6.558  15.900  0.00  0.00    +0.000 OA
ATOM      8  C   UNL     1       5.566   5.579  16.067  0.00  0.00    +0.000 C 
ATOM      9  N   UNL     1       5.435   4.505  15.219  0.00  0.00    +0.000 N 
ATOM     10  C   UNL     1       6.176   4.409  14.080  0.00  0.00    +0.000 A 
ATOM     11  N   UNL     1       5.988   3.574  13.079  0.00  0.00    +0.000 NA
ATOM     12  C   UNL     1       6.976   3.911  12.181  0.00  0.00    +0.000 A 
ATOM     13  C   UNL     1       7.763   4.905  12.701  0.00  0.00    +0.000 A 
ATOM     14  O   UNL     1       7.257   5.234  13.914  0.00  0.00    +0.000 OA
ATOM     15  H   UNL     1       4.717   3.816  15.384  0.00  0.00    +0.000 HD
ENDBRANCH   1   8
BRANCH   3  16
ATOM     16  C   UNL     1       2.219   7.845  18.943  0.00  0.00    +0.000 A 
ATOM     17  C   UNL     1       1.650   8.053  20.213  0.00  0.00    +0.000 A 
ATOM     18  C   UNL     1       0.797   9.133  20.460  0.00  0.00    +0.000 A 
ATOM     19  C   UNL     1       0.505  10.052  19.455  0.00  0.00    +0.000 A 
ATOM     20  C   UNL     1       1.025   9.844  18.181  0.00  0.00    +0.000 A 
ATOM     21  C   UNL     1       1.884   8.761  17.935  0.00  0.00    +0.000 A 
BRANCH  19  22
ATOM     22  O   UNL     1      -0.338  11.053  19.822  0.00  0.00    +0.000 OA
BRANCH  22  23
ATOM     23  C   UNL     1      -1.551  11.244  19.109  0.00  0.00    +0.000 C 
ATOM     24  F   UNL     1      -2.081  10.114  18.597  0.00  0.00    +0.000 F 
ATOM     25  F   UNL     1      -2.460  11.819  19.925  0.00  0.00    +0.000 F 
ATOM     26  F   UNL     1      -1.314  12.091  18.081  0.00  0.00    +0.000 F 
ENDBRANCH  22  23
ENDBRANCH  19  22
ENDBRANCH   3  16
TORSDOF 4
ENDMDL
MODEL 3
REMARK VINA RESULT:      -8.2      4.959      9.047
REMARK  Name = 
REMARK  4 active torsions:
REMARK  status: ('A' for Active; 'I' for Inactive)
REMARK    1  A    between atoms: C_2  and  C_9
REMARK    2  A    between atoms: C_11  and  C_12
REMARK    3  A    between atoms: C_15  and  O_16
REMARK    4  A    between atoms: O_16  and  C_17
REMARK                            x       y       z     vdW  Elec       q    Type
REMARK                         _______ _______ _______ _____ _____    ______ ____
ROOT
ATOM      1  C   UNL     1       2.251   6.667  19.868  0.00  0.00    +0.000 A 
ATOM      2  C   UNL     1       3.018   6.472  18.722  0.00  0.00    +0.000 A 
ATOM      3  C   UNL     1       3.586   5.222  18.468  0.00  0.00    +0.000 A 
ATOM      4  C   UNL     1       3.330   4.213  19.405  0.00  0.00    +0.000 A 
ATOM      5  C   UNL     1       2.556   4.496  20.529  0.00  0.00    +0.000 A 
ATOM      6  N   UNL     1       2.018   5.706  20.798  0.00  0.00    +0.000 NA
ENDROOT
BRANCH   1   8
ATOM      7  O   UNL     1       1.655   8.799  19.125  0.00  0.00    +0.000 OA
ATOM      8  C   UNL     1       1.619   8.003  20.060  0.00  0.00    +0.000 C 
ATOM      9  N   UNL     1       1.078   8.227  21.304  0.00  0.00    +0.000 N 
ATOM     10  C   UNL     1       0.460   9.403  21.605  0.00  0.00    +0.000 A 
ATOM     11  N   UNL     1       0.114   9.836  22.800  0.00  0.00    +0.000 NA
ATOM     12  C   UNL     1      -0.437  11.073  22.553  0.00  0.00    +0.000 A 
ATOM     13  C   UNL     1      -0.456  11.318  21.206  0.00  0.00    +0.000 A 
ATOM     14  O   UNL     1       0.120  10.257  20.589  0.00  0.00    +0.000 OA
ATOM     15  H   UNL     1       1.216   7.555  22.044  0.00  0.00    +0.000 HD
ENDBRANCH   1   8
BRANCH   3  16
ATOM     16  C   UNL     1       4.390   5.000  17.247  0.00  0.00    +0.000 A 
ATOM     17  C   UNL     1       4.834   3.715  16.888  0.00  0.00    +0.000 A 
ATOM     18  C   UNL     1       5.625   3.508  15.753  0.00  0.00    +0.000 A 
ATOM     19  C   UNL     1       5.976   4.574  14.929  0.00  0.00    +0.000 A 
ATOM     20  C   UNL     1       5.581   5.860  15.286  0.00  0.00    +0.000 A 
ATOM     21  C   UNL     1       4.785   6.065  16.423  0.00  0.00    +0.000 A 
BRANCH  19  22
ATOM     22  O   UNL     1       6.748   4.241  13.860  0.00  0.00    +0.000 OA
BRANCH  22  23
ATOM     23  C   UNL     1       6.136   3.724  12.688  0.00  0.00    +0.000 C 
ATOM     24  F   UNL     1       4.802   3.921  12.621  0.00  0.00    +0.000 F 
ATOM     25  F   UNL     1       6.712   4.282  11.602  0.00  0.00    +0.000 F 
ATOM     26  F   UNL     1       6.357   2.390  12.643  0.00  0.00    +0.000 F 
ENDBRANCH  22  23
ENDBRANCH  19  22
ENDBRANCH   3  16
TORSDOF 4
ENDMDL
MODEL 4
REMARK VINA RESULT:      -8.1      5.039      8.992
REMARK  Name = 
REMARK  4 active torsions:
REMARK  status: ('A' for Active; 'I' for Inactive)
REMARK    1  A    between atoms: C_2  and  C_9
REMARK    2  A    between atoms: C_11  and  C_12
REMARK    3  A    between atoms: C_15  and  O_16
REMARK    4  A    between atoms: O_16  and  C_17
REMARK                            x       y       z     vdW  Elec       q    Type
REMARK                         _______ _______ _______ _____ _____    ______ ____
ROOT
ATOM      1  C   UNL     1       2.281   7.748  18.868  0.00  0.00    +0.000 A 
ATOM      2  C   UNL     1       3.042   7.215  17.831  0.00  0.00    +0.000 A 
ATOM      3  C   UNL     1       3.616   5.950  17.967  0.00  0.00    +0.000 A 
ATOM      4  C   UNL     1       3.371   5.274  19.169  0.00  0.00    +0.000 A 
ATOM      5  C   UNL     1       2.602   5.885  20.158  0.00  0.00    +0.000 A 
ATOM      6  N   UNL     1       2.058   7.117  20.048  0.00  0.00    +0.000 NA
ENDROOT
BRANCH   1   8
ATOM      7  O   UNL     1       1.860   9.653  17.584  0.00  0.00    +0.000 OA
ATOM      8  C   UNL     1       1.641   9.076  18.647  0.00  0.00    +0.000 C 
ATOM      9  N   UNL     1       0.883   9.549  19.692  0.00  0.00    +0.000 N 
ATOM     10  C   UNL     1       0.236  10.744  19.612  0.00  0.00    +0.000 A 
ATOM     11  N   UNL     1      -0.319  11.414  20.601  0.00  0.00    +0.000 NA
ATOM     12  C   UNL     1      -0.799  12.554  19.995  0.00  0.00    +0.000 A 
ATOM     13  C   UNL     1      -0.565  12.503  18.646  0.00  0.00    +0.000 A 
ATOM     14  O   UNL     1       0.100  11.350  18.390  0.00  0.00    +0.000 OA
ATOM     15  H   UNL     1       0.873   9.055  20.572  0.00  0.00    +0.000 HD
ENDBRANCH   1   8
BRANCH   3  16
ATOM     16  C   UNL     1       4.415   5.368  16.867  0.00  0.00    +0.000 A 
ATOM     17  C   UNL     1       4.574   3.977  16.735  0.00  0.00    +0.000 A 
ATOM     18  C   UNL     1       5.358   3.427  15.716  0.00  0.00    +0.000 A 
ATOM     19  C   UNL     1       5.988   4.247  14.784  0.00  0.00    +0.000 A 
ATOM     20  C   UNL     1       5.878   5.628  14.918  0.00  0.00    +0.000 A 
ATOM     21  C   UNL     1       5.088   6.178  15.939  0.00  0.00    +0.000 A 
BRANCH  19  22
ATOM     22  O   UNL     1       6.722   3.590  13.847  0.00  0.00    +0.000 OA
BRANCH  22  23
ATOM     23  C   UNL     1       6.290   3.587  12.494  0.00  0.00    +0.000 C 
ATOM     24  F   UNL     1       6.845   4.550  11.728  0.00  0.00    +0.000 F 
ATOM     25  F   UNL     1       6.561   2.384  11.943  0.00  0.00    +0.000 F 
ATOM     26  F   UNL     1       4.949   3.767  12.473  0.00  0.00    +0.000 F 
ENDBRANCH  22  23
ENDBRANCH  19  22
ENDBRANCH   3  16
TORSDOF 4
ENDMDL
MODEL 5
REMARK VINA RESULT:      -8.1      5.019      8.939
REMARK  Name = 
REMARK  4 active torsions:
REMARK  status: ('A' for Active; 'I' for Inactive)
REMARK    1  A    between atoms: C_2  and  C_9
REMARK    2  A    between atoms: C_11  and  C_12
REMARK    3  A    between atoms: C_15  and  O_16
REMARK    4  A    between atoms: O_16  and  C_17
REMARK                            x       y       z     vdW  Elec       q    Type
REMARK                         _______ _______ _______ _____ _____    ______ ____
ROOT
ATOM      1  C   UNL     1       2.366   7.585  18.847  0.00  0.00    +0.000 A 
ATOM      2  C   UNL     1       3.165   7.067  17.831  0.00  0.00    +0.000 A 
ATOM      3  C   UNL     1       3.701   5.784  17.952  0.00  0.00    +0.000 A 
ATOM      4  C   UNL     1       3.381   5.076  19.118  0.00  0.00    +0.000 A 
ATOM      5  C   UNL     1       2.578   5.673  20.087  0.00  0.00    +0.000 A 
ATOM      6  N   UNL     1       2.071   6.921  19.993  0.00  0.00    +0.000 NA
ENDROOT
BRANCH   1   8
ATOM      7  O   UNL     1       1.937   9.479  17.551  0.00  0.00    +0.000 OA
ATOM      8  C   UNL     1       1.770   8.935  18.640  0.00  0.00    +0.000 C 
ATOM      9  N   UNL     1       1.111   9.463  19.725  0.00  0.00    +0.000 N 
ATOM     10  C   UNL     1       0.512  10.685  19.662  0.00  0.00    +0.000 A 
ATOM     11  N   UNL     1       0.060  11.400  20.672  0.00  0.00    +0.000 NA
ATOM     12  C   UNL     1      -0.413  12.546  20.074  0.00  0.00    +0.000 A 
ATOM     13  C   UNL     1      -0.280  12.457  18.714  0.00  0.00    +0.000 A 
ATOM     14  O   UNL     1       0.315  11.270  18.439  0.00  0.00    +0.000 OA
ATOM     15  H   UNL     1       1.144   8.990  20.615  0.00  0.00    +0.000 HD
ENDBRANCH   1   8
BRANCH   3  16
ATOM     16  C   UNL     1       4.540   5.218  16.873  0.00  0.00    +0.000 A 
ATOM     17  C   UNL     1       5.161   6.044  15.920  0.00  0.00    +0.000 A 
ATOM     18  C   UNL     1       5.924   5.508  14.878  0.00  0.00    +0.000 A 
ATOM     19  C   UNL     1       6.111   4.132  14.770  0.00  0.00    +0.000 A 
ATOM     20  C   UNL     1       5.474   3.293  15.679  0.00  0.00    +0.000 A 
ATOM     21  C   UNL     1       4.710   3.832  16.725  0.00  0.00    +0.000 A 
BRANCH  19  22
ATOM     22  O   UNL     1       6.871   3.739  13.713  0.00  0.00    +0.000 OA
BRANCH  22  23
ATOM     23  C   UNL     1       6.258   3.534  12.448  0.00  0.00    +0.000 C 
ATOM     24  F   UNL     1       6.466   2.310  11.919  0.00  0.00    +0.000 F 
ATOM     25  F   UNL     1       4.929   3.739  12.560  0.00  0.00    +0.000 F 
ATOM     26  F   UNL     1       6.754   4.446  11.581  0.00  0.00    +0.000 F 
ENDBRANCH  22  23
ENDBRANCH  19  22
ENDBRANCH   3  16
TORSDOF 4
ENDMDL
MODEL 6
REMARK VINA RESULT:      -8.1      1.282      1.426
REMARK  Name = 
REMARK  4 active torsions:
REMARK  status: ('A' for Active; 'I' for Inactive)
REMARK    1  A    between atoms: C_2  and  C_9
REMARK    2  A    between atoms: C_11  and  C_12
REMARK    3  A    between atoms: C_15  and  O_16
REMARK    4  A    between atoms: O_16  and  C_17
REMARK                            x       y       z     vdW  Elec       q    Type
REMARK                         _______ _______ _______ _____ _____    ______ ____
ROOT
ATOM      1  C   UNL     1       4.750   5.433  17.333  0.00  0.00    +0.000 A 
ATOM      2  C   UNL     1       3.906   6.501  17.626  0.00  0.00    +0.000 A 
ATOM      3  C   UNL     1       3.142   6.485  18.794  0.00  0.00    +0.000 A 
ATOM      4  C   UNL     1       3.289   5.368  19.627  0.00  0.00    +0.000 A 
ATOM      5  C   UNL     1       4.153   4.340  19.254  0.00  0.00    +0.000 A 
ATOM      6  N   UNL     1       4.881   4.332  18.116  0.00  0.00    +0.000 NA
ENDROOT
BRANCH   1   8
ATOM      7  O   UNL     1       6.254   6.546  15.937  0.00  0.00    +0.000 OA
ATOM      8  C   UNL     1       5.587   5.528  16.103  0.00  0.00    +0.000 C 
ATOM      9  N   UNL     1       5.497   4.459  15.243  0.00  0.00    +0.000 N 
ATOM     10  C   UNL     1       6.221   4.417  14.090  0.00  0.00    +0.000 A 
ATOM     11  N   UNL     1       6.059   3.585  13.082  0.00  0.00    +0.000 NA
ATOM     12  C   UNL     1       7.012   3.986  12.172  0.00  0.00    +0.000 A 
ATOM     13  C   UNL     1       7.754   5.013  12.691  0.00  0.00    +0.000 A 
ATOM     14  O   UNL     1       7.254   5.300  13.917  0.00  0.00    +0.000 OA
ATOM     15  H   UNL     1       4.820   3.731  15.412  0.00  0.00    +0.000 HD
ENDBRANCH   1   8
BRANCH   3  16
ATOM     16  C   UNL     1       2.253   7.620  19.123  0.00  0.00    +0.000 A 
ATOM     17  C   UNL     1       1.940   8.604  18.168  0.00  0.00    +0.000 A 
ATOM     18  C   UNL     1       1.128   9.697  18.488  0.00  0.00    +0.000 A 
ATOM     19  C   UNL     1       0.583   9.828  19.763  0.00  0.00    +0.000 A 
ATOM     20  C   UNL     1       0.911   8.887  20.734  0.00  0.00    +0.000 A 
ATOM     21  C   UNL     1       1.723   7.789  20.412  0.00  0.00    +0.000 A 
BRANCH  19  22
ATOM     22  O   UNL     1      -0.185  10.934  19.946  0.00  0.00    +0.000 OA
BRANCH  22  23
ATOM     23  C   UNL     1       0.266  11.965  20.814  0.00  0.00    +0.000 C 
ATOM     24  F   UNL     1      -0.091  11.804  22.105  0.00  0.00    +0.000 F 
ATOM     25  F   UNL     1       1.612  12.048  20.742  0.00  0.00    +0.000 F 
ATOM     26  F   UNL     1      -0.252  13.140  20.387  0.00  0.00    +0.000 F 
ENDBRANCH  22  23
ENDBRANCH  19  22
ENDBRANCH   3  16
TORSDOF 4
ENDMDL
MODEL 7
REMARK VINA RESULT:      -8.1      4.968      9.046
REMARK  Name = 
REMARK  4 active torsions:
REMARK  status: ('A' for Active; 'I' for Inactive)
REMARK    1  A    between atoms: C_2  and  C_9
REMARK    2  A    between atoms: C_11  and  C_12
REMARK    3  A    between atoms: C_15  and  O_16
REMARK    4  A    between atoms: O_16  and  C_17
REMARK                            x       y       z     vdW  Elec       q    Type
REMARK                         _______ _______ _______ _____ _____    ______ ____
ROOT
ATOM      1  C   UNL     1       2.467   6.458  19.737  0.00  0.00    +0.000 A 
ATOM      2  C   UNL     1       3.245   6.306  18.592  0.00  0.00    +0.000 A 
ATOM      3  C   UNL     1       3.849   5.078  18.318  0.00  0.00    +0.000 A 
ATOM      4  C   UNL     1       3.615   4.044  19.234  0.00  0.00    +0.000 A 
ATOM      5  C   UNL     1       2.827   4.284  20.358  0.00  0.00    +0.000 A 
ATOM      6  N   UNL     1       2.254   5.474  20.646  0.00  0.00    +0.000 NA
ENDROOT
BRANCH   1   8
ATOM      7  O   UNL     1       1.737   8.551  19.001  0.00  0.00    +0.000 OA
ATOM      8  C   UNL     1       1.797   7.772  19.950  0.00  0.00    +0.000 C 
ATOM      9  N   UNL     1       1.335   8.001  21.225  0.00  0.00    +0.000 N 
ATOM     10  C   UNL     1       0.693   9.157  21.548  0.00  0.00    +0.000 A 
ATOM     11  N   UNL     1       0.414   9.600  22.757  0.00  0.00    +0.000 NA
ATOM     12  C   UNL     1      -0.201  10.810  22.529  0.00  0.00    +0.000 A 
ATOM     13  C   UNL     1      -0.323  11.028  21.182  0.00  0.00    +0.000 A 
ATOM     14  O   UNL     1       0.250   9.978  20.544  0.00  0.00    +0.000 OA
ATOM     15  H   UNL     1       1.550   7.349  21.964  0.00  0.00    +0.000 HD
ENDBRANCH   1   8
BRANCH   3  16
ATOM     16  C   UNL     1       4.666   4.901  17.098  0.00  0.00    +0.000 A 
ATOM     17  C   UNL     1       4.971   5.987  16.259  0.00  0.00    +0.000 A 
ATOM     18  C   UNL     1       5.713   5.815  15.086  0.00  0.00    +0.000 A 
ATOM     19  C   UNL     1       6.195   4.558  14.728  0.00  0.00    +0.000 A 
ATOM     20  C   UNL     1       5.872   3.463  15.523  0.00  0.00    +0.000 A 
ATOM     21  C   UNL     1       5.129   3.637  16.701  0.00  0.00    +0.000 A 
BRANCH  19  22
ATOM     22  O   UNL     1       6.899   4.524  13.566  0.00  0.00    +0.000 OA
BRANCH  22  23
ATOM     23  C   UNL     1       6.381   3.809  12.454  0.00  0.00    +0.000 C 
ATOM     24  F   UNL     1       6.755   2.514  12.399  0.00  0.00    +0.000 F 
ATOM     25  F   UNL     1       5.032   3.871  12.475  0.00  0.00    +0.000 F 
ATOM     26  F   UNL     1       6.812   4.410  11.321  0.00  0.00    +0.000 F 
ENDBRANCH  22  23
ENDBRANCH  19  22
ENDBRANCH   3  16
TORSDOF 4
ENDMDL
MODEL 8
REMARK VINA RESULT:      -8.0      1.173      1.617
REMARK  Name = 
REMARK  4 active torsions:
REMARK  status: ('A' for Active; 'I' for Inactive)
REMARK    1  A    between atoms: C_2  and  C_9
REMARK    2  A    between atoms: C_11  and  C_12
REMARK    3  A    between atoms: C_15  and  O_16
REMARK    4  A    between atoms: O_16  and  C_17
REMARK                            x       y       z     vdW  Elec       q    Type
REMARK                         _______ _______ _______ _____ _____    ______ ____
ROOT
ATOM      1  C   UNL     1       4.754   5.467  17.324  0.00  0.00    +0.000 A 
ATOM      2  C   UNL     1       3.918   6.544  17.603  0.00  0.00    +0.000 A 
ATOM      3  C   UNL     1       3.146   6.544  18.767  0.00  0.00    +0.000 A 
ATOM      4  C   UNL     1       3.278   5.432  19.608  0.00  0.00    +0.000 A 
ATOM      5  C   UNL     1       4.136   4.394  19.249  0.00  0.00    +0.000 A 
ATOM      6  N   UNL     1       4.871   4.372  18.116  0.00  0.00    +0.000 NA
ENDROOT
BRANCH   1   8
ATOM      7  O   UNL     1       6.287   6.551  15.935  0.00  0.00    +0.000 OA
ATOM      8  C   UNL     1       5.600   5.546  16.099  0.00  0.00    +0.000 C 
ATOM      9  N   UNL     1       5.497   4.477  15.240  0.00  0.00    +0.000 N 
ATOM     10  C   UNL     1       6.226   4.421  14.091  0.00  0.00    +0.000 A 
ATOM     11  N   UNL     1       6.055   3.591  13.082  0.00  0.00    +0.000 NA
ATOM     12  C   UNL     1       7.020   3.973  12.178  0.00  0.00    +0.000 A 
ATOM     13  C   UNL     1       7.778   4.988  12.700  0.00  0.00    +0.000 A 
ATOM     14  O   UNL     1       7.276   5.285  13.923  0.00  0.00    +0.000 OA
ATOM     15  H   UNL     1       4.805   3.762  15.405  0.00  0.00    +0.000 HD
ENDBRANCH   1   8
BRANCH   3  16
ATOM     16  C   UNL     1       2.265   7.689  19.081  0.00  0.00    +0.000 A 
ATOM     17  C   UNL     1       1.735   7.872  20.371  0.00  0.00    +0.000 A 
ATOM     18  C   UNL     1       0.873   8.934  20.660  0.00  0.00    +0.000 A 
ATOM     19  C   UNL     1       0.532   9.861  19.677  0.00  0.00    +0.000 A 
ATOM     20  C   UNL     1       1.013   9.677  18.384  0.00  0.00    +0.000 A 
ATOM     21  C   UNL     1       1.881   8.613  18.096  0.00  0.00    +0.000 A 
BRANCH  19  22
ATOM     22  O   UNL     1      -0.314  10.843  20.085  0.00  0.00    +0.000 OA
BRANCH  22  23
ATOM     23  C   UNL     1       0.198  12.138  20.363  0.00  0.00    +0.000 C 
ATOM     24  F   UNL     1      -0.479  12.814  21.315  0.00  0.00    +0.000 F 
ATOM     25  F   UNL     1       1.490  12.034  20.739  0.00  0.00    +0.000 F 
ATOM     26  F   UNL     1       0.148  12.870  19.226  0.00  0.00    +0.000 F 
ENDBRANCH  22  23
ENDBRANCH  19  22
ENDBRANCH   3  16
TORSDOF 4
ENDMDL
MODEL 9
REMARK VINA RESULT:      -8.0      4.863      8.678
REMARK  Name = 
REMARK  4 active torsions:
REMARK  status: ('A' for Active; 'I' for Inactive)
REMARK    1  A    between atoms: C_2  and  C_9
REMARK    2  A    between atoms: C_11  and  C_12
REMARK    3  A    between atoms: C_15  and  O_16
REMARK    4  A    between atoms: O_16  and  C_17
REMARK                            x       y       z     vdW  Elec       q    Type
REMARK                         _______ _______ _______ _____ _____    ______ ____
ROOT
ATOM      1  C   UNL     1       2.089   6.684  20.066  0.00  0.00    +0.000 A 
ATOM      2  C   UNL     1       2.911   6.535  18.952  0.00  0.00    +0.000 A 
ATOM      3  C   UNL     1       3.333   5.263  18.563  0.00  0.00    +0.000 A 
ATOM      4  C   UNL     1       2.877   4.186  19.334  0.00  0.00    +0.000 A 
ATOM      5  C   UNL     1       2.061   4.426  20.437  0.00  0.00    +0.000 A 
ATOM      6  N   UNL     1       1.663   5.653  20.838  0.00  0.00    +0.000 NA
ENDROOT
BRANCH   1   8
ATOM      7  O   UNL     1       1.447   8.335  21.587  0.00  0.00    +0.000 OA
ATOM      8  C   UNL     1       1.620   8.058  20.402  0.00  0.00    +0.000 C 
ATOM      9  N   UNL     1       1.389   8.884  19.327  0.00  0.00    +0.000 N 
ATOM     10  C   UNL     1       0.969  10.168  19.499  0.00  0.00    +0.000 A 
ATOM     11  N   UNL     1       0.493  10.978  18.576  0.00  0.00    +0.000 NA
ATOM     12  C   UNL     1       0.193  12.127  19.272  0.00  0.00    +0.000 A 
ATOM     13  C   UNL     1       0.554  11.988  20.587  0.00  0.00    +0.000 A 
ATOM     14  O   UNL     1       1.049  10.736  20.744  0.00  0.00    +0.000 OA
ATOM     15  H   UNL     1       1.438   8.517  18.389  0.00  0.00    +0.000 HD
ENDBRANCH   1   8
BRANCH   3  16
ATOM     16  C   UNL     1       4.195   5.091  17.374  0.00  0.00    +0.000 A 
ATOM     17  C   UNL     1       4.688   3.827  17.004  0.00  0.00    +0.000 A 
ATOM     18  C   UNL     1       5.532   3.668  15.900  0.00  0.00    +0.000 A 
ATOM     19  C   UNL     1       5.891   4.763  15.118  0.00  0.00    +0.000 A 
ATOM     20  C   UNL     1       5.447   6.029  15.488  0.00  0.00    +0.000 A 
ATOM     21  C   UNL     1       4.598   6.186  16.594  0.00  0.00    +0.000 A 
BRANCH  19  22
ATOM     22  O   UNL     1       6.717   4.476  14.077  0.00  0.00    +0.000 OA
BRANCH  22  23
ATOM     23  C   UNL     1       6.197   3.817  12.931  0.00  0.00    +0.000 C 
ATOM     24  F   UNL     1       6.406   2.484  12.910  0.00  0.00    +0.000 F 
ATOM     25  F   UNL     1       4.870   4.050  12.849  0.00  0.00    +0.000 F 
ATOM     26  F   UNL     1       6.785   4.343  11.832  0.00  0.00    +0.000 F 
ENDBRANCH  22  23
ENDBRANCH  19  22
ENDBRANCH   3  16
TORSDOF 4
ENDMDL
