MODEL 1
REMARK VINA RESULT:      -8.0      0.000      0.000
REMARK  Name = 
REMARK  8 active torsions:
REMARK  status: ('A' for Active; 'I' for Inactive)
REMARK    1  A    between atoms: C_1  and  C_2
REMARK    2  A    between atoms: C_2  and  C_3
REMARK    3  A    between atoms: C_2  and  C_4
REMARK    4  A    between atoms: C_4  and  C_5
REMARK    5  A    between atoms: C_5  and  C_6
REMARK    6  A    between atoms: C_6  and  C_7
REMARK    7  A    between atoms: C_7  and  C_8
REMARK    8  A    between atoms: C_8  and  C_9
REMARK                            x       y       z     vdW  Elec       q    Type
REMARK                         _______ _______ _______ _____ _____    ______ ____
ROOT
ATOM      1  C   UNL     1       6.295   5.210  16.433  0.00  0.00    +0.000 C 
ATOM      2  C   UNL     1       5.869   6.652  16.179  0.00  0.00    +0.000 C 
ATOM      3  O   UNL     1       4.914   6.949  15.463  0.00  0.00    +0.000 OA
ATOM      4  N   UNL     1       6.620   7.645  16.736  0.00  0.00    +0.000 N 
ATOM      5  C   UNL     1       7.615   7.492  17.645  0.00  0.00    +0.000 C 
ATOM      6  O   UNL     1       8.200   8.455  18.128  0.00  0.00    +0.000 OA
ATOM      7  N   UNL     1       7.919   6.221  18.005  0.00  0.00    +0.000 N 
ATOM      8  C   UNL     1       7.392   5.079  17.483  0.00  0.00    +0.000 C 
ATOM      9  O   UNL     1       7.863   3.998  17.835  0.00  0.00    +0.000 OA
ATOM     10  H   UNL     1       6.351   8.595  16.523  0.00  0.00    +0.000 HD
ATOM     11  H   UNL     1       8.676   6.106  18.666  0.00  0.00    +0.000 HD
ENDROOT
BRANCH   1  12
ATOM     12  C   UNL     1       6.817   4.623  15.094  0.00  0.00    +0.000 C 
BRANCH  12  13
ATOM     13  C   UNL     1       5.723   4.080  14.164  0.00  0.00    +0.000 C 
BRANCH  13  15
ATOM     14  C   UNL     1       5.090   3.206  11.908  0.00  0.00    +0.000 C 
ATOM     15  C   UNL     1       6.266   3.515  12.837  0.00  0.00    +0.000 C 
ATOM     16  C   UNL     1       7.236   4.469  12.136  0.00  0.00    +0.000 C 
ENDBRANCH  13  15
ENDBRANCH  12  13
ENDBRANCH   1  12
BRANCH   1  17
ATOM     17  C   UNL     1       5.018   4.443  16.905  0.00  0.00    +0.000 C 
BRANCH  17  18
ATOM     18  C   UNL     1       4.255   5.072  18.083  0.00  0.00    +0.000 C 
BRANCH  18  19
ATOM     19  C   UNL     1       3.041   4.280  18.487  0.00  0.00    +0.000 A 
ATOM     20  C   UNL     1       2.753   3.055  17.883  0.00  0.00    +0.000 A 
ATOM     21  C   UNL     1       1.656   2.339  18.334  0.00  0.00    +0.000 A 
ATOM     22  N   UNL     1       0.838   2.755  19.325  0.00  0.00    +0.000 NA
ATOM     23  C   UNL     1       1.131   3.948  19.886  0.00  0.00    +0.000 A 
ATOM     24  C   UNL     1       2.202   4.739  19.506  0.00  0.00    +0.000 A 
ENDBRANCH  18  19
ENDBRANCH  17  18
ENDBRANCH   1  17
TORSDOF 6
ENDMDL
MODEL 2
REMARK VINA RESULT:      -7.9      1.115      1.205
REMARK  Name = 
REMARK  8 active torsions:
REMARK  status: ('A' for Active; 'I' for Inactive)
REMARK    1  A    between atoms: C_1  and  C_2
REMARK    2  A    between atoms: C_2  and  C_3
REMARK    3  A    between atoms: C_2  and  C_4
REMARK    4  A    between atoms: C_4  and  C_5
REMARK    5  A    between atoms: C_5  and  C_6
REMARK    6  A    between atoms: C_6  and  C_7
REMARK    7  A    between atoms: C_7  and  C_8
REMARK    8  A    between atoms: C_8  and  C_9
REMARK                            x       y       z     vdW  Elec       q    Type
REMARK                         _______ _______ _______ _____ _____    ______ ____
ROOT
ATOM      1  C   UNL     1       5.454   5.084  16.923  0.00  0.00    +0.000 C 
ATOM      2  C   UNL     1       5.815   6.429  16.302  0.00  0.00    +0.000 C 
ATOM      3  O   UNL     1       5.270   6.862  15.287  0.00  0.00    +0.000 OA
ATOM      4  N   UNL     1       6.819   7.149  16.879  0.00  0.00    +0.000 N 
ATOM      5  C   UNL     1       7.428   6.882  18.062  0.00  0.00    +0.000 C 
ATOM      6  O   UNL     1       8.290   7.620  18.524  0.00  0.00    +0.000 OA
ATOM      7  N   UNL     1       7.023   5.765  18.714  0.00  0.00    +0.000 N 
ATOM      8  C   UNL     1       6.133   4.836  18.265  0.00  0.00    +0.000 C 
ATOM      9  O   UNL     1       5.963   3.815  18.929  0.00  0.00    +0.000 OA
ATOM     10  H   UNL     1       7.076   8.016  16.430  0.00  0.00    +0.000 HD
ATOM     11  H   UNL     1       7.492   5.554  19.585  0.00  0.00    +0.000 HD
ENDROOT
BRANCH   1  12
ATOM     12  C   UNL     1       5.889   3.969  15.934  0.00  0.00    +0.000 C 
BRANCH  12  13
ATOM     13  C   UNL     1       5.389   4.161  14.495  0.00  0.00    +0.000 C 
BRANCH  13  15
ATOM     14  C   UNL     1       5.710   3.297  12.170  0.00  0.00    +0.000 C 
ATOM     15  C   UNL     1       6.434   3.790  13.425  0.00  0.00    +0.000 C 
ATOM     16  C   UNL     1       7.354   4.957  13.060  0.00  0.00    +0.000 C 
ENDBRANCH  13  15
ENDBRANCH  12  13
ENDBRANCH   1  12
BRANCH   1  17
ATOM     17  C   UNL     1       3.903   5.077  17.107  0.00  0.00    +0.000 C 
BRANCH  17  18
ATOM     18  C   UNL     1       3.377   5.739  18.393  0.00  0.00    +0.000 C 
BRANCH  18  19
ATOM     19  C   UNL     1       2.551   4.809  19.237  0.00  0.00    +0.000 A 
ATOM     20  C   UNL     1       1.584   3.985  18.658  0.00  0.00    +0.000 A 
ATOM     21  C   UNL     1       0.893   3.103  19.473  0.00  0.00    +0.000 A 
ATOM     22  N   UNL     1       1.092   2.993  20.804  0.00  0.00    +0.000 NA
ATOM     23  C   UNL     1       2.024   3.807  21.344  0.00  0.00    +0.000 A 
ATOM     24  C   UNL     1       2.766   4.721  20.616  0.00  0.00    +0.000 A 
ENDBRANCH  18  19
ENDBRANCH  17  18
ENDBRANCH   1  17
TORSDOF 6
ENDMDL
MODEL 3
REMARK VINA RESULT:      -7.9      1.554      2.109
REMARK  Name = 
REMARK  8 active torsions:
REMARK  status: ('A' for Active; 'I' for Inactive)
REMARK    1  A    between atoms: C_1  and  C_2
REMARK    2  A    between atoms: C_2  and  C_3
REMARK    3  A    between atoms: C_2  and  C_4
REMARK    4  A    between atoms: C_4  and  C_5
REMARK    5  A    between atoms: C_5  and  C_6
REMARK    6  A    between atoms: C_6  and  C_7
REMARK    7  A    between atoms: C_7  and  C_8
REMARK    8  A    between atoms: C_8  and  C_9
REMARK                            x       y       z     vdW  Elec       q    Type
REMARK                         _______ _______ _______ _____ _____    ______ ____
ROOT
ATOM      1  C   UNL     1       6.016   5.534  16.900  0.00  0.00    +0.000 C 
ATOM      2  C   UNL     1       6.895   6.669  17.414  0.00  0.00    +0.000 C 
ATOM      3  O   UNL     1       7.067   7.715  16.790  0.00  0.00    +0.000 OA
ATOM      4  N   UNL     1       7.550   6.480  18.595  0.00  0.00    +0.000 N 
ATOM      5  C   UNL     1       7.373   5.453  19.463  0.00  0.00    +0.000 C 
ATOM      6  O   UNL     1       7.976   5.398  20.529  0.00  0.00    +0.000 OA
ATOM      7  N   UNL     1       6.483   4.498  19.100  0.00  0.00    +0.000 N 
ATOM      8  C   UNL     1       5.815   4.415  17.915  0.00  0.00    +0.000 C 
ATOM      9  O   UNL     1       5.131   3.418  17.693  0.00  0.00    +0.000 OA
ATOM     10  H   UNL     1       8.163   7.223  18.901  0.00  0.00    +0.000 HD
ATOM     11  H   UNL     1       6.366   3.721  19.736  0.00  0.00    +0.000 HD
ENDROOT
BRANCH   1  12
ATOM     12  C   UNL     1       6.694   4.940  15.635  0.00  0.00    +0.000 C 
BRANCH  12  13
ATOM     13  C   UNL     1       5.719   4.504  14.533  0.00  0.00    +0.000 C 
BRANCH  13  15
ATOM     14  C   UNL     1       5.348   3.443  12.298  0.00  0.00    +0.000 C 
ATOM     15  C   UNL     1       6.412   3.867  13.313  0.00  0.00    +0.000 C 
ATOM     16  C   UNL     1       7.416   4.806  12.641  0.00  0.00    +0.000 C 
ENDBRANCH  13  15
ENDBRANCH  12  13
ENDBRANCH   1  12
BRANCH   1  17
ATOM     17  C   UNL     1       4.636   6.168  16.533  0.00  0.00    +0.000 C 
BRANCH  17  18
ATOM     18  C   UNL     1       3.868   6.822  17.694  0.00  0.00    +0.000 C 
BRANCH  18  19
ATOM     19  C   UNL     1       2.976   5.857  18.426  0.00  0.00    +0.000 A 
ATOM     20  C   UNL     1       2.833   5.926  19.813  0.00  0.00    +0.000 A 
ATOM     21  C   UNL     1       1.952   5.053  20.430  0.00  0.00    +0.000 A 
ATOM     22  N   UNL     1       1.221   4.128  19.772  0.00  0.00    +0.000 NA
ATOM     23  C   UNL     1       1.385   4.072  18.433  0.00  0.00    +0.000 A 
ATOM     24  C   UNL     1       2.240   4.899  17.724  0.00  0.00    +0.000 A 
ENDBRANCH  18  19
ENDBRANCH  17  18
ENDBRANCH   1  17
TORSDOF 6
ENDMDL
MODEL 4
REMARK VINA RESULT:      -7.9      2.865      4.545
REMARK  Name = 
REMARK  8 active torsions:
REMARK  status: ('A' for Active; 'I' for Inactive)
REMARK    1  A    between atoms: C_1  and  C_2
REMARK    2  A    between atoms: C_2  and  C_3
REMARK    3  A    between atoms: C_2  and  C_4
REMARK    4  A    between atoms: C_4  and  C_5
REMARK    5  A    between atoms: C_5  and  C_6
REMARK    6  A    between atoms: C_6  and  C_7
REMARK    7  A    between atoms: C_7  and  C_8
REMARK    8  A    between atoms: C_8  and  C_9
REMARK                            x       y       z     vdW  Elec       q    Type
REMARK                         _______ _______ _______ _____ _____    ______ ____
ROOT
ATOM      1  C   UNL     1       4.876   5.816  17.513  0.00  0.00    +0.000 C 
ATOM      2  C   UNL     1       5.889   5.803  16.373  0.00  0.00    +0.000 C 
ATOM      3  O   UNL     1       5.674   6.329  15.283  0.00  0.00    +0.000 OA
ATOM      4  N   UNL     1       7.061   5.134  16.572  0.00  0.00    +0.000 N 
ATOM      5  C   UNL     1       7.508   4.616  17.743  0.00  0.00    +0.000 C 
ATOM      6  O   UNL     1       8.603   4.074  17.832  0.00  0.00    +0.000 OA
ATOM      7  N   UNL     1       6.688   4.743  18.815  0.00  0.00    +0.000 N 
ATOM      8  C   UNL     1       5.426   5.256  18.819  0.00  0.00    +0.000 C 
ATOM      9  O   UNL     1       4.766   5.189  19.855  0.00  0.00    +0.000 OA
ATOM     10  H   UNL     1       7.703   5.098  15.793  0.00  0.00    +0.000 HD
ATOM     11  H   UNL     1       7.011   4.338  19.684  0.00  0.00    +0.000 HD
ENDROOT
BRANCH   1  12
ATOM     12  C   UNL     1       3.658   4.955  17.078  0.00  0.00    +0.000 C 
BRANCH  12  13
ATOM     13  C   UNL     1       3.927   3.445  17.034  0.00  0.00    +0.000 C 
BRANCH  13  15
ATOM     14  C   UNL     1       3.512   1.864  18.928  0.00  0.00    +0.000 C 
ATOM     15  C   UNL     1       2.857   2.607  17.761  0.00  0.00    +0.000 C 
ATOM     16  C   UNL     1       1.691   3.451  18.281  0.00  0.00    +0.000 C 
ENDBRANCH  13  15
ENDBRANCH  12  13
ENDBRANCH   1  12
BRANCH   1  17
ATOM     17  C   UNL     1       4.448   7.305  17.715  0.00  0.00    +0.000 C 
BRANCH  17  18
ATOM     18  C   UNL     1       2.992   7.639  17.348  0.00  0.00    +0.000 C 
BRANCH  18  19
ATOM     19  C   UNL     1       2.213   8.216  18.500  0.00  0.00    +0.000 A 
ATOM     20  C   UNL     1       1.490   9.400  18.352  0.00  0.00    +0.000 A 
ATOM     21  C   UNL     1       0.741   9.855  19.426  0.00  0.00    +0.000 A 
ATOM     22  N   UNL     1       0.671   9.223  20.618  0.00  0.00    +0.000 NA
ATOM     23  C   UNL     1       1.387   8.086  20.740  0.00  0.00    +0.000 A 
ATOM     24  C   UNL     1       2.166   7.550  19.728  0.00  0.00    +0.000 A 
ENDBRANCH  18  19
ENDBRANCH  17  18
ENDBRANCH   1  17
TORSDOF 6
ENDMDL
MODEL 5
REMARK VINA RESULT:      -7.9      1.052      1.379
REMARK  Name = 
REMARK  8 active torsions:
REMARK  status: ('A' for Active; 'I' for Inactive)
REMARK    1  A    between atoms: C_1  and  C_2
REMARK    2  A    between atoms: C_2  and  C_3
REMARK    3  A    between atoms: C_2  and  C_4
REMARK    4  A    between atoms: C_4  and  C_5
REMARK    5  A    between atoms: C_5  and  C_6
REMARK    6  A    between atoms: C_6  and  C_7
REMARK    7  A    between atoms: C_7  and  C_8
REMARK    8  A    between atoms: C_8  and  C_9
REMARK                            x       y       z     vdW  Elec       q    Type
REMARK                         _______ _______ _______ _____ _____    ______ ____
ROOT
ATOM      1  C   UNL     1       5.603   5.079  16.874  0.00  0.00    +0.000 C 
ATOM      2  C   UNL     1       5.950   6.440  16.279  0.00  0.00    +0.000 C 
ATOM      3  O   UNL     1       5.424   6.875  15.256  0.00  0.00    +0.000 OA
ATOM      4  N   UNL     1       6.923   7.172  16.893  0.00  0.00    +0.000 N 
ATOM      5  C   UNL     1       7.506   6.902  18.088  0.00  0.00    +0.000 C 
ATOM      6  O   UNL     1       8.340   7.652  18.582  0.00  0.00    +0.000 OA
ATOM      7  N   UNL     1       7.108   5.769  18.715  0.00  0.00    +0.000 N 
ATOM      8  C   UNL     1       6.252   4.827  18.230  0.00  0.00    +0.000 C 
ATOM      9  O   UNL     1       6.086   3.793  18.875  0.00  0.00    +0.000 OA
ATOM     10  H   UNL     1       7.172   8.051  16.462  0.00  0.00    +0.000 HD
ATOM     11  H   UNL     1       7.559   5.556  19.595  0.00  0.00    +0.000 HD
ENDROOT
BRANCH   1  12
ATOM     12  C   UNL     1       6.088   3.987  15.882  0.00  0.00    +0.000 C 
BRANCH  12  13
ATOM     13  C   UNL     1       5.359   3.982  14.531  0.00  0.00    +0.000 C 
BRANCH  13  15
ATOM     14  C   UNL     1       5.417   3.349  12.111  0.00  0.00    +0.000 C 
ATOM     15  C   UNL     1       6.280   3.668  13.336  0.00  0.00    +0.000 C 
ATOM     16  C   UNL     1       7.238   4.813  13.003  0.00  0.00    +0.000 C 
ENDBRANCH  13  15
ENDBRANCH  12  13
ENDBRANCH   1  12
BRANCH   1  17
ATOM     17  C   UNL     1       4.048   5.036  17.016  0.00  0.00    +0.000 C 
BRANCH  17  18
ATOM     18  C   UNL     1       3.474   5.668  18.296  0.00  0.00    +0.000 C 
BRANCH  18  19
ATOM     19  C   UNL     1       2.639   4.710  19.101  0.00  0.00    +0.000 A 
ATOM     20  C   UNL     1       2.679   4.723  20.496  0.00  0.00    +0.000 A 
ATOM     21  C   UNL     1       1.844   3.861  21.189  0.00  0.00    +0.000 A 
ATOM     22  N   UNL     1       0.991   2.998  20.597  0.00  0.00    +0.000 NA
ATOM     23  C   UNL     1       0.978   2.995  19.247  0.00  0.00    +0.000 A 
ATOM     24  C   UNL     1       1.773   3.816  18.464  0.00  0.00    +0.000 A 
ENDBRANCH  18  19
ENDBRANCH  17  18
ENDBRANCH   1  17
TORSDOF 6
ENDMDL
MODEL 6
REMARK VINA RESULT:      -7.9      2.876      4.546
REMARK  Name = 
REMARK  8 active torsions:
REMARK  status: ('A' for Active; 'I' for Inactive)
REMARK    1  A    between atoms: C_1  and  C_2
REMARK    2  A    between atoms: C_2  and  C_3
REMARK    3  A    between atoms: C_2  and  C_4
REMARK    4  A    between atoms: C_4  and  C_5
REMARK    5  A    between atoms: C_5  and  C_6
REMARK    6  A    between atoms: C_6  and  C_7
REMARK    7  A    between atoms: C_7  and  C_8
REMARK    8  A    between atoms: C_8  and  C_9
REMARK                            x       y       z     vdW  Elec       q    Type
REMARK                         _______ _______ _______ _____ _____    ______ ____
ROOT
ATOM      1  C   UNL     1       4.864   5.705  17.398  0.00  0.00    +0.000 C 
ATOM      2  C   UNL     1       5.938   5.748  16.316  0.00  0.00    +0.000 C 
ATOM      3  O   UNL     1       5.764   6.288  15.225  0.00  0.00    +0.000 OA
ATOM      4  N   UNL     1       7.118   5.113  16.566  0.00  0.00    +0.000 N 
ATOM      5  C   UNL     1       7.518   4.587  17.751  0.00  0.00    +0.000 C 
ATOM      6  O   UNL     1       8.624   4.078  17.890  0.00  0.00    +0.000 OA
ATOM      7  N   UNL     1       6.637   4.666  18.778  0.00  0.00    +0.000 N 
ATOM      8  C   UNL     1       5.360   5.137  18.722  0.00  0.00    +0.000 C 
ATOM      9  O   UNL     1       4.649   5.029  19.719  0.00  0.00    +0.000 OA
ATOM     10  H   UNL     1       7.803   5.113  15.823  0.00  0.00    +0.000 HD
ATOM     11  H   UNL     1       6.926   4.254  19.655  0.00  0.00    +0.000 HD
ENDROOT
BRANCH   1  12
ATOM     12  C   UNL     1       3.701   4.815  16.882  0.00  0.00    +0.000 C 
BRANCH  12  13
ATOM     13  C   UNL     1       3.888   3.312  17.131  0.00  0.00    +0.000 C 
BRANCH  13  15
ATOM     14  C   UNL     1       3.094   1.855  19.003  0.00  0.00    +0.000 C 
ATOM     15  C   UNL     1       2.656   2.633  17.759  0.00  0.00    +0.000 C 
ATOM     16  C   UNL     1       1.556   3.627  18.138  0.00  0.00    +0.000 C 
ENDBRANCH  13  15
ENDBRANCH  12  13
ENDBRANCH   1  12
BRANCH   1  17
ATOM     17  C   UNL     1       4.376   7.175  17.604  0.00  0.00    +0.000 C 
BRANCH  17  18
ATOM     18  C   UNL     1       2.894   7.440  17.289  0.00  0.00    +0.000 C 
BRANCH  18  19
ATOM     19  C   UNL     1       2.162   8.103  18.424  0.00  0.00    +0.000 A 
ATOM     20  C   UNL     1       2.120   7.516  19.689  0.00  0.00    +0.000 A 
ATOM     21  C   UNL     1       1.484   8.198  20.714  0.00  0.00    +0.000 A 
ATOM     22  N   UNL     1       0.893   9.403  20.564  0.00  0.00    +0.000 NA
ATOM     23  C   UNL     1       0.935   9.946  19.329  0.00  0.00    +0.000 A 
ATOM     24  C   UNL     1       1.545   9.344  18.241  0.00  0.00    +0.000 A 
ENDBRANCH  18  19
ENDBRANCH  17  18
ENDBRANCH   1  17
TORSDOF 6
ENDMDL
MODEL 7
REMARK VINA RESULT:      -7.9      0.697      1.357
REMARK  Name = 
REMARK  8 active torsions:
REMARK  status: ('A' for Active; 'I' for Inactive)
REMARK    1  A    between atoms: C_1  and  C_2
REMARK    2  A    between atoms: C_2  and  C_3
REMARK    3  A    between atoms: C_2  and  C_4
REMARK    4  A    between atoms: C_4  and  C_5
REMARK    5  A    between atoms: C_5  and  C_6
REMARK    6  A    between atoms: C_6  and  C_7
REMARK    7  A    between atoms: C_7  and  C_8
REMARK    8  A    between atoms: C_8  and  C_9
REMARK                            x       y       z     vdW  Elec       q    Type
REMARK                         _______ _______ _______ _____ _____    ______ ____
ROOT
ATOM      1  C   UNL     1       6.442   5.340  16.861  0.00  0.00    +0.000 C 
ATOM      2  C   UNL     1       6.059   6.726  16.353  0.00  0.00    +0.000 C 
ATOM      3  O   UNL     1       5.169   6.909  15.524  0.00  0.00    +0.000 OA
ATOM      4  N   UNL     1       6.775   7.792  16.810  0.00  0.00    +0.000 N 
ATOM      5  C   UNL     1       7.692   7.781  17.810  0.00  0.00    +0.000 C 
ATOM      6  O   UNL     1       8.249   8.806  18.185  0.00  0.00    +0.000 OA
ATOM      7  N   UNL     1       7.948   6.581  18.386  0.00  0.00    +0.000 N 
ATOM      8  C   UNL     1       7.449   5.372  18.005  0.00  0.00    +0.000 C 
ATOM      9  O   UNL     1       7.875   4.359  18.557  0.00  0.00    +0.000 OA
ATOM     10  H   UNL     1       6.538   8.698  16.431  0.00  0.00    +0.000 HD
ATOM     11  H   UNL     1       8.647   6.569  19.117  0.00  0.00    +0.000 HD
ENDROOT
BRANCH   1  12
ATOM     12  C   UNL     1       7.064   4.552  15.676  0.00  0.00    +0.000 C 
BRANCH  12  13
ATOM     13  C   UNL     1       6.045   3.819  14.792  0.00  0.00    +0.000 C 
BRANCH  13  15
ATOM     14  C   UNL     1       7.421   4.933  13.026  0.00  0.00    +0.000 C 
ATOM     15  C   UNL     1       6.075   4.264  13.318  0.00  0.00    +0.000 C 
ATOM     16  C   UNL     1       5.856   3.108  12.340  0.00  0.00    +0.000 C 
ENDBRANCH  13  15
ENDBRANCH  12  13
ENDBRANCH   1  12
BRANCH   1  17
ATOM     17  C   UNL     1       5.121   4.656  17.339  0.00  0.00    +0.000 C 
BRANCH  17  18
ATOM     18  C   UNL     1       4.228   5.499  18.266  0.00  0.00    +0.000 C 
BRANCH  18  19
ATOM     19  C   UNL     1       3.069   4.723  18.830  0.00  0.00    +0.000 A 
ATOM     20  C   UNL     1       2.759   4.787  20.189  0.00  0.00    +0.000 A 
ATOM     21  C   UNL     1       1.645   4.101  20.646  0.00  0.00    +0.000 A 
ATOM     22  N   UNL     1       0.837   3.364  19.854  0.00  0.00    +0.000 NA
ATOM     23  C   UNL     1       1.163   3.307  18.545  0.00  0.00    +0.000 A 
ATOM     24  C   UNL     1       2.255   3.956  17.993  0.00  0.00    +0.000 A 
ENDBRANCH  18  19
ENDBRANCH  17  18
ENDBRANCH   1  17
TORSDOF 6
ENDMDL
MODEL 8
REMARK VINA RESULT:      -7.8      1.361      1.813
REMARK  Name = 
REMARK  8 active torsions:
REMARK  status: ('A' for Active; 'I' for Inactive)
REMARK    1  A    between atoms: C_1  and  C_2
REMARK    2  A    between atoms: C_2  and  C_3
REMARK    3  A    between atoms: C_2  and  C_4
REMARK    4  A    between atoms: C_4  and  C_5
REMARK    5  A    between atoms: C_5  and  C_6
REMARK    6  A    between atoms: C_6  and  C_7
REMARK    7  A    between atoms: C_7  and  C_8
REMARK    8  A    between atoms: C_8  and  C_9
REMARK                            x       y       z     vdW  Elec       q    Type
REMARK                         _______ _______ _______ _____ _____    ______ ____
ROOT
ATOM      1  C   UNL     1       6.751   5.794  18.025  0.00  0.00    +0.000 C 
ATOM      2  C   UNL     1       6.380   6.990  17.155  0.00  0.00    +0.000 C 
ATOM      3  O   UNL     1       5.429   6.979  16.376  0.00  0.00    +0.000 OA
ATOM      4  N   UNL     1       7.176   8.096  17.221  0.00  0.00    +0.000 N 
ATOM      5  C   UNL     1       8.175   8.321  18.110  0.00  0.00    +0.000 C 
ATOM      6  O   UNL     1       8.804   9.373  18.121  0.00  0.00    +0.000 OA
ATOM      7  N   UNL     1       8.433   7.330  18.998  0.00  0.00    +0.000 N 
ATOM      8  C   UNL     1       7.854   6.097  19.033  0.00  0.00    +0.000 C 
ATOM      9  O   UNL     1       8.287   5.266  19.830  0.00  0.00    +0.000 OA
ATOM     10  H   UNL     1       6.943   8.863  16.607  0.00  0.00    +0.000 HD
ATOM     11  H   UNL     1       9.192   7.488  19.647  0.00  0.00    +0.000 HD
ENDROOT
BRANCH   1  12
ATOM     12  C   UNL     1       7.234   4.654  17.088  0.00  0.00    +0.000 C 
BRANCH  12  13
ATOM     13  C   UNL     1       7.169   4.986  15.591  0.00  0.00    +0.000 C 
BRANCH  13  15
ATOM     14  C   UNL     1       4.926   4.014  15.064  0.00  0.00    +0.000 C 
ATOM     15  C   UNL     1       6.423   3.928  14.757  0.00  0.00    +0.000 C 
ATOM     16  C   UNL     1       6.647   4.088  13.252  0.00  0.00    +0.000 C 
ENDBRANCH  13  15
ENDBRANCH  12  13
ENDBRANCH   1  12
BRANCH   1  17
ATOM     17  C   UNL     1       5.451   5.368  18.779  0.00  0.00    +0.000 C 
BRANCH  17  18
ATOM     18  C   UNL     1       5.132   3.862  18.768  0.00  0.00    +0.000 C 
BRANCH  18  19
ATOM     19  C   UNL     1       3.663   3.574  18.624  0.00  0.00    +0.000 A 
ATOM     20  C   UNL     1       2.814   4.483  17.991  0.00  0.00    +0.000 A 
ATOM     21  C   UNL     1       1.481   4.140  17.832  0.00  0.00    +0.000 A 
ATOM     22  N   UNL     1       0.945   2.977  18.259  0.00  0.00    +0.000 NA
ATOM     23  C   UNL     1       1.782   2.119  18.879  0.00  0.00    +0.000 A 
ATOM     24  C   UNL     1       3.129   2.368  19.087  0.00  0.00    +0.000 A 
ENDBRANCH  18  19
ENDBRANCH  17  18
ENDBRANCH   1  17
TORSDOF 6
ENDMDL
MODEL 9
REMARK VINA RESULT:      -7.8      1.361      1.724
REMARK  Name = 
REMARK  8 active torsions:
REMARK  status: ('A' for Active; 'I' for Inactive)
REMARK    1  A    between atoms: C_1  and  C_2
REMARK    2  A    between atoms: C_2  and  C_3
REMARK    3  A    between atoms: C_2  and  C_4
REMARK    4  A    between atoms: C_4  and  C_5
REMARK    5  A    between atoms: C_5  and  C_6
REMARK    6  A    between atoms: C_6  and  C_7
REMARK    7  A    between atoms: C_7  and  C_8
REMARK    8  A    between atoms: C_8  and  C_9
REMARK                            x       y       z     vdW  Elec       q    Type
REMARK                         _______ _______ _______ _____ _____    ______ ____
ROOT
ATOM      1  C   UNL     1       6.758   5.812  18.038  0.00  0.00    +0.000 C 
ATOM      2  C   UNL     1       6.365   6.991  17.154  0.00  0.00    +0.000 C 
ATOM      3  O   UNL     1       5.400   6.961  16.392  0.00  0.00    +0.000 OA
ATOM      4  N   UNL     1       7.156   8.102  17.186  0.00  0.00    +0.000 N 
ATOM      5  C   UNL     1       8.169   8.348  18.054  0.00  0.00    +0.000 C 
ATOM      6  O   UNL     1       8.792   9.403  18.035  0.00  0.00    +0.000 OA
ATOM      7  N   UNL     1       8.447   7.374  18.954  0.00  0.00    +0.000 N 
ATOM      8  C   UNL     1       7.877   6.139  19.021  0.00  0.00    +0.000 C 
ATOM      9  O   UNL     1       8.327   5.324  19.825  0.00  0.00    +0.000 OA
ATOM     10  H   UNL     1       6.908   8.857  16.563  0.00  0.00    +0.000 HD
ATOM     11  H   UNL     1       9.217   7.548  19.587  0.00  0.00    +0.000 HD
ENDROOT
BRANCH   1  12
ATOM     12  C   UNL     1       7.231   4.658  17.113  0.00  0.00    +0.000 C 
BRANCH  12  13
ATOM     13  C   UNL     1       7.182   4.981  15.613  0.00  0.00    +0.000 C 
BRANCH  13  15
ATOM     14  C   UNL     1       4.905   4.100  15.068  0.00  0.00    +0.000 C 
ATOM     15  C   UNL     1       6.402   3.942  14.785  0.00  0.00    +0.000 C 
ATOM     16  C   UNL     1       6.654   4.067  13.281  0.00  0.00    +0.000 C 
ENDBRANCH  13  15
ENDBRANCH  12  13
ENDBRANCH   1  12
BRANCH   1  17
ATOM     17  C   UNL     1       5.473   5.393  18.822  0.00  0.00    +0.000 C 
BRANCH  17  18
ATOM     18  C   UNL     1       5.161   3.886  18.839  0.00  0.00    +0.000 C 
BRANCH  18  19
ATOM     19  C   UNL     1       3.720   3.582  18.530  0.00  0.00    +0.000 A 
ATOM     20  C   UNL     1       3.206   2.297  18.713  0.00  0.00    +0.000 A 
ATOM     21  C   UNL     1       1.858   2.085  18.471  0.00  0.00    +0.000 A 
ATOM     22  N   UNL     1       1.004   3.047  18.062  0.00  0.00    +0.000 NA
ATOM     23  C   UNL     1       1.527   4.279  17.881  0.00  0.00    +0.000 A 
ATOM     24  C   UNL     1       2.859   4.592  18.095  0.00  0.00    +0.000 A 
ENDBRANCH  18  19
ENDBRANCH  17  18
ENDBRANCH   1  17
TORSDOF 6
ENDMDL
