MODEL 1
REMARK VINA RESULT:      -6.9      0.000      0.000
REMARK  Name = 
REMARK  10 active torsions:
REMARK  status: ('A' for Active; 'I' for Inactive)
REMARK    1  A    between atoms: N_1  and  CA_2
REMARK    2  A    between atoms: CA_2  and  CB_3
REMARK    3  A    between atoms: CA_2  and  C_5
REMARK    4  A    between atoms: CB_3  and  OG_4
REMARK    5  A    between atoms: N_7  and  CA_8
REMARK    6  A    between atoms: CA_8  and  CB_9
REMARK    7  A    between atoms: CA_8  and  C_17
REMARK    8  A    between atoms: CB_9  and  CG_10
REMARK    9  A    between atoms: CZ_13  and  OH_14
REMARK   10  A    between atoms: C_17  and  OXT_19
REMARK                            x       y       z     vdW  Elec       q    Type
REMARK                         _______ _______ _______ _____ _____    ______ ____
ROOT
ATOM      1  CA  TYR A   2       5.813   3.976  16.173  0.00  0.00    +0.000 C 
ENDROOT
BRANCH   1   4
ATOM      2  C   SER A   1       7.351   4.882  17.918  0.00  0.00    +0.000 C 
ATOM      3  O   SER A   1       8.227   4.076  17.616  0.00  0.00    +0.000 OA
ATOM      4  N   TYR A   2       6.172   4.935  17.218  0.00  0.00    +0.000 N 
ATOM      5  H   TYR A   2       5.570   5.733  17.417  0.00  0.00    +0.000 HD
BRANCH   2   6
ATOM      6  CA  SER A   1       7.518   5.989  18.961  0.00  0.00    +0.000 C 
BRANCH   6   7
ATOM      7  N   SER A   1       8.396   5.536  20.077  0.00  0.00    +0.000 NA
ATOM      8  H1  SER A   1       8.614   6.374  20.628  0.00  0.00    +0.000 HD
ATOM      9  H2  SER A   1       9.302   5.270  19.682  0.00  0.00    +0.000 HD
ENDBRANCH   6   7
BRANCH   6  10
ATOM     10  CB  SER A   1       8.044   7.276  18.315  0.00  0.00    +0.000 C 
BRANCH  10  11
ATOM     11  OG  SER A   1       7.864   7.217  16.897  0.00  0.00    +0.000 OA
ATOM     12  H   SER A   1       8.344   7.972  16.511  0.00  0.00    +0.000 HD
ENDBRANCH  10  11
ENDBRANCH   6  10
ENDBRANCH   2   6
ENDBRANCH   1   4
BRANCH   1  13
ATOM     13  C   TYR A   2       6.517   4.351  14.856  0.00  0.00    +0.000 C 
ATOM     14  O   TYR A   2       7.095   5.409  14.650  0.00  0.00    +0.000 OA
BRANCH  13  15
ATOM     15  OXT TYR A   2       6.380   3.413  13.884  0.00  0.00    +0.000 OA
ATOM     16  HXT TYR A   2       7.247   3.041  13.592  0.00  0.00    +0.000 HD
ENDBRANCH  13  15
ENDBRANCH   1  13
BRANCH   1  17
ATOM     17  CB  TYR A   2       4.294   3.896  15.958  0.00  0.00    +0.000 C 
BRANCH  17  18
ATOM     18  CG  TYR A   2       3.499   3.611  17.215  0.00  0.00    +0.000 A 
ATOM     19  CD1 TYR A   2       2.655   4.594  17.754  0.00  0.00    +0.000 A 
ATOM     20  CE1 TYR A   2       1.870   4.323  18.877  0.00  0.00    +0.000 A 
ATOM     21  CZ  TYR A   2       1.932   3.066  19.467  0.00  0.00    +0.000 A 
ATOM     22  CE2 TYR A   2       2.775   2.084  18.959  0.00  0.00    +0.000 A 
ATOM     23  CD2 TYR A   2       3.551   2.353  17.834  0.00  0.00    +0.000 A 
BRANCH  21  24
ATOM     24  OH  TYR A   2       1.161   2.750  20.546  0.00  0.00    +0.000 OA
ATOM     25  HH  TYR A   2       1.451   3.287  21.303  0.00  0.00    +0.000 HD
ENDBRANCH  21  24
ENDBRANCH  17  18
ENDBRANCH   1  17
TORSDOF 10
ENDMDL
MODEL 2
REMARK VINA RESULT:      -6.8      1.001      1.245
REMARK  Name = 
REMARK  10 active torsions:
REMARK  status: ('A' for Active; 'I' for Inactive)
REMARK    1  A    between atoms: N_1  and  CA_2
REMARK    2  A    between atoms: CA_2  and  CB_3
REMARK    3  A    between atoms: CA_2  and  C_5
REMARK    4  A    between atoms: CB_3  and  OG_4
REMARK    5  A    between atoms: N_7  and  CA_8
REMARK    6  A    between atoms: CA_8  and  CB_9
REMARK    7  A    between atoms: CA_8  and  C_17
REMARK    8  A    between atoms: CB_9  and  CG_10
REMARK    9  A    between atoms: CZ_13  and  OH_14
REMARK   10  A    between atoms: C_17  and  OXT_19
REMARK                            x       y       z     vdW  Elec       q    Type
REMARK                         _______ _______ _______ _____ _____    ______ ____
ROOT
ATOM      1  CA  TYR A   2       5.315   4.068  16.517  0.00  0.00    +0.000 C 
ENDROOT
BRANCH   1   4
ATOM      2  C   SER A   1       7.184   4.940  17.922  0.00  0.00    +0.000 C 
ATOM      3  O   SER A   1       8.005   4.247  17.325  0.00  0.00    +0.000 OA
ATOM      4  N   TYR A   2       5.866   4.953  17.543  0.00  0.00    +0.000 N 
ATOM      5  H   TYR A   2       5.285   5.673  17.972  0.00  0.00    +0.000 HD
BRANCH   2   6
ATOM      6  CA  SER A   1       7.540   5.956  19.010  0.00  0.00    +0.000 C 
BRANCH   6   7
ATOM      7  N   SER A   1       8.485   5.363  19.998  0.00  0.00    +0.000 NA
ATOM      8  H1  SER A   1       8.323   4.349  19.974  0.00  0.00    +0.000 HD
ATOM      9  H2  SER A   1       8.174   5.630  20.936  0.00  0.00    +0.000 HD
ENDBRANCH   6   7
BRANCH   6  10
ATOM     10  CB  SER A   1       8.099   7.245  18.395  0.00  0.00    +0.000 C 
BRANCH  10  11
ATOM     11  OG  SER A   1       7.665   7.364  17.038  0.00  0.00    +0.000 OA
ATOM     12  H   SER A   1       8.327   7.902  16.567  0.00  0.00    +0.000 HD
ENDBRANCH  10  11
ENDBRANCH   6  10
ENDBRANCH   2   6
ENDBRANCH   1   4
BRANCH   1  13
ATOM     13  C   TYR A   2       5.545   4.678  15.122  0.00  0.00    +0.000 C 
ATOM     14  O   TYR A   2       5.749   4.033  14.103  0.00  0.00    +0.000 OA
BRANCH  13  15
ATOM     15  OXT TYR A   2       5.576   6.035  15.124  0.00  0.00    +0.000 OA
ATOM     16  HXT TYR A   2       5.478   6.418  14.218  0.00  0.00    +0.000 HD
ENDBRANCH  13  15
ENDBRANCH   1  13
BRANCH   1  17
ATOM     17  CB  TYR A   2       3.820   3.790  16.734  0.00  0.00    +0.000 C 
BRANCH  17  18
ATOM     18  CG  TYR A   2       3.413   3.658  18.186  0.00  0.00    +0.000 A 
ATOM     19  CD1 TYR A   2       2.450   4.522  18.731  0.00  0.00    +0.000 A 
ATOM     20  CE1 TYR A   2       2.021   4.371  20.051  0.00  0.00    +0.000 A 
ATOM     21  CZ  TYR A   2       2.560   3.355  20.833  0.00  0.00    +0.000 A 
ATOM     22  CE2 TYR A   2       3.528   2.500  20.318  0.00  0.00    +0.000 A 
ATOM     23  CD2 TYR A   2       3.948   2.646  18.998  0.00  0.00    +0.000 A 
BRANCH  21  24
ATOM     24  OH  TYR A   2       2.149   3.154  22.117  0.00  0.00    +0.000 OA
ATOM     25  HH  TYR A   2       1.409   2.524  22.112  0.00  0.00    +0.000 HD
ENDBRANCH  21  24
ENDBRANCH  17  18
ENDBRANCH   1  17
TORSDOF 10
ENDMDL
MODEL 3
REMARK VINA RESULT:      -6.6      1.012      1.643
REMARK  Name = 
REMARK  10 active torsions:
REMARK  status: ('A' for Active; 'I' for Inactive)
REMARK    1  A    between atoms: N_1  and  CA_2
REMARK    2  A    between atoms: CA_2  and  CB_3
REMARK    3  A    between atoms: CA_2  and  C_5
REMARK    4  A    between atoms: CB_3  and  OG_4
REMARK    5  A    between atoms: N_7  and  CA_8
REMARK    6  A    between atoms: CA_8  and  CB_9
REMARK    7  A    between atoms: CA_8  and  C_17
REMARK    8  A    between atoms: CB_9  and  CG_10
REMARK    9  A    between atoms: CZ_13  and  OH_14
REMARK   10  A    between atoms: C_17  and  OXT_19
REMARK                            x       y       z     vdW  Elec       q    Type
REMARK                         _______ _______ _______ _____ _____    ______ ____
ROOT
ATOM      1  CA  TYR A   2       5.230   4.136  16.600  0.00  0.00    +0.000 C 
ENDROOT
BRANCH   1   4
ATOM      2  C   SER A   1       7.079   5.031  18.017  0.00  0.00    +0.000 C 
ATOM      3  O   SER A   1       7.904   4.311  17.460  0.00  0.00    +0.000 OA
ATOM      4  N   TYR A   2       5.770   5.047  17.610  0.00  0.00    +0.000 N 
ATOM      5  H   TYR A   2       5.188   5.786  18.003  0.00  0.00    +0.000 HD
BRANCH   2   6
ATOM      6  CA  SER A   1       7.424   6.077  19.080  0.00  0.00    +0.000 C 
BRANCH   6   7
ATOM      7  N   SER A   1       8.243   5.474  20.169  0.00  0.00    +0.000 NA
ATOM      8  H1  SER A   1       7.636   5.438  20.996  0.00  0.00    +0.000 HD
ATOM      9  H2  SER A   1       8.966   6.148  20.435  0.00  0.00    +0.000 HD
ENDBRANCH   6   7
BRANCH   6  10
ATOM     10  CB  SER A   1       8.122   7.289  18.451  0.00  0.00    +0.000 C 
BRANCH  10  11
ATOM     11  OG  SER A   1       7.664   7.471  17.109  0.00  0.00    +0.000 OA
ATOM     12  H   SER A   1       6.797   7.912  17.154  0.00  0.00    +0.000 HD
ENDBRANCH  10  11
ENDBRANCH   6  10
ENDBRANCH   2   6
ENDBRANCH   1   4
BRANCH   1  13
ATOM     13  C   TYR A   2       5.542   4.672  15.192  0.00  0.00    +0.000 C 
ATOM     14  O   TYR A   2       5.750   3.974  14.209  0.00  0.00    +0.000 OA
BRANCH  13  15
ATOM     15  OXT TYR A   2       5.643   6.025  15.138  0.00  0.00    +0.000 OA
ATOM     16  HXT TYR A   2       6.293   6.330  14.460  0.00  0.00    +0.000 HD
ENDBRANCH  13  15
ENDBRANCH   1  13
BRANCH   1  17
ATOM     17  CB  TYR A   2       3.717   3.921  16.763  0.00  0.00    +0.000 C 
BRANCH  17  18
ATOM     18  CG  TYR A   2       3.274   3.642  18.184  0.00  0.00    +0.000 A 
ATOM     19  CD1 TYR A   2       4.006   2.756  18.990  0.00  0.00    +0.000 A 
ATOM     20  CE1 TYR A   2       3.645   2.538  20.321  0.00  0.00    +0.000 A 
ATOM     21  CZ  TYR A   2       2.543   3.204  20.847  0.00  0.00    +0.000 A 
ATOM     22  CE2 TYR A   2       1.795   4.071  20.060  0.00  0.00    +0.000 A 
ATOM     23  CD2 TYR A   2       2.162   4.295  18.736  0.00  0.00    +0.000 A 
BRANCH  21  24
ATOM     24  OH  TYR A   2       2.173   3.041  22.150  0.00  0.00    +0.000 OA
ATOM     25  HH  TYR A   2       1.233   3.271  22.237  0.00  0.00    +0.000 HD
ENDBRANCH  21  24
ENDBRANCH  17  18
ENDBRANCH   1  17
TORSDOF 10
ENDMDL
MODEL 4
REMARK VINA RESULT:      -6.4      1.545      2.105
REMARK  Name = 
REMARK  10 active torsions:
REMARK  status: ('A' for Active; 'I' for Inactive)
REMARK    1  A    between atoms: N_1  and  CA_2
REMARK    2  A    between atoms: CA_2  and  CB_3
REMARK    3  A    between atoms: CA_2  and  C_5
REMARK    4  A    between atoms: CB_3  and  OG_4
REMARK    5  A    between atoms: N_7  and  CA_8
REMARK    6  A    between atoms: CA_8  and  CB_9
REMARK    7  A    between atoms: CA_8  and  C_17
REMARK    8  A    between atoms: CB_9  and  CG_10
REMARK    9  A    between atoms: CZ_13  and  OH_14
REMARK   10  A    between atoms: C_17  and  OXT_19
REMARK                            x       y       z     vdW  Elec       q    Type
REMARK                         _______ _______ _______ _____ _____    ______ ____
ROOT
ATOM      1  CA  TYR A   2       5.272   3.927  16.776  0.00  0.00    +0.000 C 
ENDROOT
BRANCH   1   4
ATOM      2  C   SER A   1       7.213   4.914  17.995  0.00  0.00    +0.000 C 
ATOM      3  O   SER A   1       8.013   4.320  17.277  0.00  0.00    +0.000 OA
ATOM      4  N   TYR A   2       5.863   4.821  17.772  0.00  0.00    +0.000 N 
ATOM      5  H   TYR A   2       5.277   5.469  18.297  0.00  0.00    +0.000 HD
BRANCH   2   6
ATOM      6  CA  SER A   1       7.607   5.918  19.080  0.00  0.00    +0.000 C 
BRANCH   6   7
ATOM      7  N   SER A   1       8.600   5.321  20.017  0.00  0.00    +0.000 NA
ATOM      8  H1  SER A   1       9.437   5.913  19.962  0.00  0.00    +0.000 HD
ATOM      9  H2  SER A   1       8.914   4.430  19.623  0.00  0.00    +0.000 HD
ENDBRANCH   6   7
BRANCH   6  10
ATOM     10  CB  SER A   1       8.126   7.221  18.460  0.00  0.00    +0.000 C 
BRANCH  10  11
ATOM     11  OG  SER A   1       7.659   7.338  17.114  0.00  0.00    +0.000 OA
ATOM     12  H   SER A   1       7.803   6.477  16.680  0.00  0.00    +0.000 HD
ENDBRANCH  10  11
ENDBRANCH   6  10
ENDBRANCH   2   6
ENDBRANCH   1   4
BRANCH   1  13
ATOM     13  C   TYR A   2       5.625   4.415  15.360  0.00  0.00    +0.000 C 
ATOM     14  O   TYR A   2       5.311   5.503  14.898  0.00  0.00    +0.000 OA
BRANCH  13  15
ATOM     15  OXT TYR A   2       6.274   3.485  14.612  0.00  0.00    +0.000 OA
ATOM     16  HXT TYR A   2       5.838   2.600  14.647  0.00  0.00    +0.000 HD
ENDBRANCH  13  15
ENDBRANCH   1  13
BRANCH   1  17
ATOM     17  CB  TYR A   2       3.748   3.812  16.933  0.00  0.00    +0.000 C 
BRANCH  17  18
ATOM     18  CG  TYR A   2       3.159   4.717  17.994  0.00  0.00    +0.000 A 
ATOM     19  CD1 TYR A   2       2.718   4.179  19.214  0.00  0.00    +0.000 A 
ATOM     20  CE1 TYR A   2       2.230   5.009  20.225  0.00  0.00    +0.000 A 
ATOM     21  CZ  TYR A   2       2.177   6.383  20.015  0.00  0.00    +0.000 A 
ATOM     22  CE2 TYR A   2       2.593   6.933  18.808  0.00  0.00    +0.000 A 
ATOM     23  CD2 TYR A   2       3.087   6.105  17.804  0.00  0.00    +0.000 A 
BRANCH  21  24
ATOM     24  OH  TYR A   2       1.735   7.232  20.986  0.00  0.00    +0.000 OA
ATOM     25  HH  TYR A   2       1.688   8.130  20.617  0.00  0.00    +0.000 HD
ENDBRANCH  21  24
ENDBRANCH  17  18
ENDBRANCH   1  17
TORSDOF 10
ENDMDL
MODEL 5
REMARK VINA RESULT:      -6.3      2.756      4.168
REMARK  Name = 
REMARK  10 active torsions:
REMARK  status: ('A' for Active; 'I' for Inactive)
REMARK    1  A    between atoms: N_1  and  CA_2
REMARK    2  A    between atoms: CA_2  and  CB_3
REMARK    3  A    between atoms: CA_2  and  C_5
REMARK    4  A    between atoms: CB_3  and  OG_4
REMARK    5  A    between atoms: N_7  and  CA_8
REMARK    6  A    between atoms: CA_8  and  CB_9
REMARK    7  A    between atoms: CA_8  and  C_17
REMARK    8  A    between atoms: CB_9  and  CG_10
REMARK    9  A    between atoms: CZ_13  and  OH_14
REMARK   10  A    between atoms: C_17  and  OXT_19
REMARK                            x       y       z     vdW  Elec       q    Type
REMARK                         _______ _______ _______ _____ _____    ______ ____
ROOT
ATOM      1  CA  TYR A   2       4.103   3.592  19.054  0.00  0.00    +0.000 C 
ENDROOT
BRANCH   1   4
ATOM      2  C   SER A   1       6.216   4.842  18.604  0.00  0.00    +0.000 C 
ATOM      3  O   SER A   1       6.274   5.237  19.767  0.00  0.00    +0.000 OA
ATOM      4  N   TYR A   2       5.223   3.988  18.199  0.00  0.00    +0.000 N 
ATOM      5  H   TYR A   2       5.338   3.576  17.274  0.00  0.00    +0.000 HD
BRANCH   2   6
ATOM      6  CA  SER A   1       7.290   5.112  17.547  0.00  0.00    +0.000 C 
BRANCH   6   7
ATOM      7  N   SER A   1       8.347   4.063  17.589  0.00  0.00    +0.000 NA
ATOM      8  H1  SER A   1       9.243   4.556  17.497  0.00  0.00    +0.000 HD
ATOM      9  H2  SER A   1       8.289   3.517  16.724  0.00  0.00    +0.000 HD
ENDBRANCH   6   7
BRANCH   6  10
ATOM     10  CB  SER A   1       6.667   5.234  16.152  0.00  0.00    +0.000 C 
BRANCH  10  11
ATOM     11  OG  SER A   1       7.693   5.444  15.178  0.00  0.00    +0.000 OA
ATOM     12  H   SER A   1       7.583   4.766  14.488  0.00  0.00    +0.000 HD
ENDBRANCH  10  11
ENDBRANCH   6  10
ENDBRANCH   2   6
ENDBRANCH   1   4
BRANCH   1  13
ATOM     13  C   TYR A   2       4.076   2.061  19.204  0.00  0.00    +0.000 C 
ATOM     14  O   TYR A   2       3.232   1.326  18.711  0.00  0.00    +0.000 OA
BRANCH  13  15
ATOM     15  OXT TYR A   2       5.056   1.579  20.011  0.00  0.00    +0.000 OA
ATOM     16  HXT TYR A   2       5.902   1.421  19.528  0.00  0.00    +0.000 HD
ENDBRANCH  13  15
ENDBRANCH   1  13
BRANCH   1  17
ATOM     17  CB  TYR A   2       2.756   4.097  18.514  0.00  0.00    +0.000 C 
BRANCH  17  18
ATOM     18  CG  TYR A   2       2.347   5.460  19.029  0.00  0.00    +0.000 A 
ATOM     19  CD1 TYR A   2       1.824   5.598  20.324  0.00  0.00    +0.000 A 
ATOM     20  CE1 TYR A   2       1.501   6.857  20.833  0.00  0.00    +0.000 A 
ATOM     21  CZ  TYR A   2       1.696   7.985  20.042  0.00  0.00    +0.000 A 
ATOM     22  CE2 TYR A   2       2.197   7.868  18.751  0.00  0.00    +0.000 A 
ATOM     23  CD2 TYR A   2       2.527   6.612  18.247  0.00  0.00    +0.000 A 
BRANCH  21  24
ATOM     24  OH  TYR A   2       1.422   9.235  20.511  0.00  0.00    +0.000 OA
ATOM     25  HH  TYR A   2       1.332   9.838  19.754  0.00  0.00    +0.000 HD
ENDBRANCH  21  24
ENDBRANCH  17  18
ENDBRANCH   1  17
TORSDOF 10
ENDMDL
MODEL 6
REMARK VINA RESULT:      -6.3      2.090      3.603
REMARK  Name = 
REMARK  10 active torsions:
REMARK  status: ('A' for Active; 'I' for Inactive)
REMARK    1  A    between atoms: N_1  and  CA_2
REMARK    2  A    between atoms: CA_2  and  CB_3
REMARK    3  A    between atoms: CA_2  and  C_5
REMARK    4  A    between atoms: CB_3  and  OG_4
REMARK    5  A    between atoms: N_7  and  CA_8
REMARK    6  A    between atoms: CA_8  and  CB_9
REMARK    7  A    between atoms: CA_8  and  C_17
REMARK    8  A    between atoms: CB_9  and  CG_10
REMARK    9  A    between atoms: CZ_13  and  OH_14
REMARK   10  A    between atoms: C_17  and  OXT_19
REMARK                            x       y       z     vdW  Elec       q    Type
REMARK                         _______ _______ _______ _____ _____    ______ ____
ROOT
ATOM      1  CA  TYR A   2       5.276   6.046  17.932  0.00  0.00    +0.000 C 
ENDROOT
BRANCH   1   4
ATOM      2  C   SER A   1       6.560   5.694  15.821  0.00  0.00    +0.000 C 
ATOM      3  O   SER A   1       7.605   6.061  16.351  0.00  0.00    +0.000 OA
ATOM      4  N   TYR A   2       5.398   5.601  16.543  0.00  0.00    +0.000 N 
ATOM      5  H   TYR A   2       4.620   5.133  16.080  0.00  0.00    +0.000 HD
BRANCH   2   6
ATOM      6  CA  SER A   1       6.459   5.162  14.389  0.00  0.00    +0.000 C 
BRANCH   6   7
ATOM      7  N   SER A   1       7.733   5.390  13.650  0.00  0.00    +0.000 NA
ATOM      8  H1  SER A   1       8.419   5.696  14.351  0.00  0.00    +0.000 HD
ATOM      9  H2  SER A   1       7.615   6.217  13.058  0.00  0.00    +0.000 HD
ENDBRANCH   6   7
BRANCH   6  10
ATOM     10  CB  SER A   1       6.057   3.683  14.381  0.00  0.00    +0.000 C 
BRANCH  10  11
ATOM     11  OG  SER A   1       6.311   3.103  15.663  0.00  0.00    +0.000 OA
ATOM     12  H   SER A   1       6.665   2.208  15.512  0.00  0.00    +0.000 HD
ENDBRANCH  10  11
ENDBRANCH   6  10
ENDBRANCH   2   6
ENDBRANCH   1   4
BRANCH   1  13
ATOM     13  C   TYR A   2       5.678   4.905  18.883  0.00  0.00    +0.000 C 
ATOM     14  O   TYR A   2       6.130   5.062  20.009  0.00  0.00    +0.000 OA
BRANCH  13  15
ATOM     15  OXT TYR A   2       5.554   3.671  18.331  0.00  0.00    +0.000 OA
ATOM     16  HXT TYR A   2       6.121   2.997  18.779  0.00  0.00    +0.000 HD
ENDBRANCH  13  15
ENDBRANCH   1  13
BRANCH   1  17
ATOM     17  CB  TYR A   2       3.857   6.536  18.260  0.00  0.00    +0.000 C 
BRANCH  17  18
ATOM     18  CG  TYR A   2       2.899   5.442  18.680  0.00  0.00    +0.000 A 
ATOM     19  CD1 TYR A   2       2.544   5.295  20.030  0.00  0.00    +0.000 A 
ATOM     20  CE1 TYR A   2       1.614   4.330  20.422  0.00  0.00    +0.000 A 
ATOM     21  CZ  TYR A   2       1.040   3.504  19.461  0.00  0.00    +0.000 A 
ATOM     22  CE2 TYR A   2       1.392   3.622  18.121  0.00  0.00    +0.000 A 
ATOM     23  CD2 TYR A   2       2.313   4.591  17.731  0.00  0.00    +0.000 A 
BRANCH  21  24
ATOM     24  OH  TYR A   2       0.107   2.568  19.797  0.00  0.00    +0.000 OA
ATOM     25  HH  TYR A   2      -0.774   2.975  19.746  0.00  0.00    +0.000 HD
ENDBRANCH  21  24
ENDBRANCH  17  18
ENDBRANCH   1  17
TORSDOF 10
ENDMDL
MODEL 7
REMARK VINA RESULT:      -6.3      2.829      4.171
REMARK  Name = 
REMARK  10 active torsions:
REMARK  status: ('A' for Active; 'I' for Inactive)
REMARK    1  A    between atoms: N_1  and  CA_2
REMARK    2  A    between atoms: CA_2  and  CB_3
REMARK    3  A    between atoms: CA_2  and  C_5
REMARK    4  A    between atoms: CB_3  and  OG_4
REMARK    5  A    between atoms: N_7  and  CA_8
REMARK    6  A    between atoms: CA_8  and  CB_9
REMARK    7  A    between atoms: CA_8  and  C_17
REMARK    8  A    between atoms: CB_9  and  CG_10
REMARK    9  A    between atoms: CZ_13  and  OH_14
REMARK   10  A    between atoms: C_17  and  OXT_19
REMARK                            x       y       z     vdW  Elec       q    Type
REMARK                         _______ _______ _______ _____ _____    ______ ____
ROOT
ATOM      1  CA  TYR A   2       4.096   3.731  19.032  0.00  0.00    +0.000 C 
ENDROOT
BRANCH   1   4
ATOM      2  C   SER A   1       6.208   4.997  18.630  0.00  0.00    +0.000 C 
ATOM      3  O   SER A   1       6.174   5.485  19.757  0.00  0.00    +0.000 OA
ATOM      4  N   TYR A   2       5.266   4.087  18.228  0.00  0.00    +0.000 N 
ATOM      5  H   TYR A   2       5.455   3.605  17.350  0.00  0.00    +0.000 HD
BRANCH   2   6
ATOM      6  CA  SER A   1       7.350   5.210  17.632  0.00  0.00    +0.000 C 
BRANCH   6   7
ATOM      7  N   SER A   1       8.265   4.035  17.618  0.00  0.00    +0.000 NA
ATOM      8  H1  SER A   1       9.203   4.406  17.422  0.00  0.00    +0.000 HD
ATOM      9  H2  SER A   1       8.054   3.476  16.787  0.00  0.00    +0.000 HD
ENDBRANCH   6   7
BRANCH   6  10
ATOM     10  CB  SER A   1       6.804   5.520  16.234  0.00  0.00    +0.000 C 
BRANCH  10  11
ATOM     11  OG  SER A   1       7.552   4.802  15.250  0.00  0.00    +0.000 OA
ATOM     12  H   SER A   1       7.121   4.952  14.389  0.00  0.00    +0.000 HD
ENDBRANCH  10  11
ENDBRANCH   6  10
ENDBRANCH   2   6
ENDBRANCH   1   4
BRANCH   1  13
ATOM     13  C   TYR A   2       3.989   2.200  19.149  0.00  0.00    +0.000 C 
ATOM     14  O   TYR A   2       3.064   1.529  18.711  0.00  0.00    +0.000 OA
BRANCH  13  15
ATOM     15  OXT TYR A   2       5.000   1.639  19.862  0.00  0.00    +0.000 OA
ATOM     16  HXT TYR A   2       4.994   0.653  19.817  0.00  0.00    +0.000 HD
ENDBRANCH  13  15
ENDBRANCH   1  13
BRANCH   1  17
ATOM     17  CB  TYR A   2       2.797   4.311  18.453  0.00  0.00    +0.000 C 
BRANCH  17  18
ATOM     18  CG  TYR A   2       2.430   5.680  18.987  0.00  0.00    +0.000 A 
ATOM     19  CD1 TYR A   2       2.505   6.806  18.152  0.00  0.00    +0.000 A 
ATOM     20  CE1 TYR A   2       2.111   8.063  18.614  0.00  0.00    +0.000 A 
ATOM     21  CZ  TYR A   2       1.645   8.197  19.918  0.00  0.00    +0.000 A 
ATOM     22  CE2 TYR A   2       1.581   7.097  20.765  0.00  0.00    +0.000 A 
ATOM     23  CD2 TYR A   2       1.966   5.842  20.301  0.00  0.00    +0.000 A 
BRANCH  21  24
ATOM     24  OH  TYR A   2       1.223   9.401  20.399  0.00  0.00    +0.000 OA
ATOM     25  HH  TYR A   2       0.838   9.911  19.668  0.00  0.00    +0.000 HD
ENDBRANCH  21  24
ENDBRANCH  17  18
ENDBRANCH   1  17
TORSDOF 10
ENDMDL
MODEL 8
REMARK VINA RESULT:      -6.2      2.860      4.080
REMARK  Name = 
REMARK  10 active torsions:
REMARK  status: ('A' for Active; 'I' for Inactive)
REMARK    1  A    between atoms: N_1  and  CA_2
REMARK    2  A    between atoms: CA_2  and  CB_3
REMARK    3  A    between atoms: CA_2  and  C_5
REMARK    4  A    between atoms: CB_3  and  OG_4
REMARK    5  A    between atoms: N_7  and  CA_8
REMARK    6  A    between atoms: CA_8  and  CB_9
REMARK    7  A    between atoms: CA_8  and  C_17
REMARK    8  A    between atoms: CB_9  and  CG_10
REMARK    9  A    between atoms: CZ_13  and  OH_14
REMARK   10  A    between atoms: C_17  and  OXT_19
REMARK                            x       y       z     vdW  Elec       q    Type
REMARK                         _______ _______ _______ _____ _____    ______ ____
ROOT
ATOM      1  CA  TYR A   2       4.430   3.767  19.355  0.00  0.00    +0.000 C 
ENDROOT
BRANCH   1   4
ATOM      2  C   SER A   1       6.516   5.024  18.813  0.00  0.00    +0.000 C 
ATOM      3  O   SER A   1       6.670   5.350  19.988  0.00  0.00    +0.000 OA
ATOM      4  N   TYR A   2       5.484   4.203  18.439  0.00  0.00    +0.000 N 
ATOM      5  H   TYR A   2       5.521   3.844  17.485  0.00  0.00    +0.000 HD
BRANCH   2   6
ATOM      6  CA  SER A   1       7.508   5.347  17.692  0.00  0.00    +0.000 C 
BRANCH   6   7
ATOM      7  N   SER A   1       7.885   4.111  16.949  0.00  0.00    +0.000 NA
ATOM      8  H1  SER A   1       8.802   4.301  16.527  0.00  0.00    +0.000 HD
ATOM      9  H2  SER A   1       7.265   4.025  16.139  0.00  0.00    +0.000 HD
ENDBRANCH   6   7
BRANCH   6  10
ATOM     10  CB  SER A   1       6.945   6.422  16.755  0.00  0.00    +0.000 C 
BRANCH  10  11
ATOM     11  OG  SER A   1       7.546   7.685  17.049  0.00  0.00    +0.000 OA
ATOM     12  H   SER A   1       7.359   7.886  17.984  0.00  0.00    +0.000 HD
ENDBRANCH  10  11
ENDBRANCH   6  10
ENDBRANCH   2   6
ENDBRANCH   1   4
BRANCH   1  13
ATOM     13  C   TYR A   2       4.531   2.248  19.582  0.00  0.00    +0.000 C 
ATOM     14  O   TYR A   2       5.058   1.721  20.551  0.00  0.00    +0.000 OA
BRANCH  13  15
ATOM     15  OXT TYR A   2       4.035   1.513  18.554  0.00  0.00    +0.000 OA
ATOM     16  HXT TYR A   2       3.952   0.555  18.778  0.00  0.00    +0.000 HD
ENDBRANCH  13  15
ENDBRANCH   1  13
BRANCH   1  17
ATOM     17  CB  TYR A   2       3.029   4.135  18.843  0.00  0.00    +0.000 C 
BRANCH  17  18
ATOM     18  CG  TYR A   2       2.604   5.555  19.151  0.00  0.00    +0.000 A 
ATOM     19  CD1 TYR A   2       2.750   6.561  18.183  0.00  0.00    +0.000 A 
ATOM     20  CE1 TYR A   2       2.305   7.861  18.433  0.00  0.00    +0.000 A 
ATOM     21  CZ  TYR A   2       1.715   8.158  19.657  0.00  0.00    +0.000 A 
ATOM     22  CE2 TYR A   2       1.577   7.180  20.635  0.00  0.00    +0.000 A 
ATOM     23  CD2 TYR A   2       2.014   5.882  20.381  0.00  0.00    +0.000 A 
BRANCH  21  24
ATOM     24  OH  TYR A   2       1.241   9.407  19.930  0.00  0.00    +0.000 OA
ATOM     25  HH  TYR A   2       1.988  10.029  19.936  0.00  0.00    +0.000 HD
ENDBRANCH  21  24
ENDBRANCH  17  18
ENDBRANCH   1  17
TORSDOF 10
ENDMDL
MODEL 9
REMARK VINA RESULT:      -6.2      1.131      1.306
REMARK  Name = 
REMARK  10 active torsions:
REMARK  status: ('A' for Active; 'I' for Inactive)
REMARK    1  A    between atoms: N_1  and  CA_2
REMARK    2  A    between atoms: CA_2  and  CB_3
REMARK    3  A    between atoms: CA_2  and  C_5
REMARK    4  A    between atoms: CB_3  and  OG_4
REMARK    5  A    between atoms: N_7  and  CA_8
REMARK    6  A    between atoms: CA_8  and  CB_9
REMARK    7  A    between atoms: CA_8  and  C_17
REMARK    8  A    between atoms: CB_9  and  CG_10
REMARK    9  A    between atoms: CZ_13  and  OH_14
REMARK   10  A    between atoms: C_17  and  OXT_19
REMARK                            x       y       z     vdW  Elec       q    Type
REMARK                         _______ _______ _______ _____ _____    ______ ____
ROOT
ATOM      1  CA  TYR A   2       5.561   4.219  16.473  0.00  0.00    +0.000 C 
ENDROOT
BRANCH   1   4
ATOM      2  C   SER A   1       6.409   4.924  18.712  0.00  0.00    +0.000 C 
ATOM      3  O   SER A   1       5.946   3.918  19.245  0.00  0.00    +0.000 OA
ATOM      4  N   TYR A   2       6.315   5.108  17.356  0.00  0.00    +0.000 N 
ATOM      5  H   TYR A   2       6.865   5.875  16.970  0.00  0.00    +0.000 HD
BRANCH   2   6
ATOM      6  CA  SER A   1       7.255   5.974  19.437  0.00  0.00    +0.000 C 
BRANCH   6   7
ATOM      7  N   SER A   1       8.179   5.327  20.410  0.00  0.00    +0.000 NA
ATOM      8  H1  SER A   1       9.112   5.713  20.219  0.00  0.00    +0.000 HD
ATOM      9  H2  SER A   1       8.275   4.341  20.152  0.00  0.00    +0.000 HD
ENDBRANCH   6   7
BRANCH   6  10
ATOM     10  CB  SER A   1       8.012   6.854  18.436  0.00  0.00    +0.000 C 
BRANCH  10  11
ATOM     11  OG  SER A   1       8.751   7.859  19.134  0.00  0.00    +0.000 OA
ATOM     12  H   SER A   1       9.059   7.465  19.971  0.00  0.00    +0.000 HD
ENDBRANCH  10  11
ENDBRANCH   6  10
ENDBRANCH   2   6
ENDBRANCH   1   4
BRANCH   1  13
ATOM     13  C   TYR A   2       6.259   4.125  15.105  0.00  0.00    +0.000 C 
ATOM     14  O   TYR A   2       5.779   3.599  14.110  0.00  0.00    +0.000 OA
BRANCH  13  15
ATOM     15  OXT TYR A   2       7.521   4.626  15.106  0.00  0.00    +0.000 OA
ATOM     16  HXT TYR A   2       7.539   5.610  15.183  0.00  0.00    +0.000 HD
ENDBRANCH  13  15
ENDBRANCH   1  13
BRANCH   1  17
ATOM     17  CB  TYR A   2       4.105   4.677  16.295  0.00  0.00    +0.000 C 
BRANCH  17  18
ATOM     18  CG  TYR A   2       3.162   4.199  17.379  0.00  0.00    +0.000 A 
ATOM     19  CD1 TYR A   2       2.707   5.092  18.362  0.00  0.00    +0.000 A 
ATOM     20  CE1 TYR A   2       1.789   4.679  19.330  0.00  0.00    +0.000 A 
ATOM     21  CZ  TYR A   2       1.327   3.367  19.319  0.00  0.00    +0.000 A 
ATOM     22  CE2 TYR A   2       1.780   2.464  18.365  0.00  0.00    +0.000 A 
ATOM     23  CD2 TYR A   2       2.689   2.879  17.395  0.00  0.00    +0.000 A 
BRANCH  21  24
ATOM     24  OH  TYR A   2       0.409   2.931  20.228  0.00  0.00    +0.000 OA
ATOM     25  HH  TYR A   2      -0.432   2.772  19.769  0.00  0.00    +0.000 HD
ENDBRANCH  21  24
ENDBRANCH  17  18
ENDBRANCH   1  17
TORSDOF 10
ENDMDL
