MODEL 1
REMARK VINA RESULT:      -6.2      0.000      0.000
REMARK  Name = 
REMARK  1 active torsions:
REMARK  status: ('A' for Active; 'I' for Inactive)
REMARK    1  A    between atoms: C_1  and  C_2
REMARK                            x       y       z     vdW  Elec       q    Type
REMARK                         _______ _______ _______ _____ _____    ______ ____
ROOT
ATOM      1  C   UNL     1       7.008   4.891  15.098  0.00  0.00    +0.000 C 
ATOM      2  C   UNL     1       6.084   4.873  16.313  0.00  0.00    +0.000 C 
ATOM      3  C   UNL     1       4.823   4.041  16.018  0.00  0.00    +0.000 C 
ATOM      4  C   UNL     1       3.994   3.808  17.258  0.00  0.00    +0.000 A 
ATOM      5  C   UNL     1       2.669   3.369  17.140  0.00  0.00    +0.000 A 
ATOM      6  C   UNL     1       1.901   3.141  18.282  0.00  0.00    +0.000 A 
ATOM      7  C   UNL     1       2.458   3.347  19.540  0.00  0.00    +0.000 A 
ATOM      8 BR   UNL     1       1.408   3.058  21.086  0.00  0.00    +0.000 Br
ATOM      9  C   UNL     1       3.781   3.768  19.672  0.00  0.00    +0.000 A 
ATOM     10  C   UNL     1       4.567   3.987  18.531  0.00  0.00    +0.000 A 
ATOM     11  C   UNL     1       5.988   4.483  18.683  0.00  0.00    +0.000 C 
ATOM     12  N   UNL     1       6.805   4.325  17.473  0.00  0.00    +0.000 NA
ATOM     13  H   UNL     1       6.960   3.327  17.325  0.00  0.00    +0.000 HD
ENDROOT
TORSDOF 0
ENDMDL
MODEL 2
REMARK VINA RESULT:      -6.0      3.129      4.925
REMARK  Name = 
REMARK  1 active torsions:
REMARK  status: ('A' for Active; 'I' for Inactive)
REMARK    1  A    between atoms: C_1  and  C_2
REMARK                            x       y       z     vdW  Elec       q    Type
REMARK                         _______ _______ _______ _____ _____    ______ ____
ROOT
ATOM      1  C   UNL     1       0.982   3.595  20.480  0.00  0.00    +0.000 C 
ATOM      2  C   UNL     1       1.827   3.601  19.208  0.00  0.00    +0.000 C 
ATOM      3  C   UNL     1       2.534   4.959  19.040  0.00  0.00    +0.000 C 
ATOM      4  C   UNL     1       3.552   4.933  17.925  0.00  0.00    +0.000 A 
ATOM      5  C   UNL     1       4.051   6.135  17.406  0.00  0.00    +0.000 A 
ATOM      6  C   UNL     1       5.000   6.118  16.384  0.00  0.00    +0.000 A 
ATOM      7  C   UNL     1       5.454   4.902  15.885  0.00  0.00    +0.000 A 
ATOM      8 BR   UNL     1       6.724   4.882  14.484  0.00  0.00    +0.000 Br
ATOM      9  C   UNL     1       4.979   3.698  16.403  0.00  0.00    +0.000 A 
ATOM     10  C   UNL     1       4.034   3.702  17.441  0.00  0.00    +0.000 A 
ATOM     11  C   UNL     1       3.494   2.392  17.969  0.00  0.00    +0.000 C 
ATOM     12  N   UNL     1       2.811   2.509  19.264  0.00  0.00    +0.000 NA
ATOM     13  H   UNL     1       3.513   2.732  19.971  0.00  0.00    +0.000 HD
ENDROOT
TORSDOF 0
ENDMDL
MODEL 3
REMARK VINA RESULT:      -5.8      1.562      1.781
REMARK  Name = 
REMARK  1 active torsions:
REMARK  status: ('A' for Active; 'I' for Inactive)
REMARK    1  A    between atoms: C_1  and  C_2
REMARK                            x       y       z     vdW  Elec       q    Type
REMARK                         _______ _______ _______ _____ _____    ______ ____
ROOT
ATOM      1  C   UNL     1       6.933   4.844  14.047  0.00  0.00    +0.000 C 
ATOM      2  C   UNL     1       5.774   5.088  15.011  0.00  0.00    +0.000 C 
ATOM      3  C   UNL     1       5.507   3.831  15.860  0.00  0.00    +0.000 C 
ATOM      4  C   UNL     1       4.527   4.099  16.976  0.00  0.00    +0.000 A 
ATOM      5  C   UNL     1       3.912   3.028  17.638  0.00  0.00    +0.000 A 
ATOM      6  C   UNL     1       3.014   3.267  18.678  0.00  0.00    +0.000 A 
ATOM      7  C   UNL     1       2.734   4.576  19.060  0.00  0.00    +0.000 A 
ATOM      8 BR   UNL     1       1.500   4.899  20.455  0.00  0.00    +0.000 Br
ATOM      9  C   UNL     1       3.352   5.651  18.421  0.00  0.00    +0.000 A 
ATOM     10  C   UNL     1       4.267   5.421  17.382  0.00  0.00    +0.000 A 
ATOM     11  C   UNL     1       4.901   6.594  16.668  0.00  0.00    +0.000 C 
ATOM     12  N   UNL     1       6.084   6.239  15.875  0.00  0.00    +0.000 NA
ATOM     13  H   UNL     1       6.829   5.976  16.521  0.00  0.00    +0.000 HD
ENDROOT
TORSDOF 0
ENDMDL
MODEL 4
REMARK VINA RESULT:      -5.8      3.123      4.594
REMARK  Name = 
REMARK  1 active torsions:
REMARK  status: ('A' for Active; 'I' for Inactive)
REMARK    1  A    between atoms: C_1  and  C_2
REMARK                            x       y       z     vdW  Elec       q    Type
REMARK                         _______ _______ _______ _____ _____    ______ ____
ROOT
ATOM      1  C   UNL     1       0.697   2.305  18.880  0.00  0.00    +0.000 C 
ATOM      2  C   UNL     1       2.104   2.829  18.601  0.00  0.00    +0.000 C 
ATOM      3  C   UNL     1       2.051   4.307  18.171  0.00  0.00    +0.000 C 
ATOM      4  C   UNL     1       3.426   4.927  18.106  0.00  0.00    +0.000 A 
ATOM      5  C   UNL     1       3.614   6.139  17.427  0.00  0.00    +0.000 A 
ATOM      6  C   UNL     1       4.880   6.723  17.373  0.00  0.00    +0.000 A 
ATOM      7  C   UNL     1       5.955   6.100  17.999  0.00  0.00    +0.000 A 
ATOM      8 BR   UNL     1       7.673   6.883  17.905  0.00  0.00    +0.000 Br
ATOM      9  C   UNL     1       5.778   4.903  18.692  0.00  0.00    +0.000 A 
ATOM     10  C   UNL     1       4.507   4.313  18.765  0.00  0.00    +0.000 A 
ATOM     11  C   UNL     1       4.333   2.993  19.484  0.00  0.00    +0.000 C 
ATOM     12  N   UNL     1       2.937   2.670  19.803  0.00  0.00    +0.000 NA
ATOM     13  H   UNL     1       2.616   3.327  20.517  0.00  0.00    +0.000 HD
ENDROOT
TORSDOF 0
ENDMDL
MODEL 5
REMARK VINA RESULT:      -5.7      2.996      4.652
REMARK  Name = 
REMARK  1 active torsions:
REMARK  status: ('A' for Active; 'I' for Inactive)
REMARK    1  A    between atoms: C_1  and  C_2
REMARK                            x       y       z     vdW  Elec       q    Type
REMARK                         _______ _______ _______ _____ _____    ______ ____
ROOT
ATOM      1  C   UNL     1       0.690   2.262  18.753  0.00  0.00    +0.000 C 
ATOM      2  C   UNL     1       2.001   3.040  18.843  0.00  0.00    +0.000 C 
ATOM      3  C   UNL     1       2.625   3.204  17.445  0.00  0.00    +0.000 C 
ATOM      4  C   UNL     1       3.797   4.155  17.457  0.00  0.00    +0.000 A 
ATOM      5  C   UNL     1       4.688   4.180  16.375  0.00  0.00    +0.000 A 
ATOM      6  C   UNL     1       5.766   5.065  16.373  0.00  0.00    +0.000 A 
ATOM      7  C   UNL     1       5.951   5.928  17.449  0.00  0.00    +0.000 A 
ATOM      8 BR   UNL     1       7.426   7.111  17.455  0.00  0.00    +0.000 Br
ATOM      9  C   UNL     1       5.063   5.926  18.524  0.00  0.00    +0.000 A 
ATOM     10  C   UNL     1       3.967   5.050  18.530  0.00  0.00    +0.000 A 
ATOM     11  C   UNL     1       3.032   5.026  19.719  0.00  0.00    +0.000 C 
ATOM     12  N   UNL     1       1.753   4.355  19.456  0.00  0.00    +0.000 NA
ATOM     13  H   UNL     1       1.223   4.931  18.800  0.00  0.00    +0.000 HD
ENDROOT
TORSDOF 0
ENDMDL
MODEL 6
REMARK VINA RESULT:      -5.7      2.987      5.053
REMARK  Name = 
REMARK  1 active torsions:
REMARK  status: ('A' for Active; 'I' for Inactive)
REMARK    1  A    between atoms: C_1  and  C_2
REMARK                            x       y       z     vdW  Elec       q    Type
REMARK                         _______ _______ _______ _____ _____    ______ ____
ROOT
ATOM      1  C   UNL     1       1.180   2.891  21.145  0.00  0.00    +0.000 C 
ATOM      2  C   UNL     1       1.917   3.283  19.866  0.00  0.00    +0.000 C 
ATOM      3  C   UNL     1       3.215   4.039  20.204  0.00  0.00    +0.000 C 
ATOM      4  C   UNL     1       4.084   4.245  18.987  0.00  0.00    +0.000 A 
ATOM      5  C   UNL     1       5.125   5.182  19.022  0.00  0.00    +0.000 A 
ATOM      6  C   UNL     1       5.939   5.370  17.905  0.00  0.00    +0.000 A 
ATOM      7  C   UNL     1       5.717   4.618  16.756  0.00  0.00    +0.000 A 
ATOM      8 BR   UNL     1       6.807   4.890  15.235  0.00  0.00    +0.000 Br
ATOM      9  C   UNL     1       4.695   3.671  16.713  0.00  0.00    +0.000 A 
ATOM     10  C   UNL     1       3.878   3.463  17.835  0.00  0.00    +0.000 A 
ATOM     11  C   UNL     1       2.746   2.462  17.765  0.00  0.00    +0.000 C 
ATOM     12  N   UNL     1       2.212   2.076  19.077  0.00  0.00    +0.000 NA
ATOM     13  H   UNL     1       2.927   1.532  19.561  0.00  0.00    +0.000 HD
ENDROOT
TORSDOF 0
ENDMDL
MODEL 7
REMARK VINA RESULT:      -5.6      1.055      1.057
REMARK  Name = 
REMARK  1 active torsions:
REMARK  status: ('A' for Active; 'I' for Inactive)
REMARK    1  A    between atoms: C_1  and  C_2
REMARK                            x       y       z     vdW  Elec       q    Type
REMARK                         _______ _______ _______ _____ _____    ______ ____
ROOT
ATOM      1  C   UNL     1       6.173   5.181  14.890  0.00  0.00    +0.000 C 
ATOM      2  C   UNL     1       5.200   5.074  16.061  0.00  0.00    +0.000 C 
ATOM      3  C   UNL     1       4.792   3.606  16.288  0.00  0.00    +0.000 C 
ATOM      4  C   UNL     1       4.015   3.426  17.569  0.00  0.00    +0.000 A 
ATOM      5  C   UNL     1       3.283   2.250  17.783  0.00  0.00    +0.000 A 
ATOM      6  C   UNL     1       2.571   2.072  18.969  0.00  0.00    +0.000 A 
ATOM      7  C   UNL     1       2.596   3.065  19.944  0.00  0.00    +0.000 A 
ATOM      8 BR   UNL     1       1.613   2.830  21.542  0.00  0.00    +0.000 Br
ATOM      9  C   UNL     1       3.334   4.232  19.751  0.00  0.00    +0.000 A 
ATOM     10  C   UNL     1       4.064   4.417  18.568  0.00  0.00    +0.000 A 
ATOM     11  C   UNL     1       4.828   5.704  18.351  0.00  0.00    +0.000 C 
ATOM     12  N   UNL     1       5.823   5.630  17.273  0.00  0.00    +0.000 NA
ATOM     13  H   UNL     1       6.571   5.005  17.577  0.00  0.00    +0.000 HD
ENDROOT
TORSDOF 0
ENDMDL
MODEL 8
REMARK VINA RESULT:      -5.5      3.200      4.948
REMARK  Name = 
REMARK  1 active torsions:
REMARK  status: ('A' for Active; 'I' for Inactive)
REMARK    1  A    between atoms: C_1  and  C_2
REMARK                            x       y       z     vdW  Elec       q    Type
REMARK                         _______ _______ _______ _____ _____    ______ ____
ROOT
ATOM      1  C   UNL     1       1.409   2.523  21.900  0.00  0.00    +0.000 C 
ATOM      2  C   UNL     1       2.277   3.416  21.016  0.00  0.00    +0.000 C 
ATOM      3  C   UNL     1       2.632   2.691  19.705  0.00  0.00    +0.000 C 
ATOM      4  C   UNL     1       3.294   3.613  18.710  0.00  0.00    +0.000 A 
ATOM      5  C   UNL     1       3.979   3.078  17.611  0.00  0.00    +0.000 A 
ATOM      6  C   UNL     1       4.583   3.925  16.681  0.00  0.00    +0.000 A 
ATOM      7  C   UNL     1       4.498   5.304  16.846  0.00  0.00    +0.000 A 
ATOM      8 BR   UNL     1       5.336   6.449  15.596  0.00  0.00    +0.000 Br
ATOM      9  C   UNL     1       3.804   5.849  17.926  0.00  0.00    +0.000 A 
ATOM     10  C   UNL     1       3.181   5.008  18.860  0.00  0.00    +0.000 A 
ATOM     11  C   UNL     1       2.466   5.608  20.050  0.00  0.00    +0.000 C 
ATOM     12  N   UNL     1       1.565   4.673  20.736  0.00  0.00    +0.000 NA
ATOM     13  H   UNL     1       0.781   4.477  20.113  0.00  0.00    +0.000 HD
ENDROOT
TORSDOF 0
ENDMDL
MODEL 9
REMARK VINA RESULT:      -5.5      2.835      2.999
REMARK  Name = 
REMARK  1 active torsions:
REMARK  status: ('A' for Active; 'I' for Inactive)
REMARK    1  A    between atoms: C_1  and  C_2
REMARK                            x       y       z     vdW  Elec       q    Type
REMARK                         _______ _______ _______ _____ _____    ______ ____
ROOT
ATOM      1  C   UNL     1       6.425   4.022  15.703  0.00  0.00    +0.000 C 
ATOM      2  C   UNL     1       5.726   4.652  16.906  0.00  0.00    +0.000 C 
ATOM      3  C   UNL     1       4.821   5.813  16.454  0.00  0.00    +0.000 C 
ATOM      4  C   UNL     1       3.942   6.315  17.574  0.00  0.00    +0.000 A 
ATOM      5  C   UNL     1       3.304   7.557  17.459  0.00  0.00    +0.000 A 
ATOM      6  C   UNL     1       2.481   8.022  18.485  0.00  0.00    +0.000 A 
ATOM      7  C   UNL     1       2.292   7.244  19.623  0.00  0.00    +0.000 A 
ATOM      8 BR   UNL     1       1.194   7.886  21.022  0.00  0.00    +0.000 Br
ATOM      9  C   UNL     1       2.908   5.998  19.743  0.00  0.00    +0.000 A 
ATOM     10  C   UNL     1       3.727   5.515  18.712  0.00  0.00    +0.000 A 
ATOM     11  C   UNL     1       4.422   4.181  18.869  0.00  0.00    +0.000 C 
ATOM     12  N   UNL     1       4.939   3.628  17.611  0.00  0.00    +0.000 NA
ATOM     13  H   UNL     1       4.141   3.366  17.030  0.00  0.00    +0.000 HD
ENDROOT
TORSDOF 0
ENDMDL
