MODEL 1
REMARK VINA RESULT:      -8.3      0.000      0.000
REMARK  Name = 
REMARK  7 active torsions:
REMARK  status: ('A' for Active; 'I' for Inactive)
REMARK    1  A    between atoms: C_1  and  C_2
REMARK    2  A    between atoms: C_2  and  C_4
REMARK    3  A    between atoms: C_9  and  N_10
REMARK    4  A    between atoms: C_11  and  C_23
REMARK    5  A    between atoms: N_12  and  S_13
REMARK    6  A    between atoms: S_13  and  C_16
REMARK    7  A    between atoms: C_19  and  C_20
REMARK                            x       y       z     vdW  Elec       q    Type
REMARK                         _______ _______ _______ _____ _____    ______ ____
ROOT
ATOM      1  N   UNL     1      -1.733  12.349  18.726  0.00  0.00    +0.000 N 
ATOM      2  C   UNL     1      -0.671  11.821  19.478  0.00  0.00    +0.000 C 
ATOM      3  N   UNL     1      -0.794  10.672  20.093  0.00  0.00    +0.000 NA
ATOM      4  H   UNL     1      -1.574  13.211  18.198  0.00  0.00    +0.000 HD
ENDROOT
BRANCH   1  10
ATOM      5  C   UNL     1      -3.686  11.202  17.685  0.00  0.00    +0.000 A 
ATOM      6  C   UNL     1      -5.078  11.020  17.589  0.00  0.00    +0.000 A 
ATOM      7  C   UNL     1      -5.876  11.590  18.548  0.00  0.00    +0.000 A 
ATOM      8  C   UNL     1      -5.341  12.278  19.605  0.00  0.00    +0.000 A 
ATOM      9  C   UNL     1      -3.982  12.478  19.740  0.00  0.00    +0.000 A 
ATOM     10  C   UNL     1      -3.112  11.990  18.746  0.00  0.00    +0.000 A 
ATOM     11  O   UNL     1      -6.294  12.739  20.458  0.00  0.00    +0.000 OA
ATOM     12  C   UNL     1      -7.494  12.295  19.794  0.00  0.00    +0.000 C 
ATOM     13  O   UNL     1      -7.230  11.552  18.588  0.00  0.00    +0.000 OA
BRANCH   5  15
ATOM     14  C   UNL     1      -3.072  10.767  15.204  0.00  0.00    +0.000 C 
ATOM     15  C   UNL     1      -2.815  10.525  16.675  0.00  0.00    +0.000 C 
ATOM     16  O   UNL     1      -1.917   9.775  17.057  0.00  0.00    +0.000 OA
ENDBRANCH   5  15
ENDBRANCH   1  10
BRANCH   2  17
ATOM     17  C   UNL     1       0.592  12.685  19.517  0.00  0.00    +0.000 A 
ATOM     18  C   UNL     1       1.612  12.531  18.566  0.00  0.00    +0.000 A 
ATOM     19  C   UNL     1       2.717  13.385  18.526  0.00  0.00    +0.000 A 
ATOM     20  C   UNL     1       2.876  14.328  19.523  0.00  0.00    +0.000 A 
ATOM     21  F   UNL     1       3.947  15.132  19.509  0.00  0.00    +0.000 F 
ATOM     22  C   UNL     1       1.945  14.429  20.551  0.00  0.00    +0.000 A 
ATOM     23  C   UNL     1       0.793  13.621  20.543  0.00  0.00    +0.000 A 
ENDBRANCH   2  17
BRANCH   3  24
ATOM     24  S   UNL     1       0.357   9.896  20.927  0.00  0.00    +0.000 S 
ATOM     25  O   UNL     1       1.368  10.847  21.352  0.00  0.00    +0.000 OA
ATOM     26  O   UNL     1      -0.257   8.996  21.882  0.00  0.00    +0.000 OA
BRANCH  24  27
ATOM     27  C   UNL     1       1.154   8.760  19.788  0.00  0.00    +0.000 A 
ATOM     28  C   UNL     1       1.479   9.189  18.498  0.00  0.00    +0.000 A 
ATOM     29  C   UNL     1       2.409   8.467  17.742  0.00  0.00    +0.000 A 
ATOM     30  C   UNL     1       3.022   7.321  18.267  0.00  0.00    +0.000 A 
ATOM     31  C   UNL     1       4.098   6.601  17.505  0.00  0.00    +0.000 C 
ATOM     32  C   UNL     1       2.654   6.874  19.543  0.00  0.00    +0.000 A 
ATOM     33  C   UNL     1       1.724   7.589  20.305  0.00  0.00    +0.000 A 
ENDBRANCH  24  27
ENDBRANCH   3  24
TORSDOF 5
ENDMDL
MODEL 2
REMARK VINA RESULT:      -8.3      0.627      1.057
REMARK  Name = 
REMARK  7 active torsions:
REMARK  status: ('A' for Active; 'I' for Inactive)
REMARK    1  A    between atoms: C_1  and  C_2
REMARK    2  A    between atoms: C_2  and  C_4
REMARK    3  A    between atoms: C_9  and  N_10
REMARK    4  A    between atoms: C_11  and  C_23
REMARK    5  A    between atoms: N_12  and  S_13
REMARK    6  A    between atoms: S_13  and  C_16
REMARK    7  A    between atoms: C_19  and  C_20
REMARK                            x       y       z     vdW  Elec       q    Type
REMARK                         _______ _______ _______ _____ _____    ______ ____
ROOT
ATOM      1  N   UNL     1      -2.101  12.616  18.978  0.00  0.00    +0.000 N 
ATOM      2  C   UNL     1      -0.932  12.190  19.630  0.00  0.00    +0.000 C 
ATOM      3  N   UNL     1      -0.917  11.074  20.313  0.00  0.00    +0.000 NA
ATOM      4  H   UNL     1      -2.054  13.453  18.392  0.00  0.00    +0.000 HD
ENDROOT
BRANCH   1  10
ATOM      5  C   UNL     1      -4.083  11.304  18.230  0.00  0.00    +0.000 A 
ATOM      6  C   UNL     1      -5.463  11.041  18.301  0.00  0.00    +0.000 A 
ATOM      7  C   UNL     1      -6.184  11.624  19.313  0.00  0.00    +0.000 A 
ATOM      8  C   UNL     1      -5.579  12.403  20.263  0.00  0.00    +0.000 A 
ATOM      9  C   UNL     1      -4.228  12.684  20.232  0.00  0.00    +0.000 A 
ATOM     10  C   UNL     1      -3.445  12.184  19.174  0.00  0.00    +0.000 A 
ATOM     11  O   UNL     1      -6.458  12.862  21.192  0.00  0.00    +0.000 OA
ATOM     12  C   UNL     1      -7.695  12.314  20.694  0.00  0.00    +0.000 C 
ATOM     13  O   UNL     1      -7.521  11.515  19.507  0.00  0.00    +0.000 OA
BRANCH   5  15
ATOM     14  C   UNL     1      -3.581  10.925  15.714  0.00  0.00    +0.000 C 
ATOM     15  C   UNL     1      -3.289  10.615  17.165  0.00  0.00    +0.000 C 
ATOM     16  O   UNL     1      -2.425   9.799  17.488  0.00  0.00    +0.000 OA
ENDBRANCH   5  15
ENDBRANCH   1  10
BRANCH   2  17
ATOM     17  C   UNL     1       0.273  13.122  19.480  0.00  0.00    +0.000 A 
ATOM     18  C   UNL     1       0.466  14.211  20.345  0.00  0.00    +0.000 A 
ATOM     19  C   UNL     1       1.616  15.002  20.288  0.00  0.00    +0.000 A 
ATOM     20  C   UNL     1       2.531  14.789  19.275  0.00  0.00    +0.000 A 
ATOM     21  F   UNL     1       3.622  15.562  19.195  0.00  0.00    +0.000 F 
ATOM     22  C   UNL     1       2.312  13.795  18.327  0.00  0.00    +0.000 A 
ATOM     23  C   UNL     1       1.194  12.949  18.435  0.00  0.00    +0.000 A 
ENDBRANCH   2  17
BRANCH   3  24
ATOM     24  S   UNL     1       0.365  10.410  21.049  0.00  0.00    +0.000 S 
ATOM     25  O   UNL     1       1.397  11.417  21.221  0.00  0.00    +0.000 OA
ATOM     26  O   UNL     1      -0.079   9.609  22.171  0.00  0.00    +0.000 OA
BRANCH  24  27
ATOM     27  C   UNL     1       1.027   9.170  19.933  0.00  0.00    +0.000 A 
ATOM     28  C   UNL     1       1.330   9.518  18.614  0.00  0.00    +0.000 A 
ATOM     29  C   UNL     1       2.171   8.696  17.856  0.00  0.00    +0.000 A 
ATOM     30  C   UNL     1       2.717   7.528  18.408  0.00  0.00    +0.000 A 
ATOM     31  C   UNL     1       3.703   6.697  17.639  0.00  0.00    +0.000 C 
ATOM     32  C   UNL     1       2.369   7.164  19.715  0.00  0.00    +0.000 A 
ATOM     33  C   UNL     1       1.527   7.981  20.480  0.00  0.00    +0.000 A 
ENDBRANCH  24  27
ENDBRANCH   3  24
TORSDOF 5
ENDMDL
MODEL 3
REMARK VINA RESULT:      -8.1      0.569      1.025
REMARK  Name = 
REMARK  7 active torsions:
REMARK  status: ('A' for Active; 'I' for Inactive)
REMARK    1  A    between atoms: C_1  and  C_2
REMARK    2  A    between atoms: C_2  and  C_4
REMARK    3  A    between atoms: C_9  and  N_10
REMARK    4  A    between atoms: C_11  and  C_23
REMARK    5  A    between atoms: N_12  and  S_13
REMARK    6  A    between atoms: S_13  and  C_16
REMARK    7  A    between atoms: C_19  and  C_20
REMARK                            x       y       z     vdW  Elec       q    Type
REMARK                         _______ _______ _______ _____ _____    ______ ____
ROOT
ATOM      1  N   UNL     1      -1.628  12.214  18.418  0.00  0.00    +0.000 N 
ATOM      2  C   UNL     1      -0.618  11.854  19.324  0.00  0.00    +0.000 C 
ATOM      3  N   UNL     1      -0.770  10.827  20.121  0.00  0.00    +0.000 NA
ATOM      4  H   UNL     1      -1.443  12.975  17.759  0.00  0.00    +0.000 HD
ENDROOT
BRANCH   1  10
ATOM      5  C   UNL     1      -3.517  10.977  17.363  0.00  0.00    +0.000 A 
ATOM      6  C   UNL     1      -4.900  10.760  17.223  0.00  0.00    +0.000 A 
ATOM      7  C   UNL     1      -5.746  11.360  18.122  0.00  0.00    +0.000 A 
ATOM      8  C   UNL     1      -5.266  12.110  19.163  0.00  0.00    +0.000 A 
ATOM      9  C   UNL     1      -3.917  12.345  19.339  0.00  0.00    +0.000 A 
ATOM     10  C   UNL     1      -3.000  11.827  18.404  0.00  0.00    +0.000 A 
ATOM     11  O   UNL     1      -6.259  12.591  19.955  0.00  0.00    +0.000 OA
ATOM     12  C   UNL     1      -7.424  12.090  19.269  0.00  0.00    +0.000 C 
ATOM     13  O   UNL     1      -7.099  11.294  18.112  0.00  0.00    +0.000 OA
BRANCH   5  15
ATOM     14  C   UNL     1      -2.906  10.280  14.941  0.00  0.00    +0.000 C 
ATOM     15  C   UNL     1      -2.594  10.269  16.421  0.00  0.00    +0.000 C 
ATOM     16  O   UNL     1      -1.609   9.681  16.867  0.00  0.00    +0.000 OA
ENDBRANCH   5  15
ENDBRANCH   1  10
BRANCH   2  17
ATOM     17  C   UNL     1       0.627  12.745  19.299  0.00  0.00    +0.000 A 
ATOM     18  C   UNL     1       1.734  12.432  18.496  0.00  0.00    +0.000 A 
ATOM     19  C   UNL     1       2.829  13.292  18.382  0.00  0.00    +0.000 A 
ATOM     20  C   UNL     1       2.883  14.422  19.175  0.00  0.00    +0.000 A 
ATOM     21  F   UNL     1       3.942  15.238  19.094  0.00  0.00    +0.000 F 
ATOM     22  C   UNL     1       1.857  14.702  20.072  0.00  0.00    +0.000 A 
ATOM     23  C   UNL     1       0.721  13.875  20.126  0.00  0.00    +0.000 A 
ENDBRANCH   2  17
BRANCH   3  24
ATOM     24  S   UNL     1       0.327  10.239  21.157  0.00  0.00    +0.000 S 
ATOM     25  O   UNL     1       1.211  11.310  21.584  0.00  0.00    +0.000 OA
ATOM     26  O   UNL     1      -0.328   9.392  22.133  0.00  0.00    +0.000 OA
BRANCH  24  27
ATOM     27  C   UNL     1       1.333   9.065  20.246  0.00  0.00    +0.000 A 
ATOM     28  C   UNL     1       1.702   7.858  20.847  0.00  0.00    +0.000 A 
ATOM     29  C   UNL     1       2.153   6.798  20.053  0.00  0.00    +0.000 A 
ATOM     30  C   UNL     1       2.234   6.932  18.660  0.00  0.00    +0.000 A 
ATOM     31  C   UNL     1       2.615   5.768  17.792  0.00  0.00    +0.000 C 
ATOM     32  C   UNL     1       1.907   8.161  18.073  0.00  0.00    +0.000 A 
ATOM     33  C   UNL     1       1.456   9.226  18.860  0.00  0.00    +0.000 A 
ENDBRANCH  24  27
ENDBRANCH   3  24
TORSDOF 5
ENDMDL
MODEL 4
REMARK VINA RESULT:      -8.1      1.008      1.062
REMARK  Name = 
REMARK  7 active torsions:
REMARK  status: ('A' for Active; 'I' for Inactive)
REMARK    1  A    between atoms: C_1  and  C_2
REMARK    2  A    between atoms: C_2  and  C_4
REMARK    3  A    between atoms: C_9  and  N_10
REMARK    4  A    between atoms: C_11  and  C_23
REMARK    5  A    between atoms: N_12  and  S_13
REMARK    6  A    between atoms: S_13  and  C_16
REMARK    7  A    between atoms: C_19  and  C_20
REMARK                            x       y       z     vdW  Elec       q    Type
REMARK                         _______ _______ _______ _____ _____    ______ ____
ROOT
ATOM      1  N   UNL     1      -2.233  12.689  19.055  0.00  0.00    +0.000 N 
ATOM      2  C   UNL     1      -1.039  12.288  19.675  0.00  0.00    +0.000 C 
ATOM      3  N   UNL     1      -0.989  11.189  20.383  0.00  0.00    +0.000 NA
ATOM      4  H   UNL     1      -2.214  13.512  18.448  0.00  0.00    +0.000 HD
ENDROOT
BRANCH   1  10
ATOM      5  C   UNL     1      -4.296  11.498  18.322  0.00  0.00    +0.000 A 
ATOM      6  C   UNL     1      -5.671  11.243  18.476  0.00  0.00    +0.000 A 
ATOM      7  C   UNL     1      -6.296  11.709  19.606  0.00  0.00    +0.000 A 
ATOM      8  C   UNL     1      -5.600  12.362  20.589  0.00  0.00    +0.000 A 
ATOM      9  C   UNL     1      -4.250  12.630  20.480  0.00  0.00    +0.000 A 
ATOM     10  C   UNL     1      -3.566  12.252  19.309  0.00  0.00    +0.000 A 
ATOM     11  O   UNL     1      -6.392  12.716  21.635  0.00  0.00    +0.000 OA
ATOM     12  C   UNL     1      -7.676  12.245  21.179  0.00  0.00    +0.000 C 
ATOM     13  O   UNL     1      -7.614  11.592  19.896  0.00  0.00    +0.000 OA
BRANCH   5  15
ATOM     14  C   UNL     1      -2.686   9.744  17.295  0.00  0.00    +0.000 C 
ATOM     15  C   UNL     1      -3.605  10.933  17.122  0.00  0.00    +0.000 C 
ATOM     16  O   UNL     1      -3.784  11.454  16.020  0.00  0.00    +0.000 OA
ENDBRANCH   5  15
ENDBRANCH   1  10
BRANCH   2  17
ATOM     17  C   UNL     1       0.153  13.226  19.461  0.00  0.00    +0.000 A 
ATOM     18  C   UNL     1       1.121  12.964  18.480  0.00  0.00    +0.000 A 
ATOM     19  C   UNL     1       2.151  13.866  18.201  0.00  0.00    +0.000 A 
ATOM     20  C   UNL     1       2.297  14.988  18.995  0.00  0.00    +0.000 A 
ATOM     21  F   UNL     1       3.299  15.843  18.755  0.00  0.00    +0.000 F 
ATOM     22  C   UNL     1       1.426  15.218  20.055  0.00  0.00    +0.000 A 
ATOM     23  C   UNL     1       0.343  14.348  20.281  0.00  0.00    +0.000 A 
ENDBRANCH   2  17
BRANCH   3  24
ATOM     24  S   UNL     1       0.323  10.553  21.089  0.00  0.00    +0.000 S 
ATOM     25  O   UNL     1       1.350  11.572  21.204  0.00  0.00    +0.000 OA
ATOM     26  O   UNL     1      -0.074   9.773  22.243  0.00  0.00    +0.000 OA
BRANCH  24  27
ATOM     27  C   UNL     1       0.958   9.295  19.977  0.00  0.00    +0.000 A 
ATOM     28  C   UNL     1       1.241   9.625  18.649  0.00  0.00    +0.000 A 
ATOM     29  C   UNL     1       2.064   8.787  17.888  0.00  0.00    +0.000 A 
ATOM     30  C   UNL     1       2.612   7.624  18.445  0.00  0.00    +0.000 A 
ATOM     31  C   UNL     1       3.580   6.777  17.670  0.00  0.00    +0.000 C 
ATOM     32  C   UNL     1       2.285   7.278  19.762  0.00  0.00    +0.000 A 
ATOM     33  C   UNL     1       1.461   8.109  20.530  0.00  0.00    +0.000 A 
ENDBRANCH  24  27
ENDBRANCH   3  24
TORSDOF 5
ENDMDL
MODEL 5
REMARK VINA RESULT:      -7.9      3.358      6.643
REMARK  Name = 
REMARK  7 active torsions:
REMARK  status: ('A' for Active; 'I' for Inactive)
REMARK    1  A    between atoms: C_1  and  C_2
REMARK    2  A    between atoms: C_2  and  C_4
REMARK    3  A    between atoms: C_9  and  N_10
REMARK    4  A    between atoms: C_11  and  C_23
REMARK    5  A    between atoms: N_12  and  S_13
REMARK    6  A    between atoms: S_13  and  C_16
REMARK    7  A    between atoms: C_19  and  C_20
REMARK                            x       y       z     vdW  Elec       q    Type
REMARK                         _______ _______ _______ _____ _____    ______ ____
ROOT
ATOM      1  N   UNL     1       0.398  13.973  21.443  0.00  0.00    +0.000 N 
ATOM      2  C   UNL     1      -0.248  12.737  21.273  0.00  0.00    +0.000 C 
ATOM      3  N   UNL     1       0.370  11.732  20.707  0.00  0.00    +0.000 NA
ATOM      4  H   UNL     1      -0.089  14.710  21.956  0.00  0.00    +0.000 HD
ENDROOT
BRANCH   1  10
ATOM      5  C   UNL     1       1.552  14.897  19.437  0.00  0.00    +0.000 A 
ATOM      6  C   UNL     1       2.743  15.183  18.744  0.00  0.00    +0.000 A 
ATOM      7  C   UNL     1       3.932  15.062  19.419  0.00  0.00    +0.000 A 
ATOM      8  C   UNL     1       3.969  14.723  20.745  0.00  0.00    +0.000 A 
ATOM      9  C   UNL     1       2.825  14.437  21.463  0.00  0.00    +0.000 A 
ATOM     10  C   UNL     1       1.578  14.462  20.809  0.00  0.00    +0.000 A 
ATOM     11  O   UNL     1       5.236  14.684  21.234  0.00  0.00    +0.000 OA
ATOM     12  C   UNL     1       5.996  15.001  20.051  0.00  0.00    +0.000 C 
ATOM     13  O   UNL     1       5.168  15.256  18.899  0.00  0.00    +0.000 OA
BRANCH   5  15
ATOM     14  C   UNL     1      -0.285  16.496  18.545  0.00  0.00    +0.000 C 
ATOM     15  C   UNL     1       0.255  15.093  18.718  0.00  0.00    +0.000 C 
ATOM     16  O   UNL     1      -0.356  14.111  18.295  0.00  0.00    +0.000 OA
ENDBRANCH   5  15
ENDBRANCH   1  10
BRANCH   2  17
ATOM     17  C   UNL     1      -1.690  12.681  21.785  0.00  0.00    +0.000 A 
ATOM     18  C   UNL     1      -1.980  12.346  23.116  0.00  0.00    +0.000 A 
ATOM     19  C   UNL     1      -3.282  12.397  23.622  0.00  0.00    +0.000 A 
ATOM     20  C   UNL     1      -4.329  12.663  22.761  0.00  0.00    +0.000 A 
ATOM     21  F   UNL     1      -5.582  12.686  23.231  0.00  0.00    +0.000 F 
ATOM     22  C   UNL     1      -4.089  12.882  21.408  0.00  0.00    +0.000 A 
ATOM     23  C   UNL     1      -2.771  12.908  20.919  0.00  0.00    +0.000 A 
ENDBRANCH   2  17
BRANCH   3  24
ATOM     24  S   UNL     1      -0.206  10.231  20.513  0.00  0.00    +0.000 S 
ATOM     25  O   UNL     1      -0.524   9.665  21.812  0.00  0.00    +0.000 OA
ATOM     26  O   UNL     1      -1.183  10.218  19.444  0.00  0.00    +0.000 OA
BRANCH  24  27
ATOM     27  C   UNL     1       1.126   9.243  19.825  0.00  0.00    +0.000 A 
ATOM     28  C   UNL     1       1.563   8.103  20.505  0.00  0.00    +0.000 A 
ATOM     29  C   UNL     1       2.316   7.138  19.827  0.00  0.00    +0.000 A 
ATOM     30  C   UNL     1       2.633   7.302  18.471  0.00  0.00    +0.000 A 
ATOM     31  C   UNL     1       3.349   6.224  17.709  0.00  0.00    +0.000 C 
ATOM     32  C   UNL     1       2.230   8.470  17.812  0.00  0.00    +0.000 A 
ATOM     33  C   UNL     1       1.477   9.440  18.483  0.00  0.00    +0.000 A 
ENDBRANCH  24  27
ENDBRANCH   3  24
TORSDOF 5
ENDMDL
MODEL 6
REMARK VINA RESULT:      -7.7      0.751      1.451
REMARK  Name = 
REMARK  7 active torsions:
REMARK  status: ('A' for Active; 'I' for Inactive)
REMARK    1  A    between atoms: C_1  and  C_2
REMARK    2  A    between atoms: C_2  and  C_4
REMARK    3  A    between atoms: C_9  and  N_10
REMARK    4  A    between atoms: C_11  and  C_23
REMARK    5  A    between atoms: N_12  and  S_13
REMARK    6  A    between atoms: S_13  and  C_16
REMARK    7  A    between atoms: C_19  and  C_20
REMARK                            x       y       z     vdW  Elec       q    Type
REMARK                         _______ _______ _______ _____ _____    ______ ____
ROOT
ATOM      1  N   UNL     1      -1.745  12.388  18.484  0.00  0.00    +0.000 N 
ATOM      2  C   UNL     1      -0.718  12.037  19.374  0.00  0.00    +0.000 C 
ATOM      3  N   UNL     1      -0.849  11.011  20.175  0.00  0.00    +0.000 NA
ATOM      4  H   UNL     1      -1.577  13.149  17.822  0.00  0.00    +0.000 HD
ENDROOT
BRANCH   1  10
ATOM      5  C   UNL     1      -3.684  11.283  17.373  0.00  0.00    +0.000 A 
ATOM      6  C   UNL     1      -5.072  11.071  17.280  0.00  0.00    +0.000 A 
ATOM      7  C   UNL     1      -5.868  11.530  18.299  0.00  0.00    +0.000 A 
ATOM      8  C   UNL     1      -5.335  12.136  19.405  0.00  0.00    +0.000 A 
ATOM      9  C   UNL     1      -3.979  12.362  19.538  0.00  0.00    +0.000 A 
ATOM     10  C   UNL     1      -3.114  11.989  18.492  0.00  0.00    +0.000 A 
ATOM     11  O   UNL     1      -6.285  12.492  20.309  0.00  0.00    +0.000 OA
ATOM     12  C   UNL     1      -7.484  12.075  19.626  0.00  0.00    +0.000 C 
ATOM     13  O   UNL     1      -7.220  11.450  18.354  0.00  0.00    +0.000 OA
BRANCH   5  15
ATOM     14  C   UNL     1      -1.788   9.669  16.650  0.00  0.00    +0.000 C 
ATOM     15  C   UNL     1      -2.812  10.724  16.294  0.00  0.00    +0.000 C 
ATOM     16  O   UNL     1      -2.932  11.142  15.142  0.00  0.00    +0.000 OA
ENDBRANCH   5  15
ENDBRANCH   1  10
BRANCH   2  17
ATOM     17  C   UNL     1       0.518  12.939  19.330  0.00  0.00    +0.000 A 
ATOM     18  C   UNL     1       0.579  14.132  20.066  0.00  0.00    +0.000 A 
ATOM     19  C   UNL     1       1.740  14.908  20.119  0.00  0.00    +0.000 A 
ATOM     20  C   UNL     1       2.819  14.560  19.328  0.00  0.00    +0.000 A 
ATOM     21  F   UNL     1       3.926  15.313  19.351  0.00  0.00    +0.000 F 
ATOM     22  C   UNL     1       2.751  13.449  18.494  0.00  0.00    +0.000 A 
ATOM     23  C   UNL     1       1.609  12.627  18.503  0.00  0.00    +0.000 A 
ENDBRANCH   2  17
BRANCH   3  24
ATOM     24  S   UNL     1       0.269  10.434  21.196  0.00  0.00    +0.000 S 
ATOM     25  O   UNL     1       1.157  11.510  21.597  0.00  0.00    +0.000 OA
ATOM     26  O   UNL     1      -0.366   9.593  22.190  0.00  0.00    +0.000 OA
BRANCH  24  27
ATOM     27  C   UNL     1       1.261   9.254  20.275  0.00  0.00    +0.000 A 
ATOM     28  C   UNL     1       1.649   8.056  20.881  0.00  0.00    +0.000 A 
ATOM     29  C   UNL     1       2.088   6.989  20.088  0.00  0.00    +0.000 A 
ATOM     30  C   UNL     1       2.137   7.109  18.692  0.00  0.00    +0.000 A 
ATOM     31  C   UNL     1       2.505   5.937  17.828  0.00  0.00    +0.000 C 
ATOM     32  C   UNL     1       1.790   8.330  18.099  0.00  0.00    +0.000 A 
ATOM     33  C   UNL     1       1.352   9.402  18.885  0.00  0.00    +0.000 A 
ENDBRANCH  24  27
ENDBRANCH   3  24
TORSDOF 5
ENDMDL
MODEL 7
REMARK VINA RESULT:      -7.7      1.732      2.322
REMARK  Name = 
REMARK  7 active torsions:
REMARK  status: ('A' for Active; 'I' for Inactive)
REMARK    1  A    between atoms: C_1  and  C_2
REMARK    2  A    between atoms: C_2  and  C_4
REMARK    3  A    between atoms: C_9  and  N_10
REMARK    4  A    between atoms: C_11  and  C_23
REMARK    5  A    between atoms: N_12  and  S_13
REMARK    6  A    between atoms: S_13  and  C_16
REMARK    7  A    between atoms: C_19  and  C_20
REMARK                            x       y       z     vdW  Elec       q    Type
REMARK                         _______ _______ _______ _____ _____    ______ ____
ROOT
ATOM      1  N   UNL     1      -2.811  13.317  20.047  0.00  0.00    +0.000 N 
ATOM      2  C   UNL     1      -1.515  12.979  20.471  0.00  0.00    +0.000 C 
ATOM      3  N   UNL     1      -1.301  11.888  21.160  0.00  0.00    +0.000 NA
ATOM      4  H   UNL     1      -2.928  14.137  19.447  0.00  0.00    +0.000 HD
ENDROOT
BRANCH   1  10
ATOM      5  C   UNL     1      -4.954  12.123  19.610  0.00  0.00    +0.000 A 
ATOM      6  C   UNL     1      -6.271  11.810  19.995  0.00  0.00    +0.000 A 
ATOM      7  C   UNL     1      -6.679  12.159  21.258  0.00  0.00    +0.000 A 
ATOM      8  C   UNL     1      -5.821  12.750  22.148  0.00  0.00    +0.000 A 
ATOM      9  C   UNL     1      -4.521  13.072  21.813  0.00  0.00    +0.000 A 
ATOM     10  C   UNL     1      -4.064  12.815  20.505  0.00  0.00    +0.000 A 
ATOM     11  O   UNL     1      -6.407  12.989  23.350  0.00  0.00    +0.000 OA
ATOM     12  C   UNL     1      -7.745  12.516  23.102  0.00  0.00    +0.000 C 
ATOM     13  O   UNL     1      -7.916  11.974  21.778  0.00  0.00    +0.000 OA
BRANCH   5  15
ATOM     14  C   UNL     1      -5.347  12.002  17.050  0.00  0.00    +0.000 C 
ATOM     15  C   UNL     1      -4.493  11.683  18.257  0.00  0.00    +0.000 C 
ATOM     16  O   UNL     1      -3.437  11.058  18.152  0.00  0.00    +0.000 OA
ENDBRANCH   5  15
ENDBRANCH   1  10
BRANCH   2  17
ATOM     17  C   UNL     1      -0.421  13.974  20.075  0.00  0.00    +0.000 A 
ATOM     18  C   UNL     1      -0.127  15.092  20.870  0.00  0.00    +0.000 A 
ATOM     19  C   UNL     1       0.940  15.945  20.578  0.00  0.00    +0.000 A 
ATOM     20  C   UNL     1       1.649  15.759  19.407  0.00  0.00    +0.000 A 
ATOM     21  F   UNL     1       2.655  16.589  19.103  0.00  0.00    +0.000 F 
ATOM     22  C   UNL     1       1.308  14.732  18.533  0.00  0.00    +0.000 A 
ATOM     23  C   UNL     1       0.285  13.827  18.871  0.00  0.00    +0.000 A 
ENDBRANCH   2  17
BRANCH   3  24
ATOM     24  S   UNL     1       0.135  11.322  21.650  0.00  0.00    +0.000 S 
ATOM     25  O   UNL     1       1.138  12.363  21.508  0.00  0.00    +0.000 OA
ATOM     26  O   UNL     1      -0.021  10.615  22.905  0.00  0.00    +0.000 OA
BRANCH  24  27
ATOM     27  C   UNL     1       0.591  10.002  20.523  0.00  0.00    +0.000 A 
ATOM     28  C   UNL     1       0.806  10.290  19.172  0.00  0.00    +0.000 A 
ATOM     29  C   UNL     1       1.506   9.379  18.372  0.00  0.00    +0.000 A 
ATOM     30  C   UNL     1       1.999   8.184  18.913  0.00  0.00    +0.000 A 
ATOM     31  C   UNL     1       2.841   7.252  18.091  0.00  0.00    +0.000 C 
ATOM     32  C   UNL     1       1.737   7.883  20.256  0.00  0.00    +0.000 A 
ATOM     33  C   UNL     1       1.037   8.788  21.063  0.00  0.00    +0.000 A 
ENDBRANCH  24  27
ENDBRANCH   3  24
TORSDOF 5
ENDMDL
MODEL 8
REMARK VINA RESULT:      -7.6      2.666      4.254
REMARK  Name = 
REMARK  7 active torsions:
REMARK  status: ('A' for Active; 'I' for Inactive)
REMARK    1  A    between atoms: C_1  and  C_2
REMARK    2  A    between atoms: C_2  and  C_4
REMARK    3  A    between atoms: C_9  and  N_10
REMARK    4  A    between atoms: C_11  and  C_23
REMARK    5  A    between atoms: N_12  and  S_13
REMARK    6  A    between atoms: S_13  and  C_16
REMARK    7  A    between atoms: C_19  and  C_20
REMARK                            x       y       z     vdW  Elec       q    Type
REMARK                         _______ _______ _______ _____ _____    ______ ____
ROOT
ATOM      1  N   UNL     1      -3.062  12.832  19.860  0.00  0.00    +0.000 N 
ATOM      2  C   UNL     1      -2.165  12.326  20.814  0.00  0.00    +0.000 C 
ATOM      3  N   UNL     1      -1.299  11.399  20.492  0.00  0.00    +0.000 NA
ATOM      4  H   UNL     1      -3.672  13.608  20.130  0.00  0.00    +0.000 HD
ENDROOT
BRANCH   1  10
ATOM      5  C   UNL     1      -4.813  12.029  18.279  0.00  0.00    +0.000 A 
ATOM      6  C   UNL     1      -5.169  11.302  17.128  0.00  0.00    +0.000 A 
ATOM      7  C   UNL     1      -4.166  10.864  16.300  0.00  0.00    +0.000 A 
ATOM      8  C   UNL     1      -2.853  11.163  16.548  0.00  0.00    +0.000 A 
ATOM      9  C   UNL     1      -2.460  11.876  17.664  0.00  0.00    +0.000 A 
ATOM     10  C   UNL     1      -3.432  12.285  18.597  0.00  0.00    +0.000 A 
ATOM     11  O   UNL     1      -2.020  10.664  15.598  0.00  0.00    +0.000 OA
ATOM     12  C   UNL     1      -2.957   9.981  14.743  0.00  0.00    +0.000 C 
ATOM     13  O   UNL     1      -4.324  10.119  15.179  0.00  0.00    +0.000 OA
BRANCH   5  15
ATOM     14  C   UNL     1      -7.054  11.646  19.525  0.00  0.00    +0.000 C 
ATOM     15  C   UNL     1      -5.911  12.561  19.144  0.00  0.00    +0.000 C 
ATOM     16  O   UNL     1      -5.873  13.734  19.517  0.00  0.00    +0.000 OA
ENDBRANCH   5  15
ENDBRANCH   1  10
BRANCH   2  17
ATOM     17  C   UNL     1      -2.295  12.929  22.216  0.00  0.00    +0.000 A 
ATOM     18  C   UNL     1      -1.355  13.848  22.705  0.00  0.00    +0.000 A 
ATOM     19  C   UNL     1      -1.521  14.487  23.937  0.00  0.00    +0.000 A 
ATOM     20  C   UNL     1      -2.572  14.114  24.753  0.00  0.00    +0.000 A 
ATOM     21  F   UNL     1      -2.722  14.700  25.947  0.00  0.00    +0.000 F 
ATOM     22  C   UNL     1      -3.456  13.118  24.350  0.00  0.00    +0.000 A 
ATOM     23  C   UNL     1      -3.331  12.535  23.077  0.00  0.00    +0.000 A 
ENDBRANCH   2  17
BRANCH   3  24
ATOM     24  S   UNL     1      -0.153  10.773  21.450  0.00  0.00    +0.000 S 
ATOM     25  O   UNL     1       0.929  11.731  21.596  0.00  0.00    +0.000 OA
ATOM     26  O   UNL     1      -0.766  10.171  22.615  0.00  0.00    +0.000 OA
BRANCH  24  27
ATOM     27  C   UNL     1       0.525   9.348  20.595  0.00  0.00    +0.000 A 
ATOM     28  C   UNL     1       1.020   9.492  19.296  0.00  0.00    +0.000 A 
ATOM     29  C   UNL     1       1.868   8.513  18.765  0.00  0.00    +0.000 A 
ATOM     30  C   UNL     1       2.231   7.393  19.526  0.00  0.00    +0.000 A 
ATOM     31  C   UNL     1       3.224   6.394  19.006  0.00  0.00    +0.000 C 
ATOM     32  C   UNL     1       1.692   7.235  20.809  0.00  0.00    +0.000 A 
ATOM     33  C   UNL     1       0.842   8.208  21.347  0.00  0.00    +0.000 A 
ENDBRANCH  24  27
ENDBRANCH   3  24
TORSDOF 5
ENDMDL
MODEL 9
REMARK VINA RESULT:      -7.5      5.107      7.850
REMARK  Name = 
REMARK  7 active torsions:
REMARK  status: ('A' for Active; 'I' for Inactive)
REMARK    1  A    between atoms: C_1  and  C_2
REMARK    2  A    between atoms: C_2  and  C_4
REMARK    3  A    between atoms: C_9  and  N_10
REMARK    4  A    between atoms: C_11  and  C_23
REMARK    5  A    between atoms: N_12  and  S_13
REMARK    6  A    between atoms: S_13  and  C_16
REMARK    7  A    between atoms: C_19  and  C_20
REMARK                            x       y       z     vdW  Elec       q    Type
REMARK                         _______ _______ _______ _____ _____    ______ ____
ROOT
ATOM      1  N   UNL     1       1.397   7.232  19.740  0.00  0.00    +0.000 N 
ATOM      2  C   UNL     1       2.367   6.258  19.452  0.00  0.00    +0.000 C 
ATOM      3  N   UNL     1       3.632   6.581  19.362  0.00  0.00    +0.000 NA
ATOM      4  H   UNL     1       0.430   6.930  19.877  0.00  0.00    +0.000 HD
ENDROOT
BRANCH   1  10
ATOM      5  C   UNL     1       0.772   9.498  20.569  0.00  0.00    +0.000 A 
ATOM      6  C   UNL     1       0.701  10.889  20.368  0.00  0.00    +0.000 A 
ATOM      7  C   UNL     1       1.368  11.424  19.294  0.00  0.00    +0.000 A 
ATOM      8  C   UNL     1       2.127  10.643  18.463  0.00  0.00    +0.000 A 
ATOM      9  C   UNL     1       2.225   9.275  18.626  0.00  0.00    +0.000 A 
ATOM     10  C   UNL     1       1.500   8.652  19.659  0.00  0.00    +0.000 A 
ATOM     11  O   UNL     1       2.727  11.365  17.481  0.00  0.00    +0.000 OA
ATOM     12  C   UNL     1       2.227  12.686  17.766  0.00  0.00    +0.000 C 
ATOM     13  O   UNL     1       1.375  12.728  18.927  0.00  0.00    +0.000 OA
BRANCH   5  15
ATOM     14  C   UNL     1       0.395   9.523  23.135  0.00  0.00    +0.000 C 
ATOM     15  C   UNL     1       0.098   8.926  21.777  0.00  0.00    +0.000 C 
ATOM     16  O   UNL     1      -0.671   7.974  21.646  0.00  0.00    +0.000 OA
ENDBRANCH   5  15
ENDBRANCH   1  10
BRANCH   2  17
ATOM     17  C   UNL     1       1.826   4.840  19.251  0.00  0.00    +0.000 A 
ATOM     18  C   UNL     1       1.637   4.306  17.967  0.00  0.00    +0.000 A 
ATOM     19  C   UNL     1       1.249   2.978  17.771  0.00  0.00    +0.000 A 
ATOM     20  C   UNL     1       0.919   2.204  18.867  0.00  0.00    +0.000 A 
ATOM     21  F   UNL     1       0.517   0.940  18.687  0.00  0.00    +0.000 F 
ATOM     22  C   UNL     1       0.978   2.739  20.150  0.00  0.00    +0.000 A 
ATOM     23  C   UNL     1       1.447   4.051  20.347  0.00  0.00    +0.000 A 
ENDBRANCH   2  17
BRANCH   3  24
ATOM     24  S   UNL     1       4.871   5.568  19.117  0.00  0.00    +0.000 S 
ATOM     25  O   UNL     1       6.120   6.260  19.382  0.00  0.00    +0.000 OA
ATOM     26  O   UNL     1       4.589   4.292  19.742  0.00  0.00    +0.000 OA
BRANCH  24  27
ATOM     27  C   UNL     1       4.869   5.148  17.372  0.00  0.00    +0.000 A 
ATOM     28  C   UNL     1       5.070   6.151  16.419  0.00  0.00    +0.000 A 
ATOM     29  C   UNL     1       5.435   5.803  15.114  0.00  0.00    +0.000 A 
ATOM     30  C   UNL     1       5.608   4.459  14.754  0.00  0.00    +0.000 A 
ATOM     31  C   UNL     1       6.103   4.082  13.387  0.00  0.00    +0.000 C 
ATOM     32  C   UNL     1       5.358   3.460  15.704  0.00  0.00    +0.000 A 
ATOM     33  C   UNL     1       4.991   3.799  17.011  0.00  0.00    +0.000 A 
ENDBRANCH  24  27
ENDBRANCH   3  24
TORSDOF 5
ENDMDL
