MODEL 1
REMARK VINA RESULT:      -6.9      0.000      0.000
REMARK  Name = 
REMARK  1 active torsions:
REMARK  status: ('A' for Active; 'I' for Inactive)
REMARK    1  A    between atoms: C_5  and  C_6
REMARK                            x       y       z     vdW  Elec       q    Type
REMARK                         _______ _______ _______ _____ _____    ______ ____
ROOT
ATOM      1  C   UNL     1       4.169   3.884  18.187  0.00  0.00    +0.000 A 
ATOM      2  C   UNL     1       4.058   2.717  17.445  0.00  0.00    +0.000 A 
ATOM      3  N   UNL     1       3.024   1.926  17.877  0.00  0.00    +0.000 NA
ATOM      4  C   UNL     1       2.475   2.586  18.870  0.00  0.00    +0.000 A 
ATOM      5  N   UNL     1       3.112   3.791  19.070  0.00  0.00    +0.000 N 
ATOM      6  C   UNL     1       2.693   4.746  20.082  0.00  0.00    +0.000 C 
ATOM      7  C   UNL     1       1.295   4.472  20.635  0.00  0.00    +0.000 C 
ATOM      8  C   UNL     1       1.144   2.986  20.952  0.00  0.00    +0.000 C 
ATOM      9  C   UNL     1       1.288   2.163  19.672  0.00  0.00    +0.000 C 
ENDROOT
BRANCH   1  14
ATOM     10 BR   UNL     1       8.162   8.564  17.685  0.00  0.00    +0.000 Br
ATOM     11  C   UNL     1       6.947   7.125  17.831  0.00  0.00    +0.000 A 
ATOM     12  C   UNL     1       5.760   7.138  17.105  0.00  0.00    +0.000 A 
ATOM     13  C   UNL     1       4.856   6.075  17.229  0.00  0.00    +0.000 A 
ATOM     14  C   UNL     1       5.133   4.985  18.067  0.00  0.00    +0.000 A 
ATOM     15  C   UNL     1       6.355   4.978  18.754  0.00  0.00    +0.000 A 
ATOM     16  C   UNL     1       7.249   6.048  18.657  0.00  0.00    +0.000 A 
ENDBRANCH   1  14
TORSDOF 1
ENDMDL
MODEL 2
REMARK VINA RESULT:      -6.8      0.042      1.204
REMARK  Name = 
REMARK  1 active torsions:
REMARK  status: ('A' for Active; 'I' for Inactive)
REMARK    1  A    between atoms: C_5  and  C_6
REMARK                            x       y       z     vdW  Elec       q    Type
REMARK                         _______ _______ _______ _____ _____    ______ ____
ROOT
ATOM      1  C   UNL     1       4.156   3.904  18.191  0.00  0.00    +0.000 A 
ATOM      2  C   UNL     1       4.069   2.732  17.454  0.00  0.00    +0.000 A 
ATOM      3  N   UNL     1       3.050   1.923  17.887  0.00  0.00    +0.000 NA
ATOM      4  C   UNL     1       2.486   2.576  18.877  0.00  0.00    +0.000 A 
ATOM      5  N   UNL     1       3.100   3.795  19.073  0.00  0.00    +0.000 N 
ATOM      6  C   UNL     1       2.661   4.745  20.080  0.00  0.00    +0.000 C 
ATOM      7  C   UNL     1       1.268   4.446  20.632  0.00  0.00    +0.000 C 
ATOM      8  C   UNL     1       1.145   2.959  20.955  0.00  0.00    +0.000 C 
ATOM      9  C   UNL     1       1.307   2.134  19.679  0.00  0.00    +0.000 C 
ENDROOT
BRANCH   1  14
ATOM     10 BR   UNL     1       8.181   8.554  17.667  0.00  0.00    +0.000 Br
ATOM     11  C   UNL     1       6.943   7.138  17.836  0.00  0.00    +0.000 A 
ATOM     12  C   UNL     1       7.233   6.050  18.654  0.00  0.00    +0.000 A 
ATOM     13  C   UNL     1       6.318   4.996  18.763  0.00  0.00    +0.000 A 
ATOM     14  C   UNL     1       5.099   5.023  18.068  0.00  0.00    +0.000 A 
ATOM     15  C   UNL     1       4.814   6.150  17.284  0.00  0.00    +0.000 A 
ATOM     16  C   UNL     1       5.735   7.193  17.149  0.00  0.00    +0.000 A 
ENDBRANCH   1  14
TORSDOF 1
ENDMDL
MODEL 3
REMARK VINA RESULT:      -6.8      3.525      4.350
REMARK  Name = 
REMARK  1 active torsions:
REMARK  status: ('A' for Active; 'I' for Inactive)
REMARK    1  A    between atoms: C_5  and  C_6
REMARK                            x       y       z     vdW  Elec       q    Type
REMARK                         _______ _______ _______ _____ _____    ______ ____
ROOT
ATOM      1  C   UNL     1       3.050   6.123  19.289  0.00  0.00    +0.000 A 
ATOM      2  C   UNL     1       4.282   5.772  18.756  0.00  0.00    +0.000 A 
ATOM      3  N   UNL     1       4.630   4.481  19.064  0.00  0.00    +0.000 NA
ATOM      4  C   UNL     1       3.627   4.012  19.770  0.00  0.00    +0.000 A 
ATOM      5  N   UNL     1       2.634   4.958  19.902  0.00  0.00    +0.000 N 
ATOM      6  C   UNL     1       1.389   4.701  20.605  0.00  0.00    +0.000 C 
ATOM      7  C   UNL     1       1.126   3.217  20.854  0.00  0.00    +0.000 C 
ATOM      8  C   UNL     1       2.392   2.546  21.380  0.00  0.00    +0.000 C 
ATOM      9  C   UNL     1       3.502   2.634  20.332  0.00  0.00    +0.000 C 
ENDROOT
BRANCH   1  14
ATOM     10 BR   UNL     1      -0.050  11.445  18.883  0.00  0.00    +0.000 Br
ATOM     11  C   UNL     1       0.909   9.822  19.012  0.00  0.00    +0.000 A 
ATOM     12  C   UNL     1       1.514   9.278  17.883  0.00  0.00    +0.000 A 
ATOM     13  C   UNL     1       2.211   8.067  17.982  0.00  0.00    +0.000 A 
ATOM     14  C   UNL     1       2.320   7.394  19.208  0.00  0.00    +0.000 A 
ATOM     15  C   UNL     1       1.737   7.987  20.337  0.00  0.00    +0.000 A 
ATOM     16  C   UNL     1       1.017   9.181  20.240  0.00  0.00    +0.000 A 
ENDBRANCH   1  14
TORSDOF 1
ENDMDL
MODEL 4
REMARK VINA RESULT:      -6.7      3.502      4.405
REMARK  Name = 
REMARK  1 active torsions:
REMARK  status: ('A' for Active; 'I' for Inactive)
REMARK    1  A    between atoms: C_5  and  C_6
REMARK                            x       y       z     vdW  Elec       q    Type
REMARK                         _______ _______ _______ _____ _____    ______ ____
ROOT
ATOM      1  C   UNL     1       3.066   6.111  19.260  0.00  0.00    +0.000 A 
ATOM      2  C   UNL     1       4.298   5.747  18.736  0.00  0.00    +0.000 A 
ATOM      3  N   UNL     1       4.636   4.458  19.059  0.00  0.00    +0.000 NA
ATOM      4  C   UNL     1       3.628   4.002  19.766  0.00  0.00    +0.000 A 
ATOM      5  N   UNL     1       2.640   4.956  19.884  0.00  0.00    +0.000 N 
ATOM      6  C   UNL     1       1.391   4.714  20.585  0.00  0.00    +0.000 C 
ATOM      7  C   UNL     1       1.118   3.234  20.848  0.00  0.00    +0.000 C 
ATOM      8  C   UNL     1       2.378   2.561  21.386  0.00  0.00    +0.000 C 
ATOM      9  C   UNL     1       3.492   2.631  20.342  0.00  0.00    +0.000 C 
ENDROOT
BRANCH   1  14
ATOM     10 BR   UNL     1       0.067  11.496  18.925  0.00  0.00    +0.000 Br
ATOM     11  C   UNL     1       0.975   9.843  19.023  0.00  0.00    +0.000 A 
ATOM     12  C   UNL     1       1.033   9.149  20.227  0.00  0.00    +0.000 A 
ATOM     13  C   UNL     1       1.720   7.930  20.297  0.00  0.00    +0.000 A 
ATOM     14  C   UNL     1       2.345   7.387  19.164  0.00  0.00    +0.000 A 
ATOM     15  C   UNL     1       2.234   8.087  17.954  0.00  0.00    +0.000 A 
ATOM     16  C   UNL     1       1.573   9.317  17.884  0.00  0.00    +0.000 A 
ENDBRANCH   1  14
TORSDOF 1
ENDMDL
MODEL 5
REMARK VINA RESULT:      -6.6      3.298      4.182
REMARK  Name = 
REMARK  1 active torsions:
REMARK  status: ('A' for Active; 'I' for Inactive)
REMARK    1  A    between atoms: C_5  and  C_6
REMARK                            x       y       z     vdW  Elec       q    Type
REMARK                         _______ _______ _______ _____ _____    ______ ____
ROOT
ATOM      1  C   UNL     1       3.281   5.765  19.143  0.00  0.00    +0.000 A 
ATOM      2  C   UNL     1       4.645   5.519  19.201  0.00  0.00    +0.000 A 
ATOM      3  N   UNL     1       4.929   4.177  19.203  0.00  0.00    +0.000 NA
ATOM      4  C   UNL     1       3.762   3.577  19.132  0.00  0.00    +0.000 A 
ATOM      5  N   UNL     1       2.740   4.498  19.059  0.00  0.00    +0.000 N 
ATOM      6  C   UNL     1       1.343   4.117  18.936  0.00  0.00    +0.000 C 
ATOM      7  C   UNL     1       1.145   2.658  18.528  0.00  0.00    +0.000 C 
ATOM      8  C   UNL     1       2.059   1.758  19.356  0.00  0.00    +0.000 C 
ATOM      9  C   UNL     1       3.521   2.105  19.080  0.00  0.00    +0.000 C 
ENDROOT
BRANCH   1  14
ATOM     10 BR   UNL     1       0.208  11.118  19.031  0.00  0.00    +0.000 Br
ATOM     11  C   UNL     1       1.158   9.486  19.071  0.00  0.00    +0.000 A 
ATOM     12  C   UNL     1       1.813   9.031  17.930  0.00  0.00    +0.000 A 
ATOM     13  C   UNL     1       2.503   7.813  17.962  0.00  0.00    +0.000 A 
ATOM     14  C   UNL     1       2.557   7.043  19.134  0.00  0.00    +0.000 A 
ATOM     15  C   UNL     1       1.924   7.545  20.279  0.00  0.00    +0.000 A 
ATOM     16  C   UNL     1       1.210   8.747  20.247  0.00  0.00    +0.000 A 
ENDBRANCH   1  14
TORSDOF 1
ENDMDL
MODEL 6
REMARK VINA RESULT:      -6.6      3.297      4.268
REMARK  Name = 
REMARK  1 active torsions:
REMARK  status: ('A' for Active; 'I' for Inactive)
REMARK    1  A    between atoms: C_5  and  C_6
REMARK                            x       y       z     vdW  Elec       q    Type
REMARK                         _______ _______ _______ _____ _____    ______ ____
ROOT
ATOM      1  C   UNL     1       3.281   5.774  19.132  0.00  0.00    +0.000 A 
ATOM      2  C   UNL     1       4.645   5.529  19.204  0.00  0.00    +0.000 A 
ATOM      3  N   UNL     1       4.929   4.188  19.225  0.00  0.00    +0.000 NA
ATOM      4  C   UNL     1       3.764   3.586  19.153  0.00  0.00    +0.000 A 
ATOM      5  N   UNL     1       2.742   4.505  19.060  0.00  0.00    +0.000 N 
ATOM      6  C   UNL     1       1.346   4.122  18.931  0.00  0.00    +0.000 C 
ATOM      7  C   UNL     1       1.151   2.658  18.541  0.00  0.00    +0.000 C 
ATOM      8  C   UNL     1       2.059   1.769  19.388  0.00  0.00    +0.000 C 
ATOM      9  C   UNL     1       3.524   2.113  19.119  0.00  0.00    +0.000 C 
ENDROOT
BRANCH   1  14
ATOM     10 BR   UNL     1       0.269  11.161  19.066  0.00  0.00    +0.000 Br
ATOM     11  C   UNL     1       1.181   9.507  19.081  0.00  0.00    +0.000 A 
ATOM     12  C   UNL     1       1.229   8.747  20.245  0.00  0.00    +0.000 A 
ATOM     13  C   UNL     1       1.919   7.529  20.254  0.00  0.00    +0.000 A 
ATOM     14  C   UNL     1       2.557   7.051  19.099  0.00  0.00    +0.000 A 
ATOM     15  C   UNL     1       2.457   7.817  17.929  0.00  0.00    +0.000 A 
ATOM     16  C   UNL     1       1.793   9.047  17.921  0.00  0.00    +0.000 A 
ENDBRANCH   1  14
TORSDOF 1
ENDMDL
MODEL 7
REMARK VINA RESULT:      -6.5      3.379      5.228
REMARK  Name = 
REMARK  1 active torsions:
REMARK  status: ('A' for Active; 'I' for Inactive)
REMARK    1  A    between atoms: C_5  and  C_6
REMARK                            x       y       z     vdW  Elec       q    Type
REMARK                         _______ _______ _______ _____ _____    ______ ____
ROOT
ATOM      1  C   UNL     1       3.211   5.758  17.870  0.00  0.00    +0.000 A 
ATOM      2  C   UNL     1       2.744   4.463  17.703  0.00  0.00    +0.000 A 
ATOM      3  N   UNL     1       3.656   3.663  17.061  0.00  0.00    +0.000 NA
ATOM      4  C   UNL     1       4.694   4.435  16.837  0.00  0.00    +0.000 A 
ATOM      5  N   UNL     1       4.484   5.700  17.340  0.00  0.00    +0.000 N 
ATOM      6  C   UNL     1       5.482   6.754  17.265  0.00  0.00    +0.000 C 
ATOM      7  C   UNL     1       6.882   6.243  16.928  0.00  0.00    +0.000 C 
ATOM      8  C   UNL     1       6.807   5.249  15.771  0.00  0.00    +0.000 C 
ATOM      9  C   UNL     1       5.974   4.034  16.180  0.00  0.00    +0.000 C 
ENDROOT
BRANCH   1  14
ATOM     10 BR   UNL     1       0.512  10.632  20.529  0.00  0.00    +0.000 Br
ATOM     11  C   UNL     1       1.327   9.136  19.711  0.00  0.00    +0.000 A 
ATOM     12  C   UNL     1       1.626   8.005  20.464  0.00  0.00    +0.000 A 
ATOM     13  C   UNL     1       2.244   6.906  19.855  0.00  0.00    +0.000 A 
ATOM     14  C   UNL     1       2.558   6.919  18.488  0.00  0.00    +0.000 A 
ATOM     15  C   UNL     1       2.207   8.055  17.744  0.00  0.00    +0.000 A 
ATOM     16  C   UNL     1       1.616   9.167  18.351  0.00  0.00    +0.000 A 
ENDBRANCH   1  14
TORSDOF 1
ENDMDL
MODEL 8
REMARK VINA RESULT:      -6.5      3.437      4.473
REMARK  Name = 
REMARK  1 active torsions:
REMARK  status: ('A' for Active; 'I' for Inactive)
REMARK    1  A    between atoms: C_5  and  C_6
REMARK                            x       y       z     vdW  Elec       q    Type
REMARK                         _______ _______ _______ _____ _____    ______ ____
ROOT
ATOM      1  C   UNL     1       3.167   6.049  18.207  0.00  0.00    +0.000 A 
ATOM      2  C   UNL     1       4.382   5.959  17.543  0.00  0.00    +0.000 A 
ATOM      3  N   UNL     1       4.741   4.658  17.296  0.00  0.00    +0.000 NA
ATOM      4  C   UNL     1       3.762   3.931  17.783  0.00  0.00    +0.000 A 
ATOM      5  N   UNL     1       2.772   4.730  18.312  0.00  0.00    +0.000 N 
ATOM      6  C   UNL     1       1.551   4.195  18.888  0.00  0.00    +0.000 C 
ATOM      7  C   UNL     1       1.298   2.732  18.527  0.00  0.00    +0.000 C 
ATOM      8  C   UNL     1       2.582   1.924  18.702  0.00  0.00    +0.000 C 
ATOM      9  C   UNL     1       3.657   2.442  17.747  0.00  0.00    +0.000 C 
ENDROOT
BRANCH   1  14
ATOM     10 BR   UNL     1       0.132  11.040  20.200  0.00  0.00    +0.000 Br
ATOM     11  C   UNL     1       1.050   9.508  19.586  0.00  0.00    +0.000 A 
ATOM     12  C   UNL     1       1.381   8.489  20.475  0.00  0.00    +0.000 A 
ATOM     13  C   UNL     1       2.074   7.363  20.016  0.00  0.00    +0.000 A 
ATOM     14  C   UNL     1       2.434   7.235  18.666  0.00  0.00    +0.000 A 
ATOM     15  C   UNL     1       2.052   8.257  17.785  0.00  0.00    +0.000 A 
ATOM     16  C   UNL     1       1.383   9.397  18.241  0.00  0.00    +0.000 A 
ENDBRANCH   1  14
TORSDOF 1
ENDMDL
MODEL 9
REMARK VINA RESULT:      -6.5      4.232      6.332
REMARK  Name = 
REMARK  1 active torsions:
REMARK  status: ('A' for Active; 'I' for Inactive)
REMARK    1  A    between atoms: C_5  and  C_6
REMARK                            x       y       z     vdW  Elec       q    Type
REMARK                         _______ _______ _______ _____ _____    ______ ____
ROOT
ATOM      1  C   UNL     1       5.689   4.800  15.961  0.00  0.00    +0.000 A 
ATOM      2  C   UNL     1       6.827   5.563  16.178  0.00  0.00    +0.000 A 
ATOM      3  N   UNL     1       7.635   5.612  15.071  0.00  0.00    +0.000 NA
ATOM      4  C   UNL     1       7.014   4.902  14.157  0.00  0.00    +0.000 A 
ATOM      5  N   UNL     1       5.816   4.421  14.640  0.00  0.00    +0.000 N 
ATOM      6  C   UNL     1       4.901   3.631  13.834  0.00  0.00    +0.000 C 
ATOM      7  C   UNL     1       5.198   3.698  12.336  0.00  0.00    +0.000 C 
ATOM      8  C   UNL     1       6.695   3.520  12.095  0.00  0.00    +0.000 C 
ATOM      9  C   UNL     1       7.469   4.661  12.756  0.00  0.00    +0.000 C 
ENDROOT
BRANCH   1  14
ATOM     10 BR   UNL     1       0.994   3.522  19.760  0.00  0.00    +0.000 Br
ATOM     11  C   UNL     1       2.439   3.913  18.607  0.00  0.00    +0.000 A 
ATOM     12  C   UNL     1       2.711   5.230  18.250  0.00  0.00    +0.000 A 
ATOM     13  C   UNL     1       3.774   5.511  17.383  0.00  0.00    +0.000 A 
ATOM     14  C   UNL     1       4.583   4.483  16.874  0.00  0.00    +0.000 A 
ATOM     15  C   UNL     1       4.312   3.170  17.283  0.00  0.00    +0.000 A 
ATOM     16  C   UNL     1       3.235   2.879  18.127  0.00  0.00    +0.000 A 
ENDBRANCH   1  14
TORSDOF 1
ENDMDL
