MODEL 1
REMARK VINA RESULT:      -6.0      0.000      0.000
REMARK  Name = 
REMARK  4 active torsions:
REMARK  status: ('A' for Active; 'I' for Inactive)
REMARK    1  A    between atoms: C_1  and  C_2
REMARK    2  A    between atoms: N_5  and  C_6
REMARK    3  A    between atoms: N_5  and  C_7
REMARK    4  A    between atoms: C_9  and  C_10
REMARK                            x       y       z     vdW  Elec       q    Type
REMARK                         _______ _______ _______ _____ _____    ______ ____
ROOT
ATOM      1  C   UNL     1       2.488   7.792  18.131  0.00  0.00    +0.000 C 
ATOM      2  C   UNL     1       3.282   6.537  17.935  0.00  0.00    +0.000 A 
ATOM      3  N   UNL     1       2.659   5.376  18.121  0.00  0.00    +0.000 NA
ATOM      4  C   UNL     1       3.374   4.270  17.934  0.00  0.00    +0.000 A 
ATOM      5  N   UNL     1       2.768   3.044  18.075  0.00  0.00    +0.000 N 
ATOM      6  C   UNL     1       1.377   2.944  18.472  0.00  0.00    +0.000 C 
ATOM      7  C   UNL     1       3.539   1.818  18.002  0.00  0.00    +0.000 C 
ATOM      8  N   UNL     1       4.657   4.311  17.584  0.00  0.00    +0.000 NA
ATOM      9  C   UNL     1       5.225   5.513  17.406  0.00  0.00    +0.000 A 
ATOM     10  N   UNL     1       4.558   6.664  17.581  0.00  0.00    +0.000 NA
ENDROOT
BRANCH   9  11
ATOM     11  C   UNL     1       6.693   5.584  16.967  0.00  0.00    +0.000 C 
ATOM     12 CL   UNL     1       6.948   5.082  15.255  0.00  0.00    +0.000 Cl
ATOM     13 CL   UNL     1       7.305   7.270  17.128  0.00  0.00    +0.000 Cl
ATOM     14 CL   UNL     1       7.699   4.505  17.999  0.00  0.00    +0.000 Cl
ENDBRANCH   9  11
TORSDOF 1
ENDMDL
MODEL 2
REMARK VINA RESULT:      -5.9      0.147      1.381
REMARK  Name = 
REMARK  4 active torsions:
REMARK  status: ('A' for Active; 'I' for Inactive)
REMARK    1  A    between atoms: C_1  and  C_2
REMARK    2  A    between atoms: N_5  and  C_6
REMARK    3  A    between atoms: N_5  and  C_7
REMARK    4  A    between atoms: C_9  and  C_10
REMARK                            x       y       z     vdW  Elec       q    Type
REMARK                         _______ _______ _______ _____ _____    ______ ____
ROOT
ATOM      1  C   UNL     1       2.333   7.763  18.238  0.00  0.00    +0.000 C 
ATOM      2  C   UNL     1       3.147   6.526  18.010  0.00  0.00    +0.000 A 
ATOM      3  N   UNL     1       2.544   5.350  18.173  0.00  0.00    +0.000 NA
ATOM      4  C   UNL     1       3.276   4.261  17.958  0.00  0.00    +0.000 A 
ATOM      5  N   UNL     1       2.691   3.022  18.074  0.00  0.00    +0.000 N 
ATOM      6  C   UNL     1       1.305   2.890  18.475  0.00  0.00    +0.000 C 
ATOM      7  C   UNL     1       3.482   1.811  17.970  0.00  0.00    +0.000 C 
ATOM      8  N   UNL     1       4.557   4.331  17.603  0.00  0.00    +0.000 NA
ATOM      9  C   UNL     1       5.104   5.546  17.449  0.00  0.00    +0.000 A 
ATOM     10  N   UNL     1       4.419   6.682  17.653  0.00  0.00    +0.000 NA
ENDROOT
BRANCH   9  11
ATOM     11  C   UNL     1       6.568   5.651  17.005  0.00  0.00    +0.000 C 
ATOM     12 CL   UNL     1       7.269   7.294  17.251  0.00  0.00    +0.000 Cl
ATOM     13 CL   UNL     1       7.582   4.492  17.940  0.00  0.00    +0.000 Cl
ATOM     14 CL   UNL     1       6.714   5.262  15.254  0.00  0.00    +0.000 Cl
ENDBRANCH   9  11
TORSDOF 1
ENDMDL
MODEL 3
REMARK VINA RESULT:      -5.9      3.103      4.724
REMARK  Name = 
REMARK  4 active torsions:
REMARK  status: ('A' for Active; 'I' for Inactive)
REMARK    1  A    between atoms: C_1  and  C_2
REMARK    2  A    between atoms: N_5  and  C_6
REMARK    3  A    between atoms: N_5  and  C_7
REMARK    4  A    between atoms: C_9  and  C_10
REMARK                            x       y       z     vdW  Elec       q    Type
REMARK                         _______ _______ _______ _____ _____    ______ ____
ROOT
ATOM      1  C   UNL     1       7.728   7.463  17.747  0.00  0.00    +0.000 C 
ATOM      2  C   UNL     1       6.838   6.449  17.096  0.00  0.00    +0.000 A 
ATOM      3  N   UNL     1       7.165   6.030  15.876  0.00  0.00    +0.000 NA
ATOM      4  C   UNL     1       6.370   5.123  15.315  0.00  0.00    +0.000 A 
ATOM      5  N   UNL     1       6.685   4.628  14.072  0.00  0.00    +0.000 N 
ATOM      6  C   UNL     1       7.840   5.119  13.347  0.00  0.00    +0.000 C 
ATOM      7  C   UNL     1       5.782   3.733  13.374  0.00  0.00    +0.000 C 
ATOM      8  N   UNL     1       5.290   4.653  15.934  0.00  0.00    +0.000 NA
ATOM      9  C   UNL     1       5.019   5.110  17.166  0.00  0.00    +0.000 A 
ATOM     10  N   UNL     1       5.780   6.026  17.784  0.00  0.00    +0.000 NA
ENDROOT
BRANCH   9  11
ATOM     11  C   UNL     1       3.799   4.556  17.913  0.00  0.00    +0.000 C 
ATOM     12 CL   UNL     1       2.899   3.307  16.975  0.00  0.00    +0.000 Cl
ATOM     13 CL   UNL     1       4.317   3.794  19.460  0.00  0.00    +0.000 Cl
ATOM     14 CL   UNL     1       2.644   5.885  18.284  0.00  0.00    +0.000 Cl
ENDBRANCH   9  11
TORSDOF 1
ENDMDL
MODEL 4
REMARK VINA RESULT:      -5.9      1.078      1.078
REMARK  Name = 
REMARK  4 active torsions:
REMARK  status: ('A' for Active; 'I' for Inactive)
REMARK    1  A    between atoms: C_1  and  C_2
REMARK    2  A    between atoms: N_5  and  C_6
REMARK    3  A    between atoms: N_5  and  C_7
REMARK    4  A    between atoms: C_9  and  C_10
REMARK                            x       y       z     vdW  Elec       q    Type
REMARK                         _______ _______ _______ _____ _____    ______ ____
ROOT
ATOM      1  C   UNL     1       2.343   7.664  18.077  0.00  0.00    +0.000 C 
ATOM      2  C   UNL     1       3.313   6.532  18.229  0.00  0.00    +0.000 A 
ATOM      3  N   UNL     1       2.924   5.474  18.937  0.00  0.00    +0.000 NA
ATOM      4  C   UNL     1       3.793   4.474  19.054  0.00  0.00    +0.000 A 
ATOM      5  N   UNL     1       3.427   3.342  19.742  0.00  0.00    +0.000 N 
ATOM      6  C   UNL     1       2.129   3.247  20.380  0.00  0.00    +0.000 C 
ATOM      7  C   UNL     1       4.384   2.282  19.998  0.00  0.00    +0.000 C 
ATOM      8  N   UNL     1       5.002   4.521  18.499  0.00  0.00    +0.000 NA
ATOM      9  C   UNL     1       5.330   5.613  17.792  0.00  0.00    +0.000 A 
ATOM     10  N   UNL     1       4.499   6.655  17.638  0.00  0.00    +0.000 NA
ENDROOT
BRANCH   9  11
ATOM     11  C   UNL     1       6.704   5.673  17.113  0.00  0.00    +0.000 C 
ATOM     12 CL   UNL     1       6.643   5.300  15.351  0.00  0.00    +0.000 Cl
ATOM     13 CL   UNL     1       7.407   7.322  17.287  0.00  0.00    +0.000 Cl
ATOM     14 CL   UNL     1       7.823   4.487  17.875  0.00  0.00    +0.000 Cl
ENDBRANCH   9  11
TORSDOF 1
ENDMDL
MODEL 5
REMARK VINA RESULT:      -5.8      3.112      4.724
REMARK  Name = 
REMARK  4 active torsions:
REMARK  status: ('A' for Active; 'I' for Inactive)
REMARK    1  A    between atoms: C_1  and  C_2
REMARK    2  A    between atoms: N_5  and  C_6
REMARK    3  A    between atoms: N_5  and  C_7
REMARK    4  A    between atoms: C_9  and  C_10
REMARK                            x       y       z     vdW  Elec       q    Type
REMARK                         _______ _______ _______ _____ _____    ______ ____
ROOT
ATOM      1  C   UNL     1       7.716   7.457  17.772  0.00  0.00    +0.000 C 
ATOM      2  C   UNL     1       6.801   6.471  17.112  0.00  0.00    +0.000 A 
ATOM      3  N   UNL     1       7.131   6.037  15.898  0.00  0.00    +0.000 NA
ATOM      4  C   UNL     1       6.315   5.154  15.329  0.00  0.00    +0.000 A 
ATOM      5  N   UNL     1       6.630   4.645  14.092  0.00  0.00    +0.000 N 
ATOM      6  C   UNL     1       7.811   5.096  13.382  0.00  0.00    +0.000 C 
ATOM      7  C   UNL     1       5.708   3.778  13.385  0.00  0.00    +0.000 C 
ATOM      8  N   UNL     1       5.211   4.723  15.935  0.00  0.00    +0.000 NA
ATOM      9  C   UNL     1       4.938   5.193  17.161  0.00  0.00    +0.000 A 
ATOM     10  N   UNL     1       5.721   6.085  17.787  0.00  0.00    +0.000 NA
ENDROOT
BRANCH   9  11
ATOM     11  C   UNL     1       3.691   4.682  17.893  0.00  0.00    +0.000 C 
ATOM     12 CL   UNL     1       2.444   5.958  18.147  0.00  0.00    +0.000 Cl
ATOM     13 CL   UNL     1       2.918   3.359  16.946  0.00  0.00    +0.000 Cl
ATOM     14 CL   UNL     1       4.143   4.042  19.513  0.00  0.00    +0.000 Cl
ENDBRANCH   9  11
TORSDOF 1
ENDMDL
MODEL 6
REMARK VINA RESULT:      -5.8      2.924      4.420
REMARK  Name = 
REMARK  4 active torsions:
REMARK  status: ('A' for Active; 'I' for Inactive)
REMARK    1  A    between atoms: C_1  and  C_2
REMARK    2  A    between atoms: N_5  and  C_6
REMARK    3  A    between atoms: N_5  and  C_7
REMARK    4  A    between atoms: C_9  and  C_10
REMARK                            x       y       z     vdW  Elec       q    Type
REMARK                         _______ _______ _______ _____ _____    ______ ____
ROOT
ATOM      1  C   UNL     1       2.422   8.102  17.844  0.00  0.00    +0.000 C 
ATOM      2  C   UNL     1       3.240   6.857  18.004  0.00  0.00    +0.000 A 
ATOM      3  N   UNL     1       4.546   6.940  17.763  0.00  0.00    +0.000 NA
ATOM      4  C   UNL     1       5.261   5.828  17.918  0.00  0.00    +0.000 A 
ATOM      5  N   UNL     1       6.620   5.868  17.720  0.00  0.00    +0.000 N 
ATOM      6  C   UNL     1       7.274   7.091  17.297  0.00  0.00    +0.000 C 
ATOM      7  C   UNL     1       7.416   4.656  17.757  0.00  0.00    +0.000 C 
ATOM      8  N   UNL     1       4.703   4.678  18.290  0.00  0.00    +0.000 NA
ATOM      9  C   UNL     1       3.382   4.663  18.524  0.00  0.00    +0.000 A 
ATOM     10  N   UNL     1       2.608   5.750  18.384  0.00  0.00    +0.000 NA
ENDROOT
BRANCH   9  11
ATOM     11  C   UNL     1       2.725   3.358  18.989  0.00  0.00    +0.000 C 
ATOM     12 CL   UNL     1       2.432   2.192  17.645  0.00  0.00    +0.000 Cl
ATOM     13 CL   UNL     1       3.777   2.531  20.194  0.00  0.00    +0.000 Cl
ATOM     14 CL   UNL     1       1.134   3.705  19.754  0.00  0.00    +0.000 Cl
ENDBRANCH   9  11
TORSDOF 1
ENDMDL
MODEL 7
REMARK VINA RESULT:      -5.8      0.787      1.522
REMARK  Name = 
REMARK  4 active torsions:
REMARK  status: ('A' for Active; 'I' for Inactive)
REMARK    1  A    between atoms: C_1  and  C_2
REMARK    2  A    between atoms: N_5  and  C_6
REMARK    3  A    between atoms: N_5  and  C_7
REMARK    4  A    between atoms: C_9  and  C_10
REMARK                            x       y       z     vdW  Elec       q    Type
REMARK                         _______ _______ _______ _____ _____    ______ ____
ROOT
ATOM      1  C   UNL     1       2.478   7.923  17.920  0.00  0.00    +0.000 C 
ATOM      2  C   UNL     1       3.351   6.710  18.035  0.00  0.00    +0.000 A 
ATOM      3  N   UNL     1       2.839   5.634  18.628  0.00  0.00    +0.000 NA
ATOM      4  C   UNL     1       3.622   4.562  18.714  0.00  0.00    +0.000 A 
ATOM      5  N   UNL     1       3.129   3.412  19.282  0.00  0.00    +0.000 N 
ATOM      6  C   UNL     1       1.788   3.370  19.831  0.00  0.00    +0.000 C 
ATOM      7  C   UNL     1       3.986   2.264  19.507  0.00  0.00    +0.000 C 
ATOM      8  N   UNL     1       4.865   4.557  18.238  0.00  0.00    +0.000 NA
ATOM      9  C   UNL     1       5.319   5.671  17.645  0.00  0.00    +0.000 A 
ATOM     10  N   UNL     1       4.579   6.785  17.529  0.00  0.00    +0.000 NA
ENDROOT
BRANCH   9  11
ATOM     11  C   UNL     1       6.735   5.676  17.058  0.00  0.00    +0.000 C 
ATOM     12 CL   UNL     1       7.835   4.483  17.844  0.00  0.00    +0.000 Cl
ATOM     13 CL   UNL     1       6.677   5.275  15.303  0.00  0.00    +0.000 Cl
ATOM     14 CL   UNL     1       7.480   7.303  17.253  0.00  0.00    +0.000 Cl
ENDBRANCH   9  11
TORSDOF 1
ENDMDL
MODEL 8
REMARK VINA RESULT:      -5.8      2.918      4.466
REMARK  Name = 
REMARK  4 active torsions:
REMARK  status: ('A' for Active; 'I' for Inactive)
REMARK    1  A    between atoms: C_1  and  C_2
REMARK    2  A    between atoms: N_5  and  C_6
REMARK    3  A    between atoms: N_5  and  C_7
REMARK    4  A    between atoms: C_9  and  C_10
REMARK                            x       y       z     vdW  Elec       q    Type
REMARK                         _______ _______ _______ _____ _____    ______ ____
ROOT
ATOM      1  C   UNL     1       2.472   7.961  17.856  0.00  0.00    +0.000 C 
ATOM      2  C   UNL     1       3.326   6.743  18.030  0.00  0.00    +0.000 A 
ATOM      3  N   UNL     1       4.628   6.858  17.775  0.00  0.00    +0.000 NA
ATOM      4  C   UNL     1       5.375   5.770  17.944  0.00  0.00    +0.000 A 
ATOM      5  N   UNL     1       6.730   5.845  17.732  0.00  0.00    +0.000 N 
ATOM      6  C   UNL     1       7.345   7.078  17.280  0.00  0.00    +0.000 C 
ATOM      7  C   UNL     1       7.561   4.657  17.784  0.00  0.00    +0.000 C 
ATOM      8  N   UNL     1       4.854   4.612  18.342  0.00  0.00    +0.000 NA
ATOM      9  C   UNL     1       3.536   4.564  18.590  0.00  0.00    +0.000 A 
ATOM     10  N   UNL     1       2.730   5.625  18.437  0.00  0.00    +0.000 NA
ENDROOT
BRANCH   9  11
ATOM     11  C   UNL     1       2.921   3.250  19.085  0.00  0.00    +0.000 C 
ATOM     12 CL   UNL     1       4.004   2.331  20.195  0.00  0.00    +0.000 Cl
ATOM     13 CL   UNL     1       1.393   3.581  19.980  0.00  0.00    +0.000 Cl
ATOM     14 CL   UNL     1       2.548   2.176  17.689  0.00  0.00    +0.000 Cl
ENDBRANCH   9  11
TORSDOF 1
ENDMDL
MODEL 9
REMARK VINA RESULT:      -5.8      0.832      1.727
REMARK  Name = 
REMARK  4 active torsions:
REMARK  status: ('A' for Active; 'I' for Inactive)
REMARK    1  A    between atoms: C_1  and  C_2
REMARK    2  A    between atoms: N_5  and  C_6
REMARK    3  A    between atoms: N_5  and  C_7
REMARK    4  A    between atoms: C_9  and  C_10
REMARK                            x       y       z     vdW  Elec       q    Type
REMARK                         _______ _______ _______ _____ _____    ______ ____
ROOT
ATOM      1  C   UNL     1       2.625   7.981  17.699  0.00  0.00    +0.000 C 
ATOM      2  C   UNL     1       3.426   6.737  17.934  0.00  0.00    +0.000 A 
ATOM      3  N   UNL     1       2.761   5.600  18.125  0.00  0.00    +0.000 NA
ATOM      4  C   UNL     1       3.486   4.502  18.324  0.00  0.00    +0.000 A 
ATOM      5  N   UNL     1       2.849   3.295  18.487  0.00  0.00    +0.000 N 
ATOM      6  C   UNL     1       1.402   3.214  18.495  0.00  0.00    +0.000 C 
ATOM      7  C   UNL     1       3.594   2.099  18.828  0.00  0.00    +0.000 C 
ATOM      8  N   UNL     1       4.816   4.530  18.340  0.00  0.00    +0.000 NA
ATOM      9  C   UNL     1       5.427   5.706  18.134  0.00  0.00    +0.000 A 
ATOM     10  N   UNL     1       4.752   6.848  17.930  0.00  0.00    +0.000 NA
ENDROOT
BRANCH   9  11
ATOM     11  C   UNL     1       6.959   5.755  18.113  0.00  0.00    +0.000 C 
ATOM     12 CL   UNL     1       7.700   5.523  19.740  0.00  0.00    +0.000 Cl
ATOM     13 CL   UNL     1       7.604   4.458  17.041  0.00  0.00    +0.000 Cl
ATOM     14 CL   UNL     1       7.519   7.348  17.490  0.00  0.00    +0.000 Cl
ENDBRANCH   9  11
TORSDOF 1
ENDMDL
