MODEL 1
REMARK VINA RESULT:      -9.0      0.000      0.000
REMARK  Name = 
REMARK  2 active torsions:
REMARK  status: ('A' for Active; 'I' for Inactive)
REMARK    1  A    between atoms: C_4  and  C_5
REMARK    2  A    between atoms: C_7  and  C_8
REMARK                            x       y       z     vdW  Elec       q    Type
REMARK                         _______ _______ _______ _____ _____    ______ ____
ROOT
ATOM      1  C   UNL     1       3.984   5.413  17.910  0.00  0.00    +0.000 A 
ATOM      2  C   UNL     1       3.525   6.778  18.156  0.00  0.00    +0.000 A 
ATOM      3  C   UNL     1       2.523   6.772  19.055  0.00  0.00    +0.000 A 
ATOM      4  C   UNL     1       2.308   5.370  19.421  0.00  0.00    +0.000 A 
ATOM      5  C   UNL     1       1.380   4.954  20.292  0.00  0.00    +0.000 A 
ATOM      6  C   UNL     1       1.101   3.608  20.732  0.00  0.00    +0.000 A 
ATOM      7  C   UNL     1       1.681   2.458  20.370  0.00  0.00    +0.000 A 
ATOM      8  C   UNL     1       2.746   2.226  19.426  0.00  0.00    +0.000 A 
ATOM      9  C   UNL     1       3.434   3.110  18.693  0.00  0.00    +0.000 A 
ATOM     10  C   UNL     1       3.266   4.544  18.673  0.00  0.00    +0.000 A 
ENDROOT
BRANCH   1  14
ATOM     11  C   UNL     1       7.090   4.402  15.159  0.00  0.00    +0.000 A 
ATOM     12  C   UNL     1       7.399   4.708  16.484  0.00  0.00    +0.000 A 
ATOM     13  C   UNL     1       6.382   5.030  17.384  0.00  0.00    +0.000 A 
ATOM     14  C   UNL     1       5.045   5.054  16.962  0.00  0.00    +0.000 A 
ATOM     15  C   UNL     1       4.740   4.736  15.633  0.00  0.00    +0.000 A 
ATOM     16  C   UNL     1       5.760   4.412  14.735  0.00  0.00    +0.000 A 
ENDBRANCH   1  14
BRANCH   3  17
ATOM     17  C   UNL     1       1.844   7.971  19.538  0.00  0.00    +0.000 A 
ATOM     18  C   UNL     1       1.526   9.011  18.656  0.00  0.00    +0.000 A 
ATOM     19  C   UNL     1       0.853  10.144  19.117  0.00  0.00    +0.000 A 
ATOM     20  C   UNL     1       0.491  10.244  20.460  0.00  0.00    +0.000 A 
ATOM     21  C   UNL     1       0.800   9.210  21.344  0.00  0.00    +0.000 A 
ATOM     22  C   UNL     1       1.475   8.077  20.885  0.00  0.00    +0.000 A 
ENDBRANCH   3  17
TORSDOF 2
ENDMDL
MODEL 2
REMARK VINA RESULT:      -9.0      0.036      1.031
REMARK  Name = 
REMARK  2 active torsions:
REMARK  status: ('A' for Active; 'I' for Inactive)
REMARK    1  A    between atoms: C_4  and  C_5
REMARK    2  A    between atoms: C_7  and  C_8
REMARK                            x       y       z     vdW  Elec       q    Type
REMARK                         _______ _______ _______ _____ _____    ______ ____
ROOT
ATOM      1  C   UNL     1       3.989   5.415  17.927  0.00  0.00    +0.000 A 
ATOM      2  C   UNL     1       3.522   6.778  18.171  0.00  0.00    +0.000 A 
ATOM      3  C   UNL     1       2.517   6.768  19.066  0.00  0.00    +0.000 A 
ATOM      4  C   UNL     1       2.307   5.365  19.431  0.00  0.00    +0.000 A 
ATOM      5  C   UNL     1       1.378   4.944  20.299  0.00  0.00    +0.000 A 
ATOM      6  C   UNL     1       1.104   3.597  20.738  0.00  0.00    +0.000 A 
ATOM      7  C   UNL     1       1.690   2.450  20.377  0.00  0.00    +0.000 A 
ATOM      8  C   UNL     1       2.760   2.222  19.438  0.00  0.00    +0.000 A 
ATOM      9  C   UNL     1       3.447   3.110  18.707  0.00  0.00    +0.000 A 
ATOM     10  C   UNL     1       3.272   4.543  18.687  0.00  0.00    +0.000 A 
ENDROOT
BRANCH   1  14
ATOM     11  C   UNL     1       7.110   4.419  15.188  0.00  0.00    +0.000 A 
ATOM     12  C   UNL     1       7.411   4.704  16.520  0.00  0.00    +0.000 A 
ATOM     13  C   UNL     1       6.388   5.021  17.415  0.00  0.00    +0.000 A 
ATOM     14  C   UNL     1       5.055   5.062  16.983  0.00  0.00    +0.000 A 
ATOM     15  C   UNL     1       4.759   4.764  15.647  0.00  0.00    +0.000 A 
ATOM     16  C   UNL     1       5.784   4.445  14.753  0.00  0.00    +0.000 A 
ENDBRANCH   1  14
BRANCH   3  17
ATOM     17  C   UNL     1       1.831   7.964  19.547  0.00  0.00    +0.000 A 
ATOM     18  C   UNL     1       1.471   8.082  20.894  0.00  0.00    +0.000 A 
ATOM     19  C   UNL     1       0.839   9.239  21.356  0.00  0.00    +0.000 A 
ATOM     20  C   UNL     1       0.566  10.285  20.474  0.00  0.00    +0.000 A 
ATOM     21  C   UNL     1       0.926  10.176  19.131  0.00  0.00    +0.000 A 
ATOM     22  C   UNL     1       1.557   9.019  18.668  0.00  0.00    +0.000 A 
ENDBRANCH   3  17
TORSDOF 2
ENDMDL
MODEL 3
REMARK VINA RESULT:      -9.0      0.059      1.031
REMARK  Name = 
REMARK  2 active torsions:
REMARK  status: ('A' for Active; 'I' for Inactive)
REMARK    1  A    between atoms: C_4  and  C_5
REMARK    2  A    between atoms: C_7  and  C_8
REMARK                            x       y       z     vdW  Elec       q    Type
REMARK                         _______ _______ _______ _____ _____    ______ ____
ROOT
ATOM      1  C   UNL     1       4.000   5.446  17.921  0.00  0.00    +0.000 A 
ATOM      2  C   UNL     1       3.535   6.805  18.186  0.00  0.00    +0.000 A 
ATOM      3  C   UNL     1       2.524   6.782  19.075  0.00  0.00    +0.000 A 
ATOM      4  C   UNL     1       2.310   5.373  19.414  0.00  0.00    +0.000 A 
ATOM      5  C   UNL     1       1.375   4.940  20.269  0.00  0.00    +0.000 A 
ATOM      6  C   UNL     1       1.095   3.585  20.683  0.00  0.00    +0.000 A 
ATOM      7  C   UNL     1       1.682   2.444  20.307  0.00  0.00    +0.000 A 
ATOM      8  C   UNL     1       2.757   2.230  19.370  0.00  0.00    +0.000 A 
ATOM      9  C   UNL     1       3.449   3.129  18.658  0.00  0.00    +0.000 A 
ATOM     10  C   UNL     1       3.278   4.562  18.661  0.00  0.00    +0.000 A 
ENDROOT
BRANCH   1  14
ATOM     11  C   UNL     1       7.098   4.426  15.165  0.00  0.00    +0.000 A 
ATOM     12  C   UNL     1       5.779   4.533  14.727  0.00  0.00    +0.000 A 
ATOM     13  C   UNL     1       4.769   4.875  15.628  0.00  0.00    +0.000 A 
ATOM     14  C   UNL     1       5.071   5.107  16.977  0.00  0.00    +0.000 A 
ATOM     15  C   UNL     1       6.400   5.008  17.408  0.00  0.00    +0.000 A 
ATOM     16  C   UNL     1       7.409   4.667  16.504  0.00  0.00    +0.000 A 
ENDBRANCH   1  14
BRANCH   3  17
ATOM     17  C   UNL     1       1.837   7.971  19.572  0.00  0.00    +0.000 A 
ATOM     18  C   UNL     1       1.499   9.011  18.699  0.00  0.00    +0.000 A 
ATOM     19  C   UNL     1       0.818  10.135  19.173  0.00  0.00    +0.000 A 
ATOM     20  C   UNL     1       0.469  10.223  20.520  0.00  0.00    +0.000 A 
ATOM     21  C   UNL     1       0.799   9.188  21.395  0.00  0.00    +0.000 A 
ATOM     22  C   UNL     1       1.481   8.064  20.923  0.00  0.00    +0.000 A 
ENDBRANCH   3  17
TORSDOF 2
ENDMDL
MODEL 4
REMARK VINA RESULT:      -9.0      0.040      1.458
REMARK  Name = 
REMARK  2 active torsions:
REMARK  status: ('A' for Active; 'I' for Inactive)
REMARK    1  A    between atoms: C_4  and  C_5
REMARK    2  A    between atoms: C_7  and  C_8
REMARK                            x       y       z     vdW  Elec       q    Type
REMARK                         _______ _______ _______ _____ _____    ______ ____
ROOT
ATOM      1  C   UNL     1       3.993   5.437  17.900  0.00  0.00    +0.000 A 
ATOM      2  C   UNL     1       3.523   6.798  18.146  0.00  0.00    +0.000 A 
ATOM      3  C   UNL     1       2.519   6.784  19.043  0.00  0.00    +0.000 A 
ATOM      4  C   UNL     1       2.314   5.380  19.407  0.00  0.00    +0.000 A 
ATOM      5  C   UNL     1       1.388   4.956  20.276  0.00  0.00    +0.000 A 
ATOM      6  C   UNL     1       1.118   3.607  20.714  0.00  0.00    +0.000 A 
ATOM      7  C   UNL     1       1.707   2.463  20.351  0.00  0.00    +0.000 A 
ATOM      8  C   UNL     1       2.776   2.239  19.410  0.00  0.00    +0.000 A 
ATOM      9  C   UNL     1       3.459   3.129  18.678  0.00  0.00    +0.000 A 
ATOM     10  C   UNL     1       3.280   4.562  18.660  0.00  0.00    +0.000 A 
ENDROOT
BRANCH   1  14
ATOM     11  C   UNL     1       7.075   4.386  15.138  0.00  0.00    +0.000 A 
ATOM     12  C   UNL     1       5.747   4.441  14.717  0.00  0.00    +0.000 A 
ATOM     13  C   UNL     1       4.742   4.794  15.620  0.00  0.00    +0.000 A 
ATOM     14  C   UNL     1       5.058   5.087  16.953  0.00  0.00    +0.000 A 
ATOM     15  C   UNL     1       6.395   5.040  17.366  0.00  0.00    +0.000 A 
ATOM     16  C   UNL     1       7.400   4.689  16.461  0.00  0.00    +0.000 A 
ENDBRANCH   1  14
BRANCH   3  17
ATOM     17  C   UNL     1       1.831   7.978  19.526  0.00  0.00    +0.000 A 
ATOM     18  C   UNL     1       1.475   8.094  20.875  0.00  0.00    +0.000 A 
ATOM     19  C   UNL     1       0.841   9.249  21.339  0.00  0.00    +0.000 A 
ATOM     20  C   UNL     1       0.562  10.295  20.459  0.00  0.00    +0.000 A 
ATOM     21  C   UNL     1       0.919  10.187  19.114  0.00  0.00    +0.000 A 
ATOM     22  C   UNL     1       1.551   9.033  18.649  0.00  0.00    +0.000 A 
ENDBRANCH   3  17
TORSDOF 2
ENDMDL
MODEL 5
REMARK VINA RESULT:      -8.9      0.409      6.103
REMARK  Name = 
REMARK  2 active torsions:
REMARK  status: ('A' for Active; 'I' for Inactive)
REMARK    1  A    between atoms: C_4  and  C_5
REMARK    2  A    between atoms: C_7  and  C_8
REMARK                            x       y       z     vdW  Elec       q    Type
REMARK                         _______ _______ _______ _____ _____    ______ ____
ROOT
ATOM      1  C   UNL     1       2.609   6.574  18.833  0.00  0.00    +0.000 A 
ATOM      2  C   UNL     1       3.661   6.635  17.821  0.00  0.00    +0.000 A 
ATOM      3  C   UNL     1       4.080   5.392  17.516  0.00  0.00    +0.000 A 
ATOM      4  C   UNL     1       3.288   4.478  18.342  0.00  0.00    +0.000 A 
ATOM      5  C   UNL     1       3.421   3.146  18.329  0.00  0.00    +0.000 A 
ATOM      6  C   UNL     1       2.683   2.162  19.084  0.00  0.00    +0.000 A 
ATOM      7  C   UNL     1       1.710   2.337  19.985  0.00  0.00    +0.000 A 
ATOM      8  C   UNL     1       1.120   3.560  20.472  0.00  0.00    +0.000 A 
ATOM      9  C   UNL     1       1.389   4.825  20.126  0.00  0.00    +0.000 A 
ATOM     10  C   UNL     1       2.360   5.276  19.157  0.00  0.00    +0.000 A 
ENDROOT
BRANCH   1  14
ATOM     11  C   UNL     1       0.719  10.015  20.511  0.00  0.00    +0.000 A 
ATOM     12  C   UNL     1       1.017   9.974  19.150  0.00  0.00    +0.000 A 
ATOM     13  C   UNL     1       1.627   8.844  18.602  0.00  0.00    +0.000 A 
ATOM     14  C   UNL     1       1.950   7.749  19.414  0.00  0.00    +0.000 A 
ATOM     15  C   UNL     1       1.638   7.793  20.778  0.00  0.00    +0.000 A 
ATOM     16  C   UNL     1       1.026   8.923  21.325  0.00  0.00    +0.000 A 
ENDBRANCH   1  14
BRANCH   3  17
ATOM     17  C   UNL     1       5.113   5.092  16.529  0.00  0.00    +0.000 A 
ATOM     18  C   UNL     1       4.774   4.505  15.304  0.00  0.00    +0.000 A 
ATOM     19  C   UNL     1       5.762   4.244  14.352  0.00  0.00    +0.000 A 
ATOM     20  C   UNL     1       7.092   4.570  14.616  0.00  0.00    +0.000 A 
ATOM     21  C   UNL     1       7.436   5.159  15.833  0.00  0.00    +0.000 A 
ATOM     22  C   UNL     1       6.450   5.420  16.787  0.00  0.00    +0.000 A 
ENDBRANCH   3  17
TORSDOF 2
ENDMDL
MODEL 6
REMARK VINA RESULT:      -8.9      0.409      6.053
REMARK  Name = 
REMARK  2 active torsions:
REMARK  status: ('A' for Active; 'I' for Inactive)
REMARK    1  A    between atoms: C_4  and  C_5
REMARK    2  A    between atoms: C_7  and  C_8
REMARK                            x       y       z     vdW  Elec       q    Type
REMARK                         _______ _______ _______ _____ _____    ______ ____
ROOT
ATOM      1  C   UNL     1       2.593   6.555  18.830  0.00  0.00    +0.000 A 
ATOM      2  C   UNL     1       3.656   6.624  17.831  0.00  0.00    +0.000 A 
ATOM      3  C   UNL     1       4.078   5.385  17.520  0.00  0.00    +0.000 A 
ATOM      4  C   UNL     1       3.276   4.464  18.329  0.00  0.00    +0.000 A 
ATOM      5  C   UNL     1       3.409   3.132  18.306  0.00  0.00    +0.000 A 
ATOM      6  C   UNL     1       2.662   2.141  19.044  0.00  0.00    +0.000 A 
ATOM      7  C   UNL     1       1.678   2.310  19.935  0.00  0.00    +0.000 A 
ATOM      8  C   UNL     1       1.083   3.528  20.426  0.00  0.00    +0.000 A 
ATOM      9  C   UNL     1       1.357   4.796  20.094  0.00  0.00    +0.000 A 
ATOM     10  C   UNL     1       2.340   5.255  19.141  0.00  0.00    +0.000 A 
ENDROOT
BRANCH   1  14
ATOM     11  C   UNL     1       0.629   9.938  20.544  0.00  0.00    +0.000 A 
ATOM     12  C   UNL     1       0.989   8.856  21.346  0.00  0.00    +0.000 A 
ATOM     13  C   UNL     1       1.638   7.754  20.786  0.00  0.00    +0.000 A 
ATOM     14  C   UNL     1       1.928   7.725  19.414  0.00  0.00    +0.000 A 
ATOM     15  C   UNL     1       1.573   8.820  18.616  0.00  0.00    +0.000 A 
ATOM     16  C   UNL     1       0.925   9.922  19.180  0.00  0.00    +0.000 A 
ENDBRANCH   1  14
BRANCH   3  17
ATOM     17  C   UNL     1       5.122   5.092  16.542  0.00  0.00    +0.000 A 
ATOM     18  C   UNL     1       4.794   4.550  15.294  0.00  0.00    +0.000 A 
ATOM     19  C   UNL     1       5.793   4.296  14.352  0.00  0.00    +0.000 A 
ATOM     20  C   UNL     1       7.124   4.586  14.649  0.00  0.00    +0.000 A 
ATOM     21  C   UNL     1       7.458   5.131  15.889  0.00  0.00    +0.000 A 
ATOM     22  C   UNL     1       6.461   5.384  16.833  0.00  0.00    +0.000 A 
ENDBRANCH   3  17
TORSDOF 2
ENDMDL
MODEL 7
REMARK VINA RESULT:      -8.8      0.386      6.151
REMARK  Name = 
REMARK  2 active torsions:
REMARK  status: ('A' for Active; 'I' for Inactive)
REMARK    1  A    between atoms: C_4  and  C_5
REMARK    2  A    between atoms: C_7  and  C_8
REMARK                            x       y       z     vdW  Elec       q    Type
REMARK                         _______ _______ _______ _____ _____    ______ ____
ROOT
ATOM      1  C   UNL     1       2.592   6.552  18.846  0.00  0.00    +0.000 A 
ATOM      2  C   UNL     1       3.652   6.624  17.843  0.00  0.00    +0.000 A 
ATOM      3  C   UNL     1       4.071   5.385  17.525  0.00  0.00    +0.000 A 
ATOM      4  C   UNL     1       3.271   4.462  18.334  0.00  0.00    +0.000 A 
ATOM      5  C   UNL     1       3.402   3.130  18.304  0.00  0.00    +0.000 A 
ATOM      6  C   UNL     1       2.656   2.137  19.041  0.00  0.00    +0.000 A 
ATOM      7  C   UNL     1       1.677   2.303  19.936  0.00  0.00    +0.000 A 
ATOM      8  C   UNL     1       1.085   3.520  20.435  0.00  0.00    +0.000 A 
ATOM      9  C   UNL     1       1.359   4.789  20.107  0.00  0.00    +0.000 A 
ATOM     10  C   UNL     1       2.339   5.251  19.152  0.00  0.00    +0.000 A 
ENDROOT
BRANCH   1  14
ATOM     11  C   UNL     1       0.696   9.976  20.555  0.00  0.00    +0.000 A 
ATOM     12  C   UNL     1       0.987   9.943  19.192  0.00  0.00    +0.000 A 
ATOM     13  C   UNL     1       1.599   8.819  18.633  0.00  0.00    +0.000 A 
ATOM     14  C   UNL     1       1.931   7.721  19.438  0.00  0.00    +0.000 A 
ATOM     15  C   UNL     1       1.627   7.755  20.804  0.00  0.00    +0.000 A 
ATOM     16  C   UNL     1       1.012   8.880  21.360  0.00  0.00    +0.000 A 
ENDBRANCH   1  14
BRANCH   3  17
ATOM     17  C   UNL     1       5.111   5.095  16.542  0.00  0.00    +0.000 A 
ATOM     18  C   UNL     1       6.463   5.238  16.877  0.00  0.00    +0.000 A 
ATOM     19  C   UNL     1       7.455   4.934  15.943  0.00  0.00    +0.000 A 
ATOM     20  C   UNL     1       7.103   4.482  14.671  0.00  0.00    +0.000 A 
ATOM     21  C   UNL     1       5.758   4.332  14.332  0.00  0.00    +0.000 A 
ATOM     22  C   UNL     1       4.764   4.638  15.265  0.00  0.00    +0.000 A 
ENDBRANCH   3  17
TORSDOF 2
ENDMDL
MODEL 8
REMARK VINA RESULT:      -8.8      0.230      6.101
REMARK  Name = 
REMARK  2 active torsions:
REMARK  status: ('A' for Active; 'I' for Inactive)
REMARK    1  A    between atoms: C_4  and  C_5
REMARK    2  A    between atoms: C_7  and  C_8
REMARK                            x       y       z     vdW  Elec       q    Type
REMARK                         _______ _______ _______ _____ _____    ______ ____
ROOT
ATOM      1  C   UNL     1       2.578   6.643  18.948  0.00  0.00    +0.000 A 
ATOM      2  C   UNL     1       3.633   6.686  17.938  0.00  0.00    +0.000 A 
ATOM      3  C   UNL     1       4.063   5.440  17.666  0.00  0.00    +0.000 A 
ATOM      4  C   UNL     1       3.274   4.541  18.512  0.00  0.00    +0.000 A 
ATOM      5  C   UNL     1       3.418   3.210  18.532  0.00  0.00    +0.000 A 
ATOM      6  C   UNL     1       2.684   2.239  19.309  0.00  0.00    +0.000 A 
ATOM      7  C   UNL     1       1.706   2.430  20.201  0.00  0.00    +0.000 A 
ATOM      8  C   UNL     1       1.105   3.659  20.656  0.00  0.00    +0.000 A 
ATOM      9  C   UNL     1       1.366   4.918  20.280  0.00  0.00    +0.000 A 
ATOM     10  C   UNL     1       2.338   5.351  19.304  0.00  0.00    +0.000 A 
ENDROOT
BRANCH   1  14
ATOM     11  C   UNL     1       0.601  10.066  20.562  0.00  0.00    +0.000 A 
ATOM     12  C   UNL     1       0.945   9.000  21.392  0.00  0.00    +0.000 A 
ATOM     13  C   UNL     1       1.600   7.885  20.864  0.00  0.00    +0.000 A 
ATOM     14  C   UNL     1       1.908   7.827  19.498  0.00  0.00    +0.000 A 
ATOM     15  C   UNL     1       1.569   8.905  18.672  0.00  0.00    +0.000 A 
ATOM     16  C   UNL     1       0.916  10.020  19.203  0.00  0.00    +0.000 A 
ENDBRANCH   1  14
BRANCH   3  17
ATOM     17  C   UNL     1       5.102   5.123  16.690  0.00  0.00    +0.000 A 
ATOM     18  C   UNL     1       6.453   5.185  17.048  0.00  0.00    +0.000 A 
ATOM     19  C   UNL     1       7.443   4.854  16.120  0.00  0.00    +0.000 A 
ATOM     20  C   UNL     1       7.089   4.456  14.831  0.00  0.00    +0.000 A 
ATOM     21  C   UNL     1       5.743   4.388  14.469  0.00  0.00    +0.000 A 
ATOM     22  C   UNL     1       4.752   4.719  15.395  0.00  0.00    +0.000 A 
ENDBRANCH   3  17
TORSDOF 2
ENDMDL
MODEL 9
REMARK VINA RESULT:      -7.6      3.303      7.180
REMARK  Name = 
REMARK  2 active torsions:
REMARK  status: ('A' for Active; 'I' for Inactive)
REMARK    1  A    between atoms: C_4  and  C_5
REMARK    2  A    between atoms: C_7  and  C_8
REMARK                            x       y       z     vdW  Elec       q    Type
REMARK                         _______ _______ _______ _____ _____    ______ ____
ROOT
ATOM      1  C   UNL     1       4.232   3.777  17.140  0.00  0.00    +0.000 A 
ATOM      2  C   UNL     1       4.513   3.647  15.712  0.00  0.00    +0.000 A 
ATOM      3  C   UNL     1       5.693   4.223  15.419  0.00  0.00    +0.000 A 
ATOM      4  C   UNL     1       6.216   4.750  16.682  0.00  0.00    +0.000 A 
ATOM      5  C   UNL     1       7.378   5.406  16.799  0.00  0.00    +0.000 A 
ATOM      6  C   UNL     1       7.988   5.946  17.991  0.00  0.00    +0.000 A 
ATOM      7  C   UNL     1       7.541   5.939  19.252  0.00  0.00    +0.000 A 
ATOM      8  C   UNL     1       6.316   5.400  19.788  0.00  0.00    +0.000 A 
ATOM      9  C   UNL     1       5.328   4.754  19.156  0.00  0.00    +0.000 A 
ATOM     10  C   UNL     1       5.256   4.435  17.749  0.00  0.00    +0.000 A 
ENDROOT
BRANCH   1  14
ATOM     11  C   UNL     1       0.686   2.378  19.064  0.00  0.00    +0.000 A 
ATOM     12  C   UNL     1       0.716   3.647  18.487  0.00  0.00    +0.000 A 
ATOM     13  C   UNL     1       1.874   4.099  17.850  0.00  0.00    +0.000 A 
ATOM     14  C   UNL     1       3.014   3.286  17.793  0.00  0.00    +0.000 A 
ATOM     15  C   UNL     1       2.974   2.009  18.366  0.00  0.00    +0.000 A 
ATOM     16  C   UNL     1       1.813   1.558  19.000  0.00  0.00    +0.000 A 
ENDBRANCH   1  14
BRANCH   3  17
ATOM     17  C   UNL     1       6.283   4.260  14.084  0.00  0.00    +0.000 A 
ATOM     18  C   UNL     1       5.814   3.406  13.079  0.00  0.00    +0.000 A 
ATOM     19  C   UNL     1       6.362   3.463  11.795  0.00  0.00    +0.000 A 
ATOM     20  C   UNL     1       7.378   4.375  11.508  0.00  0.00    +0.000 A 
ATOM     21  C   UNL     1       7.846   5.231  12.504  0.00  0.00    +0.000 A 
ATOM     22  C   UNL     1       7.301   5.175  13.788  0.00  0.00    +0.000 A 
ENDBRANCH   3  17
TORSDOF 2
ENDMDL
