MODEL 1
REMARK VINA RESULT:      -8.2      0.000      0.000
REMARK  Name = 
REMARK  8 active torsions:
REMARK  status: ('A' for Active; 'I' for Inactive)
REMARK    1  A    between atoms: C_2  and  O_3
REMARK    2  A    between atoms: C_2  and  C_13
REMARK    3  A    between atoms: O_3  and  C_4
REMARK    4  A    between atoms: C_4  and  C_5
REMARK    5  A    between atoms: C_5  and  O_6
REMARK    6  A    between atoms: O_6  and  C_7
REMARK    7  A    between atoms: C_21  and  O_22
REMARK    8  A    between atoms: O_22  and  C_23
REMARK                            x       y       z     vdW  Elec       q    Type
REMARK                         _______ _______ _______ _____ _____    ______ ____
ROOT
ATOM      1  C   UNL     1       3.322   7.198  17.893  0.00  0.00    +0.000 A 
ATOM      2  S   UNL     1       2.572   8.696  17.592  0.00  0.00    +0.000 S 
ATOM      3  C   UNL     1       1.747   8.646  19.087  0.00  0.00    +0.000 A 
ATOM      4  C   UNL     1       1.029   9.733  19.650  0.00  0.00    +0.000 A 
ATOM      5  C   UNL     1       0.480   9.598  20.915  0.00  0.00    +0.000 A 
ATOM      6  C   UNL     1       0.602   8.400  21.595  0.00  0.00    +0.000 A 
ATOM      7  C   UNL     1       1.272   7.308  21.009  0.00  0.00    +0.000 A 
ATOM      8  C   UNL     1       1.879   7.399  19.725  0.00  0.00    +0.000 A 
ATOM      9  C   UNL     1       2.681   6.492  18.898  0.00  0.00    +0.000 A 
ENDROOT
BRANCH   1  11
ATOM     10  O   UNL     1       4.660   7.105  15.917  0.00  0.00    +0.000 OA
ATOM     11  C   UNL     1       4.501   6.890  17.113  0.00  0.00    +0.000 C 
BRANCH  11  12
ATOM     12  O   UNL     1       5.506   6.510  17.954  0.00  0.00    +0.000 OA
BRANCH  12  13
ATOM     13  C   UNL     1       6.835   6.515  17.396  0.00  0.00    +0.000 C 
BRANCH  13  14
ATOM     14  C   UNL     1       7.118   5.240  16.586  0.00  0.00    +0.000 C 
BRANCH  14  15
ATOM     15  O   UNL     1       7.615   5.643  15.306  0.00  0.00    +0.000 OA
BRANCH  15  16
ATOM     16  C   UNL     1       7.183   4.937  14.220  0.00  0.00    +0.000 A 
ATOM     17  C   UNL     1       6.017   4.196  14.427  0.00  0.00    +0.000 A 
ATOM     18  C   UNL     1       5.431   3.485  13.381  0.00  0.00    +0.000 A 
ATOM     19  C   UNL     1       6.000   3.525  12.112  0.00  0.00    +0.000 A 
ATOM     20  C   UNL     1       7.162   4.268  11.896  0.00  0.00    +0.000 A 
ATOM     21  C   UNL     1       7.757   4.975  12.949  0.00  0.00    +0.000 A 
ENDBRANCH  15  16
ENDBRANCH  14  15
ENDBRANCH  13  14
ENDBRANCH  12  13
ENDBRANCH  11  12
ENDBRANCH   1  11
BRANCH   9  22
ATOM     22  O   UNL     1       3.002   5.165  19.017  0.00  0.00    +0.000 OA
BRANCH  22  23
ATOM     23  C   UNL     1       2.727   4.266  17.937  0.00  0.00    +0.000 C 
ATOM     24  C   UNL     1       1.300   3.716  18.139  0.00  0.00    +0.000 C 
ATOM     25  C   UNL     1       1.220   2.481  19.031  0.00  0.00    +0.000 C 
ATOM     26  N   UNL     1       2.126   1.432  18.573  0.00  0.00    +0.000 NA
ATOM     27  C   UNL     1       3.504   1.906  18.659  0.00  0.00    +0.000 C 
ATOM     28  C   UNL     1       3.758   3.134  17.782  0.00  0.00    +0.000 C 
ATOM     29  H   UNL     1       1.902   1.174  17.611  0.00  0.00    +0.000 HD
ENDBRANCH  22  23
ENDBRANCH   9  22
TORSDOF 8
ENDMDL
MODEL 2
REMARK VINA RESULT:      -8.2      1.368      2.191
REMARK  Name = 
REMARK  8 active torsions:
REMARK  status: ('A' for Active; 'I' for Inactive)
REMARK    1  A    between atoms: C_2  and  O_3
REMARK    2  A    between atoms: C_2  and  C_13
REMARK    3  A    between atoms: O_3  and  C_4
REMARK    4  A    between atoms: C_4  and  C_5
REMARK    5  A    between atoms: C_5  and  O_6
REMARK    6  A    between atoms: O_6  and  C_7
REMARK    7  A    between atoms: C_21  and  O_22
REMARK    8  A    between atoms: O_22  and  C_23
REMARK                            x       y       z     vdW  Elec       q    Type
REMARK                         _______ _______ _______ _____ _____    ______ ____
ROOT
ATOM      1  C   UNL     1       3.772   5.646  18.994  0.00  0.00    +0.000 A 
ATOM      2  S   UNL     1       3.468   6.668  17.667  0.00  0.00    +0.000 S 
ATOM      3  C   UNL     1       2.429   7.657  18.596  0.00  0.00    +0.000 A 
ATOM      4  C   UNL     1       1.918   8.911  18.174  0.00  0.00    +0.000 A 
ATOM      5  C   UNL     1       1.159   9.663  19.056  0.00  0.00    +0.000 A 
ATOM      6  C   UNL     1       0.875   9.168  20.316  0.00  0.00    +0.000 A 
ATOM      7  C   UNL     1       1.342   7.899  20.710  0.00  0.00    +0.000 A 
ATOM      8  C   UNL     1       2.150   7.096  19.856  0.00  0.00    +0.000 A 
ATOM      9  C   UNL     1       2.826   5.803  19.995  0.00  0.00    +0.000 A 
ENDROOT
BRANCH   1  11
ATOM     10  O   UNL     1       5.224   3.868  19.653  0.00  0.00    +0.000 OA
ATOM     11  C   UNL     1       4.949   4.808  18.916  0.00  0.00    +0.000 C 
BRANCH  11  12
ATOM     12  O   UNL     1       5.619   5.085  17.760  0.00  0.00    +0.000 OA
BRANCH  12  13
ATOM     13  C   UNL     1       7.054   5.161  17.863  0.00  0.00    +0.000 C 
BRANCH  13  14
ATOM     14  C   UNL     1       7.744   4.659  16.584  0.00  0.00    +0.000 C 
BRANCH  14  15
ATOM     15  O   UNL     1       7.326   5.504  15.508  0.00  0.00    +0.000 OA
BRANCH  15  16
ATOM     16  C   UNL     1       6.869   4.892  14.376  0.00  0.00    +0.000 A 
ATOM     17  C   UNL     1       7.663   5.084  13.243  0.00  0.00    +0.000 A 
ATOM     18  C   UNL     1       7.348   4.458  12.039  0.00  0.00    +0.000 A 
ATOM     19  C   UNL     1       6.241   3.618  11.964  0.00  0.00    +0.000 A 
ATOM     20  C   UNL     1       5.446   3.415  13.094  0.00  0.00    +0.000 A 
ATOM     21  C   UNL     1       5.757   4.053  14.302  0.00  0.00    +0.000 A 
ENDBRANCH  15  16
ENDBRANCH  14  15
ENDBRANCH  13  14
ENDBRANCH  12  13
ENDBRANCH  11  12
ENDBRANCH   1  11
BRANCH   9  22
ATOM     22  O   UNL     1       2.791   4.834  20.963  0.00  0.00    +0.000 OA
BRANCH  22  23
ATOM     23  C   UNL     1       1.699   3.909  21.004  0.00  0.00    +0.000 C 
ATOM     24  C   UNL     1       2.293   2.491  21.135  0.00  0.00    +0.000 C 
ATOM     25  C   UNL     1       2.649   1.830  19.807  0.00  0.00    +0.000 C 
ATOM     26  N   UNL     1       1.517   1.841  18.885  0.00  0.00    +0.000 NA
ATOM     27  C   UNL     1       1.159   3.221  18.569  0.00  0.00    +0.000 C 
ATOM     28  C   UNL     1       0.738   4.015  19.807  0.00  0.00    +0.000 C 
ATOM     29  H   UNL     1       0.722   1.358  19.304  0.00  0.00    +0.000 HD
ENDBRANCH  22  23
ENDBRANCH   9  22
TORSDOF 8
ENDMDL
MODEL 3
REMARK VINA RESULT:      -7.9      2.157      7.631
REMARK  Name = 
REMARK  8 active torsions:
REMARK  status: ('A' for Active; 'I' for Inactive)
REMARK    1  A    between atoms: C_2  and  O_3
REMARK    2  A    between atoms: C_2  and  C_13
REMARK    3  A    between atoms: O_3  and  C_4
REMARK    4  A    between atoms: C_4  and  C_5
REMARK    5  A    between atoms: C_5  and  O_6
REMARK    6  A    between atoms: O_6  and  C_7
REMARK    7  A    between atoms: C_21  and  O_22
REMARK    8  A    between atoms: O_22  and  C_23
REMARK                            x       y       z     vdW  Elec       q    Type
REMARK                         _______ _______ _______ _____ _____    ______ ____
ROOT
ATOM      1  C   UNL     1       3.626   5.574  18.172  0.00  0.00    +0.000 A 
ATOM      2  S   UNL     1       5.232   6.105  18.364  0.00  0.00    +0.000 S 
ATOM      3  C   UNL     1       5.734   5.275  16.958  0.00  0.00    +0.000 A 
ATOM      4  C   UNL     1       7.001   5.428  16.339  0.00  0.00    +0.000 A 
ATOM      5  C   UNL     1       7.256   4.768  15.147  0.00  0.00    +0.000 A 
ATOM      6  C   UNL     1       6.293   3.940  14.599  0.00  0.00    +0.000 A 
ATOM      7  C   UNL     1       5.056   3.752  15.245  0.00  0.00    +0.000 A 
ATOM      8  C   UNL     1       4.730   4.427  16.456  0.00  0.00    +0.000 A 
ATOM      9  C   UNL     1       3.540   4.492  17.310  0.00  0.00    +0.000 A 
ENDROOT
BRANCH   1  11
ATOM     10  O   UNL     1       2.410   6.312  20.090  0.00  0.00    +0.000 OA
ATOM     11  C   UNL     1       2.605   6.314  18.879  0.00  0.00    +0.000 C 
BRANCH  11  12
ATOM     12  O   UNL     1       2.010   7.190  18.019  0.00  0.00    +0.000 OA
BRANCH  12  13
ATOM     13  C   UNL     1       2.267   8.588  18.260  0.00  0.00    +0.000 C 
BRANCH  13  14
ATOM     14  C   UNL     1       0.976   9.357  18.584  0.00  0.00    +0.000 C 
BRANCH  14  15
ATOM     15  O   UNL     1       1.302  10.358  19.554  0.00  0.00    +0.000 OA
BRANCH  15  16
ATOM     16  C   UNL     1       0.653  10.297  20.754  0.00  0.00    +0.000 A 
ATOM     17  C   UNL     1      -0.008  11.472  21.123  0.00  0.00    +0.000 A 
ATOM     18  C   UNL     1      -0.767  11.523  22.291  0.00  0.00    +0.000 A 
ATOM     19  C   UNL     1      -0.883  10.392  23.092  0.00  0.00    +0.000 A 
ATOM     20  C   UNL     1      -0.231   9.213  22.726  0.00  0.00    +0.000 A 
ATOM     21  C   UNL     1       0.540   9.163  21.557  0.00  0.00    +0.000 A 
ENDBRANCH  15  16
ENDBRANCH  14  15
ENDBRANCH  13  14
ENDBRANCH  12  13
ENDBRANCH  11  12
ENDBRANCH   1  11
BRANCH   9  22
ATOM     22  O   UNL     1       2.359   3.797  17.314  0.00  0.00    +0.000 OA
BRANCH  22  23
ATOM     23  C   UNL     1       2.286   2.525  17.968  0.00  0.00    +0.000 C 
ATOM     24  C   UNL     1       0.934   2.457  18.708  0.00  0.00    +0.000 C 
ATOM     25  C   UNL     1       0.955   3.046  20.115  0.00  0.00    +0.000 C 
ATOM     26  N   UNL     1       2.023   2.465  20.921  0.00  0.00    +0.000 NA
ATOM     27  C   UNL     1       3.316   2.791  20.326  0.00  0.00    +0.000 C 
ATOM     28  C   UNL     1       3.467   2.231  18.910  0.00  0.00    +0.000 C 
ATOM     29  H   UNL     1       1.906   1.452  20.977  0.00  0.00    +0.000 HD
ENDBRANCH  22  23
ENDBRANCH   9  22
TORSDOF 8
ENDMDL
MODEL 4
REMARK VINA RESULT:      -7.9      0.957      1.336
REMARK  Name = 
REMARK  8 active torsions:
REMARK  status: ('A' for Active; 'I' for Inactive)
REMARK    1  A    between atoms: C_2  and  O_3
REMARK    2  A    between atoms: C_2  and  C_13
REMARK    3  A    between atoms: O_3  and  C_4
REMARK    4  A    between atoms: C_4  and  C_5
REMARK    5  A    between atoms: C_5  and  O_6
REMARK    6  A    between atoms: O_6  and  C_7
REMARK    7  A    between atoms: C_21  and  O_22
REMARK    8  A    between atoms: O_22  and  C_23
REMARK                            x       y       z     vdW  Elec       q    Type
REMARK                         _______ _______ _______ _____ _____    ______ ____
ROOT
ATOM      1  C   UNL     1       3.088   6.766  18.504  0.00  0.00    +0.000 A 
ATOM      2  S   UNL     1       2.641   8.211  17.722  0.00  0.00    +0.000 S 
ATOM      3  C   UNL     1       1.783   8.754  19.096  0.00  0.00    +0.000 A 
ATOM      4  C   UNL     1       1.268  10.065  19.260  0.00  0.00    +0.000 A 
ATOM      5  C   UNL     1       0.671  10.413  20.461  0.00  0.00    +0.000 A 
ATOM      6  C   UNL     1       0.548   9.471  21.466  0.00  0.00    +0.000 A 
ATOM      7  C   UNL     1       1.015   8.156  21.279  0.00  0.00    +0.000 A 
ATOM      8  C   UNL     1       1.662   7.752  20.076  0.00  0.00    +0.000 A 
ATOM      9  C   UNL     1       2.300   6.515  19.615  0.00  0.00    +0.000 A 
ENDROOT
BRANCH   1  11
ATOM     10  O   UNL     1       4.472   4.857  18.124  0.00  0.00    +0.000 OA
ATOM     11  C   UNL     1       4.208   6.041  17.945  0.00  0.00    +0.000 C 
BRANCH  11  12
ATOM     12  O   UNL     1       4.823   6.821  17.009  0.00  0.00    +0.000 OA
BRANCH  12  13
ATOM     13  C   UNL     1       6.259   6.905  17.098  0.00  0.00    +0.000 C 
BRANCH  13  14
ATOM     14  C   UNL     1       6.936   5.610  16.621  0.00  0.00    +0.000 C 
BRANCH  14  15
ATOM     15  O   UNL     1       7.489   5.865  15.326  0.00  0.00    +0.000 OA
BRANCH  15  16
ATOM     16  C   UNL     1       7.088   5.050  14.306  0.00  0.00    +0.000 A 
ATOM     17  C   UNL     1       5.906   4.346  14.547  0.00  0.00    +0.000 A 
ATOM     18  C   UNL     1       5.349   3.533  13.562  0.00  0.00    +0.000 A 
ATOM     19  C   UNL     1       5.965   3.430  12.318  0.00  0.00    +0.000 A 
ATOM     20  C   UNL     1       7.144   4.136  12.067  0.00  0.00    +0.000 A 
ATOM     21  C   UNL     1       7.709   4.945  13.061  0.00  0.00    +0.000 A 
ENDBRANCH  15  16
ENDBRANCH  14  15
ENDBRANCH  13  14
ENDBRANCH  12  13
ENDBRANCH  11  12
ENDBRANCH   1  11
BRANCH   9  22
ATOM     22  O   UNL     1       2.363   5.251  20.140  0.00  0.00    +0.000 OA
BRANCH  22  23
ATOM     23  C   UNL     1       1.270   4.346  19.949  0.00  0.00    +0.000 C 
ATOM     24  C   UNL     1       1.421   3.206  20.978  0.00  0.00    +0.000 C 
ATOM     25  C   UNL     1       2.304   2.051  20.514  0.00  0.00    +0.000 C 
ATOM     26  N   UNL     1       1.870   1.534  19.220  0.00  0.00    +0.000 NA
ATOM     27  C   UNL     1       2.005   2.578  18.208  0.00  0.00    +0.000 C 
ATOM     28  C   UNL     1       1.142   3.805  18.514  0.00  0.00    +0.000 C 
ATOM     29  H   UNL     1       0.901   1.221  19.277  0.00  0.00    +0.000 HD
ENDBRANCH  22  23
ENDBRANCH   9  22
TORSDOF 8
ENDMDL
MODEL 5
REMARK VINA RESULT:      -7.8      2.613      7.428
REMARK  Name = 
REMARK  8 active torsions:
REMARK  status: ('A' for Active; 'I' for Inactive)
REMARK    1  A    between atoms: C_2  and  O_3
REMARK    2  A    between atoms: C_2  and  C_13
REMARK    3  A    between atoms: O_3  and  C_4
REMARK    4  A    between atoms: C_4  and  C_5
REMARK    5  A    between atoms: C_5  and  O_6
REMARK    6  A    between atoms: O_6  and  C_7
REMARK    7  A    between atoms: C_21  and  O_22
REMARK    8  A    between atoms: O_22  and  C_23
REMARK                            x       y       z     vdW  Elec       q    Type
REMARK                         _______ _______ _______ _____ _____    ______ ____
ROOT
ATOM      1  C   UNL     1       3.678   5.609  18.224  0.00  0.00    +0.000 A 
ATOM      2  S   UNL     1       5.294   6.116  18.393  0.00  0.00    +0.000 S 
ATOM      3  C   UNL     1       5.758   5.302  16.965  0.00  0.00    +0.000 A 
ATOM      4  C   UNL     1       7.015   5.448  16.324  0.00  0.00    +0.000 A 
ATOM      5  C   UNL     1       7.239   4.804  15.118  0.00  0.00    +0.000 A 
ATOM      6  C   UNL     1       6.254   3.998  14.575  0.00  0.00    +0.000 A 
ATOM      7  C   UNL     1       5.028   3.815  15.242  0.00  0.00    +0.000 A 
ATOM      8  C   UNL     1       4.734   4.475  16.469  0.00  0.00    +0.000 A 
ATOM      9  C   UNL     1       3.561   4.542  17.347  0.00  0.00    +0.000 A 
ENDROOT
BRANCH   1  11
ATOM     10  O   UNL     1       2.379   6.193  20.141  0.00  0.00    +0.000 OA
ATOM     11  C   UNL     1       2.681   6.351  18.963  0.00  0.00    +0.000 C 
BRANCH  11  12
ATOM     12  O   UNL     1       2.260   7.408  18.210  0.00  0.00    +0.000 OA
BRANCH  12  13
ATOM     13  C   UNL     1       1.745   8.540  18.937  0.00  0.00    +0.000 C 
BRANCH  13  14
ATOM     14  C   UNL     1       1.149   9.599  17.996  0.00  0.00    +0.000 C 
BRANCH  14  15
ATOM     15  O   UNL     1       0.401  10.518  18.798  0.00  0.00    +0.000 OA
BRANCH  15  16
ATOM     16  C   UNL     1      -0.908  10.714  18.464  0.00  0.00    +0.000 A 
ATOM     17  C   UNL     1      -1.384   9.886  17.444  0.00  0.00    +0.000 A 
ATOM     18  C   UNL     1      -2.721   9.935  17.054  0.00  0.00    +0.000 A 
ATOM     19  C   UNL     1      -3.598  10.804  17.696  0.00  0.00    +0.000 A 
ATOM     20  C   UNL     1      -3.132  11.630  18.720  0.00  0.00    +0.000 A 
ATOM     21  C   UNL     1      -1.785  11.588  19.106  0.00  0.00    +0.000 A 
ENDBRANCH  15  16
ENDBRANCH  14  15
ENDBRANCH  13  14
ENDBRANCH  12  13
ENDBRANCH  11  12
ENDBRANCH   1  11
BRANCH   9  22
ATOM     22  O   UNL     1       2.372   3.862  17.364  0.00  0.00    +0.000 OA
BRANCH  22  23
ATOM     23  C   UNL     1       2.299   2.572  17.981  0.00  0.00    +0.000 C 
ATOM     24  C   UNL     1       0.928   2.466  18.681  0.00  0.00    +0.000 C 
ATOM     25  C   UNL     1       0.901   3.017  20.103  0.00  0.00    +0.000 C 
ATOM     26  N   UNL     1       1.956   2.429  20.923  0.00  0.00    +0.000 NA
ATOM     27  C   UNL     1       3.259   2.789  20.373  0.00  0.00    +0.000 C 
ATOM     28  C   UNL     1       3.457   2.270  18.948  0.00  0.00    +0.000 C 
ATOM     29  H   UNL     1       1.851   1.414  20.949  0.00  0.00    +0.000 HD
ENDBRANCH  22  23
ENDBRANCH   9  22
TORSDOF 8
ENDMDL
MODEL 6
REMARK VINA RESULT:      -7.7      2.787      4.672
REMARK  Name = 
REMARK  8 active torsions:
REMARK  status: ('A' for Active; 'I' for Inactive)
REMARK    1  A    between atoms: C_2  and  O_3
REMARK    2  A    between atoms: C_2  and  C_13
REMARK    3  A    between atoms: O_3  and  C_4
REMARK    4  A    between atoms: C_4  and  C_5
REMARK    5  A    between atoms: C_5  and  O_6
REMARK    6  A    between atoms: O_6  and  C_7
REMARK    7  A    between atoms: C_21  and  O_22
REMARK    8  A    between atoms: O_22  and  C_23
REMARK                            x       y       z     vdW  Elec       q    Type
REMARK                         _______ _______ _______ _____ _____    ______ ____
ROOT
ATOM      1  C   UNL     1       3.674   6.573  18.272  0.00  0.00    +0.000 A 
ATOM      2  S   UNL     1       2.943   7.863  17.435  0.00  0.00    +0.000 S 
ATOM      3  C   UNL     1       2.013   8.295  18.801  0.00  0.00    +0.000 A 
ATOM      4  C   UNL     1       1.254   9.488  18.916  0.00  0.00    +0.000 A 
ATOM      5  C   UNL     1       0.615   9.771  20.113  0.00  0.00    +0.000 A 
ATOM      6  C   UNL     1       0.692   8.874  21.163  0.00  0.00    +0.000 A 
ATOM      7  C   UNL     1       1.405   7.667  21.025  0.00  0.00    +0.000 A 
ATOM      8  C   UNL     1       2.103   7.339  19.829  0.00  0.00    +0.000 A 
ATOM      9  C   UNL     1       2.964   6.228  19.411  0.00  0.00    +0.000 A 
ENDROOT
BRANCH   1  11
ATOM     10  O   UNL     1       5.081   4.934  17.253  0.00  0.00    +0.000 OA
ATOM     11  C   UNL     1       4.907   6.053  17.721  0.00  0.00    +0.000 C 
BRANCH  11  12
ATOM     12  O   UNL     1       5.809   7.070  17.606  0.00  0.00    +0.000 OA
BRANCH  12  13
ATOM     13  C   UNL     1       7.193   6.682  17.512  0.00  0.00    +0.000 C 
BRANCH  13  14
ATOM     14  C   UNL     1       8.123   7.729  18.145  0.00  0.00    +0.000 C 
BRANCH  14  15
ATOM     15  O   UNL     1       7.772   9.005  17.600  0.00  0.00    +0.000 OA
BRANCH  15  16
ATOM     16  C   UNL     1       8.377  10.102  18.141  0.00  0.00    +0.000 A 
ATOM     17  C   UNL     1       9.160   9.844  19.270  0.00  0.00    +0.000 A 
ATOM     18  C   UNL     1       9.888  10.864  19.879  0.00  0.00    +0.000 A 
ATOM     19  C   UNL     1       9.851  12.151  19.351  0.00  0.00    +0.000 A 
ATOM     20  C   UNL     1       9.077  12.416  18.220  0.00  0.00    +0.000 A 
ATOM     21  C   UNL     1       8.337  11.393  17.614  0.00  0.00    +0.000 A 
ENDBRANCH  15  16
ENDBRANCH  14  15
ENDBRANCH  13  14
ENDBRANCH  12  13
ENDBRANCH  11  12
ENDBRANCH   1  11
BRANCH   9  22
ATOM     22  O   UNL     1       3.279   5.027  19.990  0.00  0.00    +0.000 OA
BRANCH  22  23
ATOM     23  C   UNL     1       2.333   3.953  19.962  0.00  0.00    +0.000 C 
ATOM     24  C   UNL     1       3.090   2.653  20.306  0.00  0.00    +0.000 C 
ATOM     25  C   UNL     1       3.732   1.962  19.107  0.00  0.00    +0.000 C 
ATOM     26  N   UNL     1       2.764   1.737  18.039  0.00  0.00    +0.000 NA
ATOM     27  C   UNL     1       2.271   3.021  17.549  0.00  0.00    +0.000 C 
ATOM     28  C   UNL     1       1.560   3.829  18.637  0.00  0.00    +0.000 C 
ATOM     29  H   UNL     1       1.989   1.171  18.385  0.00  0.00    +0.000 HD
ENDBRANCH  22  23
ENDBRANCH   9  22
TORSDOF 8
ENDMDL
MODEL 7
REMARK VINA RESULT:      -7.7      2.345      7.309
REMARK  Name = 
REMARK  8 active torsions:
REMARK  status: ('A' for Active; 'I' for Inactive)
REMARK    1  A    between atoms: C_2  and  O_3
REMARK    2  A    between atoms: C_2  and  C_13
REMARK    3  A    between atoms: O_3  and  C_4
REMARK    4  A    between atoms: C_4  and  C_5
REMARK    5  A    between atoms: C_5  and  O_6
REMARK    6  A    between atoms: O_6  and  C_7
REMARK    7  A    between atoms: C_21  and  O_22
REMARK    8  A    between atoms: O_22  and  C_23
REMARK                            x       y       z     vdW  Elec       q    Type
REMARK                         _______ _______ _______ _____ _____    ______ ____
ROOT
ATOM      1  C   UNL     1       3.700   5.527  18.193  0.00  0.00    +0.000 A 
ATOM      2  S   UNL     1       5.313   6.037  18.377  0.00  0.00    +0.000 S 
ATOM      3  C   UNL     1       5.785   5.248  16.936  0.00  0.00    +0.000 A 
ATOM      4  C   UNL     1       7.044   5.410  16.303  0.00  0.00    +0.000 A 
ATOM      5  C   UNL     1       7.274   4.787  15.086  0.00  0.00    +0.000 A 
ATOM      6  C   UNL     1       6.294   3.987  14.526  0.00  0.00    +0.000 A 
ATOM      7  C   UNL     1       5.066   3.789  15.186  0.00  0.00    +0.000 A 
ATOM      8  C   UNL     1       4.765   4.427  16.423  0.00  0.00    +0.000 A 
ATOM      9  C   UNL     1       3.589   4.475  17.298  0.00  0.00    +0.000 A 
ENDROOT
BRANCH   1  11
ATOM     10  O   UNL     1       2.563   6.264  20.160  0.00  0.00    +0.000 OA
ATOM     11  C   UNL     1       2.697   6.253  18.941  0.00  0.00    +0.000 C 
BRANCH  11  12
ATOM     12  O   UNL     1       2.039   7.101  18.099  0.00  0.00    +0.000 OA
BRANCH  12  13
ATOM     13  C   UNL     1       2.651   8.389  17.890  0.00  0.00    +0.000 C 
BRANCH  13  14
ATOM     14  C   UNL     1       1.703   9.539  18.265  0.00  0.00    +0.000 C 
BRANCH  14  15
ATOM     15  O   UNL     1       0.447   9.288  17.626  0.00  0.00    +0.000 OA
BRANCH  15  16
ATOM     16  C   UNL     1      -0.616  10.048  18.023  0.00  0.00    +0.000 A 
ATOM     17  C   UNL     1      -0.402  10.797  19.183  0.00  0.00    +0.000 A 
ATOM     18  C   UNL     1      -1.382  11.667  19.657  0.00  0.00    +0.000 A 
ATOM     19  C   UNL     1      -2.580  11.807  18.964  0.00  0.00    +0.000 A 
ATOM     20  C   UNL     1      -2.798  11.066  17.800  0.00  0.00    +0.000 A 
ATOM     21  C   UNL     1      -1.818  10.184  17.328  0.00  0.00    +0.000 A 
ENDBRANCH  15  16
ENDBRANCH  14  15
ENDBRANCH  13  14
ENDBRANCH  12  13
ENDBRANCH  11  12
ENDBRANCH   1  11
BRANCH   9  22
ATOM     22  O   UNL     1       2.402   3.791  17.298  0.00  0.00    +0.000 OA
BRANCH  22  23
ATOM     23  C   UNL     1       2.314   2.521  17.954  0.00  0.00    +0.000 C 
ATOM     24  C   UNL     1       0.953   2.463  18.678  0.00  0.00    +0.000 C 
ATOM     25  C   UNL     1       0.960   3.056  20.084  0.00  0.00    +0.000 C 
ATOM     26  N   UNL     1       2.016   2.471  20.905  0.00  0.00    +0.000 NA
ATOM     27  C   UNL     1       3.317   2.788  20.324  0.00  0.00    +0.000 C 
ATOM     28  C   UNL     1       3.482   2.223  18.911  0.00  0.00    +0.000 C 
ATOM     29  H   UNL     1       1.892   1.459  20.962  0.00  0.00    +0.000 HD
ENDBRANCH  22  23
ENDBRANCH   9  22
TORSDOF 8
ENDMDL
MODEL 8
REMARK VINA RESULT:      -7.6      2.799      7.697
REMARK  Name = 
REMARK  8 active torsions:
REMARK  status: ('A' for Active; 'I' for Inactive)
REMARK    1  A    between atoms: C_2  and  O_3
REMARK    2  A    between atoms: C_2  and  C_13
REMARK    3  A    between atoms: O_3  and  C_4
REMARK    4  A    between atoms: C_4  and  C_5
REMARK    5  A    between atoms: C_5  and  O_6
REMARK    6  A    between atoms: O_6  and  C_7
REMARK    7  A    between atoms: C_21  and  O_22
REMARK    8  A    between atoms: O_22  and  C_23
REMARK                            x       y       z     vdW  Elec       q    Type
REMARK                         _______ _______ _______ _____ _____    ______ ____
ROOT
ATOM      1  C   UNL     1       3.123   6.017  18.390  0.00  0.00    +0.000 A 
ATOM      2  S   UNL     1       1.719   5.162  17.947  0.00  0.00    +0.000 S 
ATOM      3  C   UNL     1       1.875   4.106  19.280  0.00  0.00    +0.000 A 
ATOM      4  C   UNL     1       0.882   3.182  19.699  0.00  0.00    +0.000 A 
ATOM      5  C   UNL     1       1.088   2.444  20.853  0.00  0.00    +0.000 A 
ATOM      6  C   UNL     1       2.269   2.585  21.559  0.00  0.00    +0.000 A 
ATOM      7  C   UNL     1       3.273   3.466  21.110  0.00  0.00    +0.000 A 
ATOM      8  C   UNL     1       3.103   4.269  19.947  0.00  0.00    +0.000 A 
ATOM      9  C   UNL     1       3.906   5.299  19.280  0.00  0.00    +0.000 A 
ENDROOT
BRANCH   1  11
ATOM     10  O   UNL     1       3.829   7.615  16.762  0.00  0.00    +0.000 OA
ATOM     11  C   UNL     1       3.287   7.339  17.826  0.00  0.00    +0.000 C 
BRANCH  11  12
ATOM     12  O   UNL     1       2.560   8.231  18.559  0.00  0.00    +0.000 OA
BRANCH  12  13
ATOM     13  C   UNL     1       1.759   9.164  17.808  0.00  0.00    +0.000 C 
BRANCH  13  14
ATOM     14  C   UNL     1       1.060  10.181  18.724  0.00  0.00    +0.000 C 
BRANCH  14  15
ATOM     15  O   UNL     1       1.040   9.630  20.044  0.00  0.00    +0.000 OA
BRANCH  15  16
ATOM     16  C   UNL     1       0.200  10.213  20.950  0.00  0.00    +0.000 A 
ATOM     17  C   UNL     1       0.070   9.523  22.158  0.00  0.00    +0.000 A 
ATOM     18  C   UNL     1      -0.702  10.044  23.194  0.00  0.00    +0.000 A 
ATOM     19  C   UNL     1      -1.339  11.270  23.035  0.00  0.00    +0.000 A 
ATOM     20  C   UNL     1      -1.209  11.969  21.833  0.00  0.00    +0.000 A 
ATOM     21  C   UNL     1      -0.441  11.441  20.787  0.00  0.00    +0.000 A 
ENDBRANCH  15  16
ENDBRANCH  14  15
ENDBRANCH  13  14
ENDBRANCH  12  13
ENDBRANCH  11  12
ENDBRANCH   1  11
BRANCH   9  22
ATOM     22  O   UNL     1       5.188   5.745  19.469  0.00  0.00    +0.000 OA
BRANCH  22  23
ATOM     23  C   UNL     1       6.283   5.032  18.883  0.00  0.00    +0.000 C 
ATOM     24  C   UNL     1       7.477   6.004  18.789  0.00  0.00    +0.000 C 
ATOM     25  C   UNL     1       7.503   6.851  17.520  0.00  0.00    +0.000 C 
ATOM     26  N   UNL     1       7.407   6.022  16.323  0.00  0.00    +0.000 NA
ATOM     27  C   UNL     1       6.126   5.321  16.316  0.00  0.00    +0.000 C 
ATOM     28  C   UNL     1       5.961   4.392  17.520  0.00  0.00    +0.000 C 
ATOM     29  H   UNL     1       8.176   5.351  16.301  0.00  0.00    +0.000 HD
ENDBRANCH  22  23
ENDBRANCH   9  22
TORSDOF 8
ENDMDL
MODEL 9
REMARK VINA RESULT:      -7.6      2.242      7.700
REMARK  Name = 
REMARK  8 active torsions:
REMARK  status: ('A' for Active; 'I' for Inactive)
REMARK    1  A    between atoms: C_2  and  O_3
REMARK    2  A    between atoms: C_2  and  C_13
REMARK    3  A    between atoms: O_3  and  C_4
REMARK    4  A    between atoms: C_4  and  C_5
REMARK    5  A    between atoms: C_5  and  O_6
REMARK    6  A    between atoms: O_6  and  C_7
REMARK    7  A    between atoms: C_21  and  O_22
REMARK    8  A    between atoms: O_22  and  C_23
REMARK                            x       y       z     vdW  Elec       q    Type
REMARK                         _______ _______ _______ _____ _____    ______ ____
ROOT
ATOM      1  C   UNL     1       3.627   6.529  18.090  0.00  0.00    +0.000 A 
ATOM      2  S   UNL     1       4.382   7.385  16.828  0.00  0.00    +0.000 S 
ATOM      3  C   UNL     1       5.068   5.954  16.194  0.00  0.00    +0.000 A 
ATOM      4  C   UNL     1       5.719   5.859  14.937  0.00  0.00    +0.000 A 
ATOM      5  C   UNL     1       6.152   4.621  14.491  0.00  0.00    +0.000 A 
ATOM      6  C   UNL     1       5.984   3.504  15.290  0.00  0.00    +0.000 A 
ATOM      7  C   UNL     1       5.384   3.614  16.559  0.00  0.00    +0.000 A 
ATOM      8  C   UNL     1       4.895   4.856  17.055  0.00  0.00    +0.000 A 
ATOM      9  C   UNL     1       4.183   5.272  18.268  0.00  0.00    +0.000 A 
ENDROOT
BRANCH   1  11
ATOM     10  O   UNL     1       2.312   7.202  19.967  0.00  0.00    +0.000 OA
ATOM     11  C   UNL     1       2.528   7.189  18.760  0.00  0.00    +0.000 C 
BRANCH  11  12
ATOM     12  O   UNL     1       1.869   7.980  17.865  0.00  0.00    +0.000 OA
BRANCH  12  13
ATOM     13  C   UNL     1       1.981   9.401  18.073  0.00  0.00    +0.000 C 
BRANCH  13  14
ATOM     14  C   UNL     1       0.647  10.017  18.527  0.00  0.00    +0.000 C 
BRANCH  14  15
ATOM     15  O   UNL     1       0.935  10.937  19.584  0.00  0.00    +0.000 OA
BRANCH  15  16
ATOM     16  C   UNL     1       0.251  10.774  20.755  0.00  0.00    +0.000 A 
ATOM     17  C   UNL     1       0.666   9.688  21.531  0.00  0.00    +0.000 A 
ATOM     18  C   UNL     1       0.098   9.449  22.780  0.00  0.00    +0.000 A 
ATOM     19  C   UNL     1      -0.881  10.307  23.272  0.00  0.00    +0.000 A 
ATOM     20  C   UNL     1      -1.296  11.398  22.506  0.00  0.00    +0.000 A 
ATOM     21  C   UNL     1      -0.733  11.633  21.245  0.00  0.00    +0.000 A 
ENDBRANCH  15  16
ENDBRANCH  14  15
ENDBRANCH  13  14
ENDBRANCH  12  13
ENDBRANCH  11  12
ENDBRANCH   1  11
BRANCH   9  22
ATOM     22  O   UNL     1       3.869   4.620  19.431  0.00  0.00    +0.000 OA
BRANCH  22  23
ATOM     23  C   UNL     1       3.220   3.345  19.379  0.00  0.00    +0.000 C 
ATOM     24  C   UNL     1       1.757   3.583  18.949  0.00  0.00    +0.000 C 
ATOM     25  C   UNL     1       0.803   3.890  20.099  0.00  0.00    +0.000 C 
ATOM     26  N   UNL     1       0.884   2.875  21.145  0.00  0.00    +0.000 NA
ATOM     27  C   UNL     1       2.225   2.873  21.721  0.00  0.00    +0.000 C 
ATOM     28  C   UNL     1       3.305   2.541  20.689  0.00  0.00    +0.000 C 
ATOM     29  H   UNL     1       0.665   1.957  20.757  0.00  0.00    +0.000 HD
ENDBRANCH  22  23
ENDBRANCH   9  22
TORSDOF 8
ENDMDL
