MODEL 1
REMARK VINA RESULT:      -8.3      0.000      0.000
REMARK  Name = 
REMARK  4 active torsions:
REMARK  status: ('A' for Active; 'I' for Inactive)
REMARK    1  A    between atoms: C_2  and  C_11
REMARK    2  A    between atoms: N_3  and  C_4
REMARK    3  A    between atoms: C_15  and  C_16
REMARK    4  A    between atoms: N_18  and  C_19
REMARK                            x       y       z     vdW  Elec       q    Type
REMARK                         _______ _______ _______ _____ _____    ______ ____
ROOT
ATOM      1  C   UNL     1       4.256   6.028  17.444  0.00  0.00    +0.000 A 
ATOM      2  C   UNL     1       4.416   5.021  18.401  0.00  0.00    +0.000 A 
ATOM      3  C   UNL     1       3.717   5.103  19.602  0.00  0.00    +0.000 A 
ATOM      4  C   UNL     1       2.865   6.184  19.841  0.00  0.00    +0.000 A 
ATOM      5  C   UNL     1       2.703   7.209  18.893  0.00  0.00    +0.000 A 
ATOM      6  C   UNL     1       3.413   7.127  17.694  0.00  0.00    +0.000 A 
ENDROOT
BRANCH   1   8
ATOM      7  O   UNL     1       5.190   7.094  15.606  0.00  0.00    +0.000 OA
ATOM      8  C   UNL     1       5.004   6.015  16.162  0.00  0.00    +0.000 C 
ATOM      9  N   UNL     1       5.355   4.766  15.678  0.00  0.00    +0.000 N 
ATOM     10  H   UNL     1       4.965   3.956  16.143  0.00  0.00    +0.000 HD
BRANCH   9  11
ATOM     11  C   UNL     1       6.035   4.520  14.462  0.00  0.00    +0.000 A 
ATOM     12  C   UNL     1       7.183   5.218  14.074  0.00  0.00    +0.000 A 
ATOM     13  C   UNL     1       7.778   4.982  12.832  0.00  0.00    +0.000 A 
ATOM     14  C   UNL     1       7.233   4.037  11.968  0.00  0.00    +0.000 A 
ATOM     15  C   UNL     1       6.110   3.316  12.363  0.00  0.00    +0.000 A 
ATOM     16 CL   UNL     1       5.430   2.150  11.293  0.00  0.00    +0.000 Cl
ATOM     17  C   UNL     1       5.518   3.540  13.609  0.00  0.00    +0.000 A 
ENDBRANCH   9  11
ENDBRANCH   1   8
BRANCH   5  18
ATOM     18  C   UNL     1       1.793   8.345  19.254  0.00  0.00    +0.000 C 
ATOM     19  O   UNL     1       1.438   8.425  20.427  0.00  0.00    +0.000 OA
ATOM     20  N   UNL     1       1.383   9.197  18.236  0.00  0.00    +0.000 N 
ATOM     21  H   UNL     1       1.615   8.959  17.284  0.00  0.00    +0.000 HD
BRANCH  20  22
ATOM     22  C   UNL     1       0.527  10.316  18.389  0.00  0.00    +0.000 A 
ATOM     23  C   UNL     1       0.970  11.575  18.805  0.00  0.00    +0.000 A 
ATOM     24  C   UNL     1       0.073  12.630  18.987  0.00  0.00    +0.000 A 
ATOM     25  C   UNL     1      -1.284  12.438  18.749  0.00  0.00    +0.000 A 
ATOM     26  C   UNL     1      -1.731  11.195  18.308  0.00  0.00    +0.000 A 
ATOM     27 CL   UNL     1      -3.411  10.952  18.020  0.00  0.00    +0.000 Cl
ATOM     28  C   UNL     1      -0.835  10.140  18.114  0.00  0.00    +0.000 A 
ENDBRANCH  20  22
ENDBRANCH   5  18
TORSDOF 4
ENDMDL
MODEL 2
REMARK VINA RESULT:      -8.3      1.122      1.463
REMARK  Name = 
REMARK  4 active torsions:
REMARK  status: ('A' for Active; 'I' for Inactive)
REMARK    1  A    between atoms: C_2  and  C_11
REMARK    2  A    between atoms: N_3  and  C_4
REMARK    3  A    between atoms: C_15  and  C_16
REMARK    4  A    between atoms: N_18  and  C_19
REMARK                            x       y       z     vdW  Elec       q    Type
REMARK                         _______ _______ _______ _____ _____    ______ ____
ROOT
ATOM      1  C   UNL     1       4.237   6.025  17.434  0.00  0.00    +0.000 A 
ATOM      2  C   UNL     1       4.399   5.018  18.389  0.00  0.00    +0.000 A 
ATOM      3  C   UNL     1       3.708   5.101  19.594  0.00  0.00    +0.000 A 
ATOM      4  C   UNL     1       2.859   6.184  19.838  0.00  0.00    +0.000 A 
ATOM      5  C   UNL     1       2.693   7.210  18.890  0.00  0.00    +0.000 A 
ATOM      6  C   UNL     1       3.397   7.126  17.688  0.00  0.00    +0.000 A 
ENDROOT
BRANCH   1   8
ATOM      7  O   UNL     1       5.136   7.085  15.575  0.00  0.00    +0.000 OA
ATOM      8  C   UNL     1       4.977   6.010  16.147  0.00  0.00    +0.000 C 
ATOM      9  N   UNL     1       5.353   4.762  15.679  0.00  0.00    +0.000 N 
ATOM     10  H   UNL     1       4.984   3.950  16.158  0.00  0.00    +0.000 HD
BRANCH   9  11
ATOM     11  C   UNL     1       6.031   4.515  14.462  0.00  0.00    +0.000 A 
ATOM     12  C   UNL     1       7.196   5.191  14.085  0.00  0.00    +0.000 A 
ATOM     13  C   UNL     1       7.790   4.954  12.843  0.00  0.00    +0.000 A 
ATOM     14  C   UNL     1       7.227   4.031  11.967  0.00  0.00    +0.000 A 
ATOM     15  C   UNL     1       6.086   3.331  12.351  0.00  0.00    +0.000 A 
ATOM     16 CL   UNL     1       5.384   2.192  11.267  0.00  0.00    +0.000 Cl
ATOM     17  C   UNL     1       5.495   3.555  13.598  0.00  0.00    +0.000 A 
ENDBRANCH   9  11
ENDBRANCH   1   8
BRANCH   5  18
ATOM     18  C   UNL     1       1.788   8.347  19.256  0.00  0.00    +0.000 C 
ATOM     19  O   UNL     1       1.422   8.416  20.426  0.00  0.00    +0.000 OA
ATOM     20  N   UNL     1       1.393   9.213  18.245  0.00  0.00    +0.000 N 
ATOM     21  H   UNL     1       1.632   8.984  17.291  0.00  0.00    +0.000 HD
BRANCH  20  22
ATOM     22  C   UNL     1       0.542  10.336  18.403  0.00  0.00    +0.000 A 
ATOM     23  C   UNL     1      -0.846  10.280  18.242  0.00  0.00    +0.000 A 
ATOM     24  C   UNL     1      -1.630  11.431  18.360  0.00  0.00    +0.000 A 
ATOM     25  C   UNL     1      -1.033  12.654  18.648  0.00  0.00    +0.000 A 
ATOM     26  C   UNL     1       0.345  12.713  18.836  0.00  0.00    +0.000 A 
ATOM     27 CL   UNL     1       1.088  14.227  19.184  0.00  0.00    +0.000 Cl
ATOM     28  C   UNL     1       1.133  11.563  18.730  0.00  0.00    +0.000 A 
ENDBRANCH  20  22
ENDBRANCH   5  18
TORSDOF 4
ENDMDL
MODEL 3
REMARK VINA RESULT:      -8.3      1.136      9.274
REMARK  Name = 
REMARK  4 active torsions:
REMARK  status: ('A' for Active; 'I' for Inactive)
REMARK    1  A    between atoms: C_2  and  C_11
REMARK    2  A    between atoms: N_3  and  C_4
REMARK    3  A    between atoms: C_15  and  C_16
REMARK    4  A    between atoms: N_18  and  C_19
REMARK                            x       y       z     vdW  Elec       q    Type
REMARK                         _______ _______ _______ _____ _____    ______ ____
ROOT
ATOM      1  C   UNL     1       2.749   7.076  19.072  0.00  0.00    +0.000 A 
ATOM      2  C   UNL     1       2.901   5.982  19.928  0.00  0.00    +0.000 A 
ATOM      3  C   UNL     1       3.728   4.927  19.550  0.00  0.00    +0.000 A 
ATOM      4  C   UNL     1       4.398   4.972  18.325  0.00  0.00    +0.000 A 
ATOM      5  C   UNL     1       4.247   6.061  17.449  0.00  0.00    +0.000 A 
ATOM      6  C   UNL     1       3.410   7.111  17.829  0.00  0.00    +0.000 A 
ENDROOT
BRANCH   1   8
ATOM      7  O   UNL     1       1.390   8.251  20.542  0.00  0.00    +0.000 OA
ATOM      8  C   UNL     1       1.852   8.212  19.404  0.00  0.00    +0.000 C 
ATOM      9  N   UNL     1       1.563   9.080  18.366  0.00  0.00    +0.000 N 
ATOM     10  H   UNL     1       1.858   8.813  17.435  0.00  0.00    +0.000 HD
BRANCH   9  11
ATOM     11  C   UNL     1       0.705  10.202  18.451  0.00  0.00    +0.000 A 
ATOM     12  C   UNL     1      -0.665  10.139  18.180  0.00  0.00    +0.000 A 
ATOM     13  C   UNL     1      -1.455  11.291  18.215  0.00  0.00    +0.000 A 
ATOM     14  C   UNL     1      -0.881  12.519  18.531  0.00  0.00    +0.000 A 
ATOM     15  C   UNL     1       0.477  12.582  18.834  0.00  0.00    +0.000 A 
ATOM     16 CL   UNL     1       1.191  14.101  19.219  0.00  0.00    +0.000 Cl
ATOM     17  C   UNL     1       1.269  11.430  18.812  0.00  0.00    +0.000 A 
ENDBRANCH   9  11
ENDBRANCH   1   8
BRANCH   5  18
ATOM     18  C   UNL     1       4.980   6.003  16.143  0.00  0.00    +0.000 C 
ATOM     19  O   UNL     1       5.190   7.070  15.572  0.00  0.00    +0.000 OA
ATOM     20  N   UNL     1       5.329   4.752  15.650  0.00  0.00    +0.000 N 
ATOM     21  H   UNL     1       4.983   3.931  16.124  0.00  0.00    +0.000 HD
BRANCH  20  22
ATOM     22  C   UNL     1       6.019   4.504  14.436  0.00  0.00    +0.000 A 
ATOM     23  C   UNL     1       7.160   5.208  14.040  0.00  0.00    +0.000 A 
ATOM     24  C   UNL     1       7.770   4.956  12.809  0.00  0.00    +0.000 A 
ATOM     25  C   UNL     1       7.246   3.987  11.959  0.00  0.00    +0.000 A 
ATOM     26  C   UNL     1       6.126   3.262  12.357  0.00  0.00    +0.000 A 
ATOM     27 CL   UNL     1       5.470   2.069  11.304  0.00  0.00    +0.000 Cl
ATOM     28  C   UNL     1       5.519   3.504  13.593  0.00  0.00    +0.000 A 
ENDBRANCH  20  22
ENDBRANCH   5  18
TORSDOF 4
ENDMDL
MODEL 4
REMARK VINA RESULT:      -8.2      2.092      9.692
REMARK  Name = 
REMARK  4 active torsions:
REMARK  status: ('A' for Active; 'I' for Inactive)
REMARK    1  A    between atoms: C_2  and  C_11
REMARK    2  A    between atoms: N_3  and  C_4
REMARK    3  A    between atoms: C_15  and  C_16
REMARK    4  A    between atoms: N_18  and  C_19
REMARK                            x       y       z     vdW  Elec       q    Type
REMARK                         _______ _______ _______ _____ _____    ______ ____
ROOT
ATOM      1  C   UNL     1       2.603   6.905  19.238  0.00  0.00    +0.000 A 
ATOM      2  C   UNL     1       2.681   5.754  20.027  0.00  0.00    +0.000 A 
ATOM      3  C   UNL     1       3.472   4.688  19.605  0.00  0.00    +0.000 A 
ATOM      4  C   UNL     1       4.178   4.777  18.404  0.00  0.00    +0.000 A 
ATOM      5  C   UNL     1       4.101   5.924  17.594  0.00  0.00    +0.000 A 
ATOM      6  C   UNL     1       3.300   6.986  18.017  0.00  0.00    +0.000 A 
ENDROOT
BRANCH   1   8
ATOM      7  O   UNL     1       1.332   8.774  18.710  0.00  0.00    +0.000 OA
ATOM      8  C   UNL     1       1.747   8.057  19.617  0.00  0.00    +0.000 C 
ATOM      9  N   UNL     1       1.562   8.254  20.975  0.00  0.00    +0.000 N 
ATOM     10  H   UNL     1       2.124   7.701  21.610  0.00  0.00    +0.000 HD
BRANCH   9  11
ATOM     11  C   UNL     1       0.817   9.307  21.555  0.00  0.00    +0.000 A 
ATOM     12  C   UNL     1      -0.054   9.122  22.634  0.00  0.00    +0.000 A 
ATOM     13  C   UNL     1      -0.816  10.184  23.127  0.00  0.00    +0.000 A 
ATOM     14  C   UNL     1      -0.708  11.446  22.550  0.00  0.00    +0.000 A 
ATOM     15  C   UNL     1       0.183  11.643  21.498  0.00  0.00    +0.000 A 
ATOM     16 CL   UNL     1       0.315  13.201  20.777  0.00  0.00    +0.000 Cl
ATOM     17  C   UNL     1       0.956  10.586  21.008  0.00  0.00    +0.000 A 
ENDBRANCH   9  11
ENDBRANCH   1   8
BRANCH   5  18
ATOM     18  C   UNL     1       4.868   5.912  16.306  0.00  0.00    +0.000 C 
ATOM     19  O   UNL     1       5.110   7.000  15.791  0.00  0.00    +0.000 OA
ATOM     20  N   UNL     1       5.209   4.679  15.765  0.00  0.00    +0.000 N 
ATOM     21  H   UNL     1       4.836   3.844  16.191  0.00  0.00    +0.000 HD
BRANCH  20  22
ATOM     22  C   UNL     1       5.927   4.475  14.560  0.00  0.00    +0.000 A 
ATOM     23  C   UNL     1       7.089   5.177  14.226  0.00  0.00    +0.000 A 
ATOM     24  C   UNL     1       7.728   4.970  13.001  0.00  0.00    +0.000 A 
ATOM     25  C   UNL     1       7.211   4.050  12.094  0.00  0.00    +0.000 A 
ATOM     26  C   UNL     1       6.070   3.327  12.430  0.00  0.00    +0.000 A 
ATOM     27 CL   UNL     1       5.425   2.193  11.306  0.00  0.00    +0.000 Cl
ATOM     28  C   UNL     1       5.435   3.522  13.659  0.00  0.00    +0.000 A 
ENDBRANCH  20  22
ENDBRANCH   5  18
TORSDOF 4
ENDMDL
MODEL 5
REMARK VINA RESULT:      -8.1      1.642      1.872
REMARK  Name = 
REMARK  4 active torsions:
REMARK  status: ('A' for Active; 'I' for Inactive)
REMARK    1  A    between atoms: C_2  and  C_11
REMARK    2  A    between atoms: N_3  and  C_4
REMARK    3  A    between atoms: C_15  and  C_16
REMARK    4  A    between atoms: N_18  and  C_19
REMARK                            x       y       z     vdW  Elec       q    Type
REMARK                         _______ _______ _______ _____ _____    ______ ____
ROOT
ATOM      1  C   UNL     1       4.280   5.333  17.877  0.00  0.00    +0.000 A 
ATOM      2  C   UNL     1       4.036   4.692  19.095  0.00  0.00    +0.000 A 
ATOM      3  C   UNL     1       3.158   5.270  20.008  0.00  0.00    +0.000 A 
ATOM      4  C   UNL     1       2.529   6.478  19.701  0.00  0.00    +0.000 A 
ATOM      5  C   UNL     1       2.772   7.140  18.484  0.00  0.00    +0.000 A 
ATOM      6  C   UNL     1       3.660   6.561  17.577  0.00  0.00    +0.000 A 
ENDROOT
BRANCH   1   8
ATOM      7  O   UNL     1       6.183   4.132  17.310  0.00  0.00    +0.000 OA
ATOM      8  C   UNL     1       5.235   4.784  16.881  0.00  0.00    +0.000 C 
ATOM      9  N   UNL     1       4.999   5.130  15.562  0.00  0.00    +0.000 N 
ATOM     10  H   UNL     1       4.295   5.833  15.379  0.00  0.00    +0.000 HD
BRANCH   9  11
ATOM     11  C   UNL     1       5.801   4.749  14.460  0.00  0.00    +0.000 A 
ATOM     12  C   UNL     1       7.037   5.338  14.174  0.00  0.00    +0.000 A 
ATOM     13  C   UNL     1       7.759   4.970  13.036  0.00  0.00    +0.000 A 
ATOM     14  C   UNL     1       7.252   4.001  12.175  0.00  0.00    +0.000 A 
ATOM     15  C   UNL     1       6.038   3.388  12.472  0.00  0.00    +0.000 A 
ATOM     16 CL   UNL     1       5.407   2.193  11.405  0.00  0.00    +0.000 Cl
ATOM     17  C   UNL     1       5.319   3.744  13.616  0.00  0.00    +0.000 A 
ENDBRANCH   9  11
ENDBRANCH   1   8
BRANCH   5  18
ATOM     18  C   UNL     1       2.077   8.449  18.260  0.00  0.00    +0.000 C 
ATOM     19  O   UNL     1       2.334   9.046  17.219  0.00  0.00    +0.000 OA
ATOM     20  N   UNL     1       1.230   8.913  19.258  0.00  0.00    +0.000 N 
ATOM     21  H   UNL     1       1.200   8.418  20.136  0.00  0.00    +0.000 HD
BRANCH  20  22
ATOM     22  C   UNL     1       0.494  10.125  19.221  0.00  0.00    +0.000 A 
ATOM     23  C   UNL     1      -0.621  10.325  18.402  0.00  0.00    +0.000 A 
ATOM     24  C   UNL     1      -1.278  11.558  18.369  0.00  0.00    +0.000 A 
ATOM     25  C   UNL     1      -0.827  12.607  19.163  0.00  0.00    +0.000 A 
ATOM     26  C   UNL     1       0.265  12.408  20.002  0.00  0.00    +0.000 A 
ATOM     27 CL   UNL     1       0.830  13.708  20.981  0.00  0.00    +0.000 Cl
ATOM     28  C   UNL     1       0.919  11.173  20.046  0.00  0.00    +0.000 A 
ENDBRANCH  20  22
ENDBRANCH   5  18
TORSDOF 4
ENDMDL
MODEL 6
REMARK VINA RESULT:      -8.1      1.070      1.082
REMARK  Name = 
REMARK  4 active torsions:
REMARK  status: ('A' for Active; 'I' for Inactive)
REMARK    1  A    between atoms: C_2  and  C_11
REMARK    2  A    between atoms: N_3  and  C_4
REMARK    3  A    between atoms: C_15  and  C_16
REMARK    4  A    between atoms: N_18  and  C_19
REMARK                            x       y       z     vdW  Elec       q    Type
REMARK                         _______ _______ _______ _____ _____    ______ ____
ROOT
ATOM      1  C   UNL     1       4.357   6.314  17.531  0.00  0.00    +0.000 A 
ATOM      2  C   UNL     1       4.194   5.460  18.625  0.00  0.00    +0.000 A 
ATOM      3  C   UNL     1       3.258   5.776  19.606  0.00  0.00    +0.000 A 
ATOM      4  C   UNL     1       2.492   6.938  19.489  0.00  0.00    +0.000 A 
ATOM      5  C   UNL     1       2.652   7.812  18.399  0.00  0.00    +0.000 A 
ATOM      6  C   UNL     1       3.598   7.495  17.424  0.00  0.00    +0.000 A 
ENDROOT
BRANCH   1   8
ATOM      7  O   UNL     1       6.379   6.744  16.474  0.00  0.00    +0.000 OA
ATOM      8  C   UNL     1       5.366   6.048  16.474  0.00  0.00    +0.000 C 
ATOM      9  N   UNL     1       5.027   5.084  15.541  0.00  0.00    +0.000 N 
ATOM     10  H   UNL     1       4.077   4.732  15.553  0.00  0.00    +0.000 HD
BRANCH   9  11
ATOM     11  C   UNL     1       5.820   4.701  14.435  0.00  0.00    +0.000 A 
ATOM     12  C   UNL     1       7.055   5.287  14.139  0.00  0.00    +0.000 A 
ATOM     13  C   UNL     1       7.768   4.916  12.996  0.00  0.00    +0.000 A 
ATOM     14  C   UNL     1       7.254   3.947  12.140  0.00  0.00    +0.000 A 
ATOM     15  C   UNL     1       6.041   3.336  12.446  0.00  0.00    +0.000 A 
ATOM     16 CL   UNL     1       5.400   2.141  11.385  0.00  0.00    +0.000 Cl
ATOM     17  C   UNL     1       5.330   3.695  13.595  0.00  0.00    +0.000 A 
ENDBRANCH   9  11
ENDBRANCH   1   8
BRANCH   5  18
ATOM     18  C   UNL     1       1.808   9.051  18.378  0.00  0.00    +0.000 C 
ATOM     19  O   UNL     1       2.046   9.874  17.499  0.00  0.00    +0.000 OA
ATOM     20  N   UNL     1       0.852   9.202  19.374  0.00  0.00    +0.000 N 
ATOM     21  H   UNL     1       0.835   8.537  20.134  0.00  0.00    +0.000 HD
BRANCH  20  22
ATOM     22  C   UNL     1      -0.030  10.303  19.515  0.00  0.00    +0.000 A 
ATOM     23  C   UNL     1       0.165  11.334  20.439  0.00  0.00    +0.000 A 
ATOM     24  C   UNL     1      -0.764  12.369  20.569  0.00  0.00    +0.000 A 
ATOM     25  C   UNL     1      -1.901  12.388  19.767  0.00  0.00    +0.000 A 
ATOM     26  C   UNL     1      -2.088  11.381  18.825  0.00  0.00    +0.000 A 
ATOM     27 CL   UNL     1      -3.499  11.398  17.836  0.00  0.00    +0.000 Cl
ATOM     28  C   UNL     1      -1.156  10.349  18.684  0.00  0.00    +0.000 A 
ENDBRANCH  20  22
ENDBRANCH   5  18
TORSDOF 4
ENDMDL
MODEL 7
REMARK VINA RESULT:      -8.1      1.851      1.954
REMARK  Name = 
REMARK  4 active torsions:
REMARK  status: ('A' for Active; 'I' for Inactive)
REMARK    1  A    between atoms: C_2  and  C_11
REMARK    2  A    between atoms: N_3  and  C_4
REMARK    3  A    between atoms: C_15  and  C_16
REMARK    4  A    between atoms: N_18  and  C_19
REMARK                            x       y       z     vdW  Elec       q    Type
REMARK                         _______ _______ _______ _____ _____    ______ ____
ROOT
ATOM      1  C   UNL     1       4.161   5.930  17.507  0.00  0.00    +0.000 A 
ATOM      2  C   UNL     1       4.252   4.862  18.404  0.00  0.00    +0.000 A 
ATOM      3  C   UNL     1       3.556   4.919  19.608  0.00  0.00    +0.000 A 
ATOM      4  C   UNL     1       2.775   6.037  19.909  0.00  0.00    +0.000 A 
ATOM      5  C   UNL     1       2.682   7.124  19.021  0.00  0.00    +0.000 A 
ATOM      6  C   UNL     1       3.389   7.065  17.819  0.00  0.00    +0.000 A 
ENDROOT
BRANCH   1   8
ATOM      7  O   UNL     1       5.065   7.028  15.672  0.00  0.00    +0.000 OA
ATOM      8  C   UNL     1       4.911   5.942  16.225  0.00  0.00    +0.000 C 
ATOM      9  N   UNL     1       5.299   4.706  15.739  0.00  0.00    +0.000 N 
ATOM     10  H   UNL     1       4.933   3.883  16.202  0.00  0.00    +0.000 HD
BRANCH   9  11
ATOM     11  C   UNL     1       5.988   4.483  14.524  0.00  0.00    +0.000 A 
ATOM     12  C   UNL     1       7.161   5.161  14.175  0.00  0.00    +0.000 A 
ATOM     13  C   UNL     1       7.766   4.952  12.933  0.00  0.00    +0.000 A 
ATOM     14  C   UNL     1       7.205   4.054  12.029  0.00  0.00    +0.000 A 
ATOM     15  C   UNL     1       6.057   3.351  12.384  0.00  0.00    +0.000 A 
ATOM     16 CL   UNL     1       5.359   2.244  11.266  0.00  0.00    +0.000 Cl
ATOM     17  C   UNL     1       5.455   3.548  13.630  0.00  0.00    +0.000 A 
ENDBRANCH   9  11
ENDBRANCH   1   8
BRANCH   5  18
ATOM     18  C   UNL     1       1.846   8.293  19.447  0.00  0.00    +0.000 C 
ATOM     19  O   UNL     1       1.743   9.224  18.654  0.00  0.00    +0.000 OA
ATOM     20  N   UNL     1       1.286   8.262  20.718  0.00  0.00    +0.000 N 
ATOM     21  H   UNL     1       1.551   7.517  21.345  0.00  0.00    +0.000 HD
BRANCH  20  22
ATOM     22  C   UNL     1       0.474   9.274  21.289  0.00  0.00    +0.000 A 
ATOM     23  C   UNL     1       0.230   9.384  22.661  0.00  0.00    +0.000 A 
ATOM     24  C   UNL     1      -0.620  10.372  23.164  0.00  0.00    +0.000 A 
ATOM     25  C   UNL     1      -1.234  11.269  22.296  0.00  0.00    +0.000 A 
ATOM     26  C   UNL     1      -0.975  11.184  20.931  0.00  0.00    +0.000 A 
ATOM     27 CL   UNL     1      -1.740  12.288  19.853  0.00  0.00    +0.000 Cl
ATOM     28  C   UNL     1      -0.117  10.204  20.425  0.00  0.00    +0.000 A 
ENDBRANCH  20  22
ENDBRANCH   5  18
TORSDOF 4
ENDMDL
MODEL 8
REMARK VINA RESULT:      -8.0      1.268      1.296
REMARK  Name = 
REMARK  4 active torsions:
REMARK  status: ('A' for Active; 'I' for Inactive)
REMARK    1  A    between atoms: C_2  and  C_11
REMARK    2  A    between atoms: N_3  and  C_4
REMARK    3  A    between atoms: C_15  and  C_16
REMARK    4  A    between atoms: N_18  and  C_19
REMARK                            x       y       z     vdW  Elec       q    Type
REMARK                         _______ _______ _______ _____ _____    ______ ____
ROOT
ATOM      1  C   UNL     1       3.790   5.183  17.912  0.00  0.00    +0.000 A 
ATOM      2  C   UNL     1       3.616   4.615  19.178  0.00  0.00    +0.000 A 
ATOM      3  C   UNL     1       2.898   5.312  20.146  0.00  0.00    +0.000 A 
ATOM      4  C   UNL     1       2.359   6.565  19.847  0.00  0.00    +0.000 A 
ATOM      5  C   UNL     1       2.535   7.153  18.582  0.00  0.00    +0.000 A 
ATOM      6  C   UNL     1       3.263   6.454  17.618  0.00  0.00    +0.000 A 
ENDROOT
BRANCH   1   8
ATOM      7  O   UNL     1       4.871   3.325  17.035  0.00  0.00    +0.000 OA
ATOM      8  C   UNL     1       4.578   4.504  16.852  0.00  0.00    +0.000 C 
ATOM      9  N   UNL     1       4.972   5.297  15.788  0.00  0.00    +0.000 N 
ATOM     10  H   UNL     1       4.824   6.296  15.867  0.00  0.00    +0.000 HD
BRANCH   9  11
ATOM     11  C   UNL     1       5.755   4.867  14.692  0.00  0.00    +0.000 A 
ATOM     12  C   UNL     1       7.055   5.326  14.454  0.00  0.00    +0.000 A 
ATOM     13  C   UNL     1       7.761   4.919  13.319  0.00  0.00    +0.000 A 
ATOM     14  C   UNL     1       7.175   4.039  12.414  0.00  0.00    +0.000 A 
ATOM     15  C   UNL     1       5.895   3.552  12.663  0.00  0.00    +0.000 A 
ATOM     16 CL   UNL     1       5.165   2.468  11.542  0.00  0.00    +0.000 Cl
ATOM     17  C   UNL     1       5.189   3.948  13.803  0.00  0.00    +0.000 A 
ENDBRANCH   9  11
ENDBRANCH   1   8
BRANCH   5  18
ATOM     18  C   UNL     1       1.948   8.515  18.367  0.00  0.00    +0.000 C 
ATOM     19  O   UNL     1       2.260   9.101  17.334  0.00  0.00    +0.000 OA
ATOM     20  N   UNL     1       1.134   9.036  19.364  0.00  0.00    +0.000 N 
ATOM     21  H   UNL     1       1.058   8.536  20.237  0.00  0.00    +0.000 HD
BRANCH  20  22
ATOM     22  C   UNL     1       0.498  10.303  19.336  0.00  0.00    +0.000 A 
ATOM     23  C   UNL     1       1.099  11.478  19.799  0.00  0.00    +0.000 A 
ATOM     24  C   UNL     1       0.405  12.691  19.793  0.00  0.00    +0.000 A 
ATOM     25  C   UNL     1      -0.900  12.744  19.316  0.00  0.00    +0.000 A 
ATOM     26  C   UNL     1      -1.496  11.584  18.827  0.00  0.00    +0.000 A 
ATOM     27 CL   UNL     1      -3.115  11.645  18.243  0.00  0.00    +0.000 Cl
ATOM     28  C   UNL     1      -0.803  10.371  18.821  0.00  0.00    +0.000 A 
ENDBRANCH  20  22
ENDBRANCH   5  18
TORSDOF 4
ENDMDL
MODEL 9
REMARK VINA RESULT:      -8.0      1.239      9.249
REMARK  Name = 
REMARK  4 active torsions:
REMARK  status: ('A' for Active; 'I' for Inactive)
REMARK    1  A    between atoms: C_2  and  C_11
REMARK    2  A    between atoms: N_3  and  C_4
REMARK    3  A    between atoms: C_15  and  C_16
REMARK    4  A    between atoms: N_18  and  C_19
REMARK                            x       y       z     vdW  Elec       q    Type
REMARK                         _______ _______ _______ _____ _____    ______ ____
ROOT
ATOM      1  C   UNL     1       2.569   7.199  18.699  0.00  0.00    +0.000 A 
ATOM      2  C   UNL     1       2.351   6.492  19.885  0.00  0.00    +0.000 A 
ATOM      3  C   UNL     1       2.925   5.234  20.046  0.00  0.00    +0.000 A 
ATOM      4  C   UNL     1       3.713   4.691  19.028  0.00  0.00    +0.000 A 
ATOM      5  C   UNL     1       3.933   5.386  17.826  0.00  0.00    +0.000 A 
ATOM      6  C   UNL     1       3.347   6.643  17.665  0.00  0.00    +0.000 A 
ENDROOT
BRANCH   1   8
ATOM      7  O   UNL     1       2.243   9.100  17.408  0.00  0.00    +0.000 OA
ATOM      8  C   UNL     1       1.952   8.527  18.455  0.00  0.00    +0.000 C 
ATOM      9  N   UNL     1       1.160   9.024  19.476  0.00  0.00    +0.000 N 
ATOM     10  H   UNL     1       1.168   8.529  20.359  0.00  0.00    +0.000 HD
BRANCH   9  11
ATOM     11  C   UNL     1       0.509  10.279  19.469  0.00  0.00    +0.000 A 
ATOM     12  C   UNL     1       1.054  11.427  20.053  0.00  0.00    +0.000 A 
ATOM     13  C   UNL     1       0.338  12.627  20.076  0.00  0.00    +0.000 A 
ATOM     14  C   UNL     1      -0.930  12.692  19.507  0.00  0.00    +0.000 A 
ATOM     15  C   UNL     1      -1.464  11.561  18.894  0.00  0.00    +0.000 A 
ATOM     16 CL   UNL     1      -3.035  11.637  18.193  0.00  0.00    +0.000 Cl
ATOM     17  C   UNL     1      -0.747  10.362  18.858  0.00  0.00    +0.000 A 
ENDBRANCH   9  11
ENDBRANCH   1   8
BRANCH   5  18
ATOM     18  C   UNL     1       4.763   4.707  16.779  0.00  0.00    +0.000 C 
ATOM     19  O   UNL     1       5.144   3.565  17.021  0.00  0.00    +0.000 OA
ATOM     20  N   UNL     1       5.081   5.428  15.635  0.00  0.00    +0.000 N 
ATOM     21  H   UNL     1       4.842   6.408  15.598  0.00  0.00    +0.000 HD
BRANCH  20  22
ATOM     22  C   UNL     1       5.855   4.953  14.546  0.00  0.00    +0.000 A 
ATOM     23  C   UNL     1       7.148   5.403  14.265  0.00  0.00    +0.000 A 
ATOM     24  C   UNL     1       7.846   4.937  13.148  0.00  0.00    +0.000 A 
ATOM     25  C   UNL     1       7.257   4.006  12.299  0.00  0.00    +0.000 A 
ATOM     26  C   UNL     1       5.980   3.531  12.587  0.00  0.00    +0.000 A 
ATOM     27 CL   UNL     1       5.245   2.384  11.533  0.00  0.00    +0.000 Cl
ATOM     28  C   UNL     1       5.283   3.987  13.709  0.00  0.00    +0.000 A 
ENDBRANCH  20  22
ENDBRANCH   5  18
TORSDOF 4
ENDMDL
