MODEL 1
REMARK VINA RESULT:      -7.7      0.000      0.000
REMARK  Name = 
REMARK  4 active torsions:
REMARK  status: ('A' for Active; 'I' for Inactive)
REMARK    1  A    between atoms: C_1  and  C_2
REMARK    2  A    between atoms: C_8  and  C_10
REMARK    3  A    between atoms: C_10  and  C_11
REMARK    4  A    between atoms: C_14  and  N_15
REMARK                            x       y       z     vdW  Elec       q    Type
REMARK                         _______ _______ _______ _____ _____    ______ ____
ROOT
ATOM      1  C   UNL     1      -0.186   9.449  22.233  0.00  0.00    +0.000 C 
ATOM      2  C   UNL     1       0.556   9.029  20.999  0.00  0.00    +0.000 A 
ATOM      3  C   UNL     1       0.510   9.789  19.833  0.00  0.00    +0.000 A 
ATOM      4  C   UNL     1       1.281   9.387  18.753  0.00  0.00    +0.000 A 
ATOM      5  N   UNL     1       2.081   8.300  18.756  0.00  0.00    +0.000 NA
ATOM      6  C   UNL     1       2.044   7.524  19.856  0.00  0.00    +0.000 A 
ATOM      7  N   UNL     1       2.815   6.363  19.774  0.00  0.00    +0.000 N 
ATOM      8  C   UNL     1       2.389   5.139  20.247  0.00  0.00    +0.000 C 
ATOM      9  O   UNL     1       1.296   4.922  20.766  0.00  0.00    +0.000 OA
ATOM     10  C   UNL     1       1.324   7.859  20.998  0.00  0.00    +0.000 A 
ATOM     11  H   UNL     1       3.442   6.361  18.980  0.00  0.00    +0.000 HD
ENDROOT
BRANCH   8  12
ATOM     12  C   UNL     1       3.408   4.029  20.083  0.00  0.00    +0.000 C 
BRANCH  12  13
ATOM     13  C   UNL     1       4.331   4.164  18.886  0.00  0.00    +0.000 A 
ATOM     14  C   UNL     1       3.855   3.849  17.607  0.00  0.00    +0.000 A 
ATOM     15  C   UNL     1       4.660   4.046  16.480  0.00  0.00    +0.000 A 
ATOM     16  C   UNL     1       5.951   4.563  16.631  0.00  0.00    +0.000 A 
ATOM     17  C   UNL     1       6.442   4.884  17.906  0.00  0.00    +0.000 A 
ATOM     18  C   UNL     1       5.628   4.678  19.030  0.00  0.00    +0.000 A 
BRANCH  16  19
ATOM     19  N   UNL     1       6.787   4.794  15.444  0.00  0.00    +0.000 N 
ATOM     20  O   UNL     1       7.588   5.738  15.481  0.00  0.00    +0.000 OA
ATOM     21  O   UNL     1       6.638   4.035  14.478  0.00  0.00    +0.000 OA
ENDBRANCH  16  19
ENDBRANCH  12  13
ENDBRANCH   8  12
TORSDOF 3
ENDMDL
MODEL 2
REMARK VINA RESULT:      -7.2      1.482      2.280
REMARK  Name = 
REMARK  4 active torsions:
REMARK  status: ('A' for Active; 'I' for Inactive)
REMARK    1  A    between atoms: C_1  and  C_2
REMARK    2  A    between atoms: C_8  and  C_10
REMARK    3  A    between atoms: C_10  and  C_11
REMARK    4  A    between atoms: C_14  and  N_15
REMARK                            x       y       z     vdW  Elec       q    Type
REMARK                         _______ _______ _______ _____ _____    ______ ____
ROOT
ATOM      1  C   UNL     1       0.894   8.628  21.496  0.00  0.00    +0.000 C 
ATOM      2  C   UNL     1       1.473   8.432  20.127  0.00  0.00    +0.000 A 
ATOM      3  C   UNL     1       1.222   9.337  19.099  0.00  0.00    +0.000 A 
ATOM      4  C   UNL     1       1.851   9.141  17.879  0.00  0.00    +0.000 A 
ATOM      5  N   UNL     1       2.699   8.123  17.618  0.00  0.00    +0.000 NA
ATOM      6  C   UNL     1       2.859   7.206  18.590  0.00  0.00    +0.000 A 
ATOM      7  N   UNL     1       3.670   6.124  18.240  0.00  0.00    +0.000 N 
ATOM      8  C   UNL     1       3.379   4.820  18.585  0.00  0.00    +0.000 C 
ATOM      9  O   UNL     1       2.385   4.457  19.209  0.00  0.00    +0.000 OA
ATOM     10  C   UNL     1       2.292   7.330  19.855  0.00  0.00    +0.000 A 
ATOM     11  H   UNL     1       4.176   6.275  17.378  0.00  0.00    +0.000 HD
ENDROOT
BRANCH   8  12
ATOM     12  C   UNL     1       4.422   3.818  18.128  0.00  0.00    +0.000 C 
BRANCH  12  13
ATOM     13  C   UNL     1       5.227   4.226  16.908  0.00  0.00    +0.000 A 
ATOM     14  C   UNL     1       6.551   4.653  17.065  0.00  0.00    +0.000 A 
ATOM     15  C   UNL     1       7.338   4.953  15.949  0.00  0.00    +0.000 A 
ATOM     16  C   UNL     1       6.800   4.823  14.664  0.00  0.00    +0.000 A 
ATOM     17  C   UNL     1       5.475   4.394  14.491  0.00  0.00    +0.000 A 
ATOM     18  C   UNL     1       4.692   4.101  15.617  0.00  0.00    +0.000 A 
BRANCH  16  19
ATOM     19  N   UNL     1       7.636   5.112  13.491  0.00  0.00    +0.000 N 
ATOM     20  O   UNL     1       7.333   4.566  12.421  0.00  0.00    +0.000 OA
ATOM     21  O   UNL     1       8.594   5.881  13.642  0.00  0.00    +0.000 OA
ENDBRANCH  16  19
ENDBRANCH  12  13
ENDBRANCH   8  12
TORSDOF 3
ENDMDL
MODEL 3
REMARK VINA RESULT:      -7.1      3.046      3.836
REMARK  Name = 
REMARK  4 active torsions:
REMARK  status: ('A' for Active; 'I' for Inactive)
REMARK    1  A    between atoms: C_1  and  C_2
REMARK    2  A    between atoms: C_8  and  C_10
REMARK    3  A    between atoms: C_10  and  C_11
REMARK    4  A    between atoms: C_14  and  N_15
REMARK                            x       y       z     vdW  Elec       q    Type
REMARK                         _______ _______ _______ _____ _____    ______ ____
ROOT
ATOM      1  C   UNL     1      -0.106  12.100  21.609  0.00  0.00    +0.000 C 
ATOM      2  C   UNL     1      -0.365  11.375  20.323  0.00  0.00    +0.000 A 
ATOM      3  C   UNL     1      -1.601  11.450  19.685  0.00  0.00    +0.000 A 
ATOM      4  C   UNL     1      -1.751  10.821  18.459  0.00  0.00    +0.000 A 
ATOM      5  N   UNL     1      -0.770  10.135  17.835  0.00  0.00    +0.000 NA
ATOM      6  C   UNL     1       0.389   9.992  18.504  0.00  0.00    +0.000 A 
ATOM      7  N   UNL     1       1.338   9.196  17.860  0.00  0.00    +0.000 N 
ATOM      8  C   UNL     1       2.124   8.275  18.521  0.00  0.00    +0.000 C 
ATOM      9  O   UNL     1       2.071   8.032  19.724  0.00  0.00    +0.000 OA
ATOM     10  C   UNL     1       0.642  10.608  19.726  0.00  0.00    +0.000 A 
ATOM     11  H   UNL     1       1.097   8.996  16.899  0.00  0.00    +0.000 HD
ENDROOT
BRANCH   8  12
ATOM     12  C   UNL     1       3.109   7.552  17.622  0.00  0.00    +0.000 C 
BRANCH  12  13
ATOM     13  C   UNL     1       3.389   6.107  17.992  0.00  0.00    +0.000 A 
ATOM     14  C   UNL     1       4.645   5.757  18.505  0.00  0.00    +0.000 A 
ATOM     15  C   UNL     1       4.899   4.449  18.931  0.00  0.00    +0.000 A 
ATOM     16  C   UNL     1       3.890   3.483  18.847  0.00  0.00    +0.000 A 
ATOM     17  C   UNL     1       2.627   3.819  18.336  0.00  0.00    +0.000 A 
ATOM     18  C   UNL     1       2.385   5.132  17.907  0.00  0.00    +0.000 A 
BRANCH  16  19
ATOM     19  N   UNL     1       4.150   2.116  19.320  0.00  0.00    +0.000 N 
ATOM     20  O   UNL     1       3.650   1.182  18.678  0.00  0.00    +0.000 OA
ATOM     21  O   UNL     1       4.848   1.979  20.332  0.00  0.00    +0.000 OA
ENDBRANCH  16  19
ENDBRANCH  12  13
ENDBRANCH   8  12
TORSDOF 3
ENDMDL
MODEL 4
REMARK VINA RESULT:      -7.1      1.384      1.766
REMARK  Name = 
REMARK  4 active torsions:
REMARK  status: ('A' for Active; 'I' for Inactive)
REMARK    1  A    between atoms: C_1  and  C_2
REMARK    2  A    between atoms: C_8  and  C_10
REMARK    3  A    between atoms: C_10  and  C_11
REMARK    4  A    between atoms: C_14  and  N_15
REMARK                            x       y       z     vdW  Elec       q    Type
REMARK                         _______ _______ _______ _____ _____    ______ ____
ROOT
ATOM      1  C   UNL     1       0.547   8.629  21.253  0.00  0.00    +0.000 C 
ATOM      2  C   UNL     1       1.318   8.412  19.985  0.00  0.00    +0.000 A 
ATOM      3  C   UNL     1       1.149   9.246  18.883  0.00  0.00    +0.000 A 
ATOM      4  C   UNL     1       1.949   9.039  17.770  0.00  0.00    +0.000 A 
ATOM      5  N   UNL     1       2.890   8.075  17.682  0.00  0.00    +0.000 NA
ATOM      6  C   UNL     1       2.978   7.219  18.717  0.00  0.00    +0.000 A 
ATOM      7  N   UNL     1       3.899   6.185  18.539  0.00  0.00    +0.000 N 
ATOM      8  C   UNL     1       3.652   4.881  18.916  0.00  0.00    +0.000 C 
ATOM      9  O   UNL     1       2.608   4.475  19.423  0.00  0.00    +0.000 OA
ATOM     10  C   UNL     1       2.238   7.361  19.887  0.00  0.00    +0.000 A 
ATOM     11  H   UNL     1       4.506   6.331  17.744  0.00  0.00    +0.000 HD
ENDROOT
BRANCH   8  12
ATOM     12  C   UNL     1       4.811   3.937  18.658  0.00  0.00    +0.000 C 
BRANCH  12  13
ATOM     13  C   UNL     1       5.533   4.138  17.339  0.00  0.00    +0.000 A 
ATOM     14  C   UNL     1       4.870   3.855  16.138  0.00  0.00    +0.000 A 
ATOM     15  C   UNL     1       5.485   4.111  14.909  0.00  0.00    +0.000 A 
ATOM     16  C   UNL     1       6.773   4.657  14.877  0.00  0.00    +0.000 A 
ATOM     17  C   UNL     1       7.449   4.948  16.072  0.00  0.00    +0.000 A 
ATOM     18  C   UNL     1       6.825   4.682  17.299  0.00  0.00    +0.000 A 
BRANCH  16  19
ATOM     19  N   UNL     1       7.407   4.951  13.585  0.00  0.00    +0.000 N 
ATOM     20  O   UNL     1       8.401   5.691  13.588  0.00  0.00    +0.000 OA
ATOM     21  O   UNL     1       6.910   4.446  12.570  0.00  0.00    +0.000 OA
ENDBRANCH  16  19
ENDBRANCH  12  13
ENDBRANCH   8  12
TORSDOF 3
ENDMDL
MODEL 5
REMARK VINA RESULT:      -6.9      2.950      7.517
REMARK  Name = 
REMARK  4 active torsions:
REMARK  status: ('A' for Active; 'I' for Inactive)
REMARK    1  A    between atoms: C_1  and  C_2
REMARK    2  A    between atoms: C_8  and  C_10
REMARK    3  A    between atoms: C_10  and  C_11
REMARK    4  A    between atoms: C_14  and  N_15
REMARK                            x       y       z     vdW  Elec       q    Type
REMARK                         _______ _______ _______ _____ _____    ______ ____
ROOT
ATOM      1  C   UNL     1       4.712   2.127  20.426  0.00  0.00    +0.000 C 
ATOM      2  C   UNL     1       3.790   2.596  19.341  0.00  0.00    +0.000 A 
ATOM      3  C   UNL     1       3.224   1.703  18.435  0.00  0.00    +0.000 A 
ATOM      4  C   UNL     1       2.319   2.190  17.505  0.00  0.00    +0.000 A 
ATOM      5  N   UNL     1       1.945   3.485  17.418  0.00  0.00    +0.000 NA
ATOM      6  C   UNL     1       2.569   4.351  18.238  0.00  0.00    +0.000 A 
ATOM      7  N   UNL     1       2.216   5.689  18.047  0.00  0.00    +0.000 N 
ATOM      8  C   UNL     1       3.132   6.721  18.071  0.00  0.00    +0.000 C 
ATOM      9  O   UNL     1       4.342   6.591  18.239  0.00  0.00    +0.000 OA
ATOM     10  C   UNL     1       3.470   3.954  19.221  0.00  0.00    +0.000 A 
ATOM     11  H   UNL     1       1.405   5.801  17.454  0.00  0.00    +0.000 HD
ENDROOT
BRANCH   8  12
ATOM     12  C   UNL     1       2.515   8.092  17.875  0.00  0.00    +0.000 C 
BRANCH  12  13
ATOM     13  C   UNL     1       1.727   8.627  19.056  0.00  0.00    +0.000 A 
ATOM     14  C   UNL     1       1.811   7.978  20.294  0.00  0.00    +0.000 A 
ATOM     15  C   UNL     1       1.160   8.500  21.416  0.00  0.00    +0.000 A 
ATOM     16  C   UNL     1       0.422   9.683  21.303  0.00  0.00    +0.000 A 
ATOM     17  C   UNL     1       0.331  10.347  20.070  0.00  0.00    +0.000 A 
ATOM     18  C   UNL     1       0.982   9.811  18.950  0.00  0.00    +0.000 A 
BRANCH  16  19
ATOM     19  N   UNL     1      -0.238  10.246  22.489  0.00  0.00    +0.000 N 
ATOM     20  O   UNL     1      -0.803   9.458  23.260  0.00  0.00    +0.000 OA
ATOM     21  O   UNL     1      -0.193  11.473  22.646  0.00  0.00    +0.000 OA
ENDBRANCH  16  19
ENDBRANCH  12  13
ENDBRANCH   8  12
TORSDOF 3
ENDMDL
MODEL 6
REMARK VINA RESULT:      -6.8      2.778      7.163
REMARK  Name = 
REMARK  4 active torsions:
REMARK  status: ('A' for Active; 'I' for Inactive)
REMARK    1  A    between atoms: C_1  and  C_2
REMARK    2  A    between atoms: C_8  and  C_10
REMARK    3  A    between atoms: C_10  and  C_11
REMARK    4  A    between atoms: C_14  and  N_15
REMARK                            x       y       z     vdW  Elec       q    Type
REMARK                         _______ _______ _______ _____ _____    ______ ____
ROOT
ATOM      1  C   UNL     1       5.717   4.773  14.491  0.00  0.00    +0.000 C 
ATOM      2  C   UNL     1       6.027   4.824  15.957  0.00  0.00    +0.000 A 
ATOM      3  C   UNL     1       7.275   4.448  16.447  0.00  0.00    +0.000 A 
ATOM      4  C   UNL     1       7.524   4.593  17.803  0.00  0.00    +0.000 A 
ATOM      5  N   UNL     1       6.629   5.081  18.689  0.00  0.00    +0.000 NA
ATOM      6  C   UNL     1       5.398   5.352  18.218  0.00  0.00    +0.000 A 
ATOM      7  N   UNL     1       4.483   5.763  19.190  0.00  0.00    +0.000 N 
ATOM      8  C   UNL     1       3.171   5.336  19.219  0.00  0.00    +0.000 C 
ATOM      9  O   UNL     1       2.666   4.544  18.427  0.00  0.00    +0.000 OA
ATOM     10  C   UNL     1       5.062   5.264  16.871  0.00  0.00    +0.000 A 
ATOM     11  H   UNL     1       4.919   5.983  20.074  0.00  0.00    +0.000 HD
ENDROOT
BRANCH   8  12
ATOM     12  C   UNL     1       2.354   5.942  20.343  0.00  0.00    +0.000 C 
BRANCH  12  13
ATOM     13  C   UNL     1       1.802   7.330  20.073  0.00  0.00    +0.000 A 
ATOM     14  C   UNL     1       1.180   8.040  21.108  0.00  0.00    +0.000 A 
ATOM     15  C   UNL     1       0.739   9.351  20.905  0.00  0.00    +0.000 A 
ATOM     16  C   UNL     1       0.923   9.961  19.659  0.00  0.00    +0.000 A 
ATOM     17  C   UNL     1       1.545   9.263  18.613  0.00  0.00    +0.000 A 
ATOM     18  C   UNL     1       1.979   7.946  18.826  0.00  0.00    +0.000 A 
BRANCH  16  19
ATOM     19  N   UNL     1       0.483  11.348  19.455  0.00  0.00    +0.000 N 
ATOM     20  O   UNL     1      -0.535  11.722  20.053  0.00  0.00    +0.000 OA
ATOM     21  O   UNL     1       1.154  12.059  18.696  0.00  0.00    +0.000 OA
ENDBRANCH  16  19
ENDBRANCH  12  13
ENDBRANCH   8  12
TORSDOF 3
ENDMDL
MODEL 7
REMARK VINA RESULT:      -6.8      2.761      7.098
REMARK  Name = 
REMARK  4 active torsions:
REMARK  status: ('A' for Active; 'I' for Inactive)
REMARK    1  A    between atoms: C_1  and  C_2
REMARK    2  A    between atoms: C_8  and  C_10
REMARK    3  A    between atoms: C_10  and  C_11
REMARK    4  A    between atoms: C_14  and  N_15
REMARK                            x       y       z     vdW  Elec       q    Type
REMARK                         _______ _______ _______ _____ _____    ______ ____
ROOT
ATOM      1  C   UNL     1       5.515   4.690  14.599  0.00  0.00    +0.000 C 
ATOM      2  C   UNL     1       5.838   4.778  16.060  0.00  0.00    +0.000 A 
ATOM      3  C   UNL     1       7.098   4.435  16.546  0.00  0.00    +0.000 A 
ATOM      4  C   UNL     1       7.357   4.614  17.896  0.00  0.00    +0.000 A 
ATOM      5  N   UNL     1       6.462   5.104  18.780  0.00  0.00    +0.000 NA
ATOM      6  C   UNL     1       5.221   5.344  18.316  0.00  0.00    +0.000 A 
ATOM      7  N   UNL     1       4.308   5.760  19.287  0.00  0.00    +0.000 N 
ATOM      8  C   UNL     1       3.005   5.310  19.338  0.00  0.00    +0.000 C 
ATOM      9  O   UNL     1       2.506   4.493  18.568  0.00  0.00    +0.000 OA
ATOM     10  C   UNL     1       4.874   5.221  16.974  0.00  0.00    +0.000 A 
ATOM     11  H   UNL     1       4.749   6.006  20.162  0.00  0.00    +0.000 HD
ENDROOT
BRANCH   8  12
ATOM     12  C   UNL     1       2.187   5.927  20.457  0.00  0.00    +0.000 C 
BRANCH  12  13
ATOM     13  C   UNL     1       1.792   7.377  20.253  0.00  0.00    +0.000 A 
ATOM     14  C   UNL     1       1.877   7.943  18.974  0.00  0.00    +0.000 A 
ATOM     15  C   UNL     1       1.440   9.252  18.746  0.00  0.00    +0.000 A 
ATOM     16  C   UNL     1       0.910  10.001  19.801  0.00  0.00    +0.000 A 
ATOM     17  C   UNL     1       0.816   9.447  21.087  0.00  0.00    +0.000 A 
ATOM     18  C   UNL     1       1.263   8.136  21.307  0.00  0.00    +0.000 A 
BRANCH  16  19
ATOM     19  N   UNL     1       0.425  11.366  19.554  0.00  0.00    +0.000 N 
ATOM     20  O   UNL     1       0.585  12.204  20.453  0.00  0.00    +0.000 OA
ATOM     21  O   UNL     1      -0.116  11.598  18.465  0.00  0.00    +0.000 OA
ENDBRANCH  16  19
ENDBRANCH  12  13
ENDBRANCH   8  12
TORSDOF 3
ENDMDL
MODEL 8
REMARK VINA RESULT:      -6.8      3.828      5.118
REMARK  Name = 
REMARK  4 active torsions:
REMARK  status: ('A' for Active; 'I' for Inactive)
REMARK    1  A    between atoms: C_1  and  C_2
REMARK    2  A    between atoms: C_8  and  C_10
REMARK    3  A    between atoms: C_10  and  C_11
REMARK    4  A    between atoms: C_14  and  N_15
REMARK                            x       y       z     vdW  Elec       q    Type
REMARK                         _______ _______ _______ _____ _____    ______ ____
ROOT
ATOM      1  C   UNL     1      -2.900  10.973  16.320  0.00  0.00    +0.000 C 
ATOM      2  C   UNL     1      -2.108  11.042  17.591  0.00  0.00    +0.000 A 
ATOM      3  C   UNL     1      -2.390  11.991  18.570  0.00  0.00    +0.000 A 
ATOM      4  C   UNL     1      -1.673  11.951  19.756  0.00  0.00    +0.000 A 
ATOM      5  N   UNL     1      -0.710  11.044  20.028  0.00  0.00    +0.000 NA
ATOM      6  C   UNL     1      -0.384  10.192  19.038  0.00  0.00    +0.000 A 
ATOM      7  N   UNL     1       0.680   9.337  19.334  0.00  0.00    +0.000 N 
ATOM      8  C   UNL     1       1.673   9.027  18.429  0.00  0.00    +0.000 C 
ATOM      9  O   UNL     1       1.754   9.471  17.286  0.00  0.00    +0.000 OA
ATOM     10  C   UNL     1      -1.064  10.138  17.826  0.00  0.00    +0.000 A 
ATOM     11  H   UNL     1       0.931   9.345  20.314  0.00  0.00    +0.000 HD
ENDROOT
BRANCH   8  12
ATOM     12  C   UNL     1       2.704   8.050  18.960  0.00  0.00    +0.000 C 
BRANCH  12  13
ATOM     13  C   UNL     1       2.232   6.615  19.099  0.00  0.00    +0.000 A 
ATOM     14  C   UNL     1       2.197   5.786  17.970  0.00  0.00    +0.000 A 
ATOM     15  C   UNL     1       1.846   4.438  18.089  0.00  0.00    +0.000 A 
ATOM     16  C   UNL     1       1.528   3.911  19.345  0.00  0.00    +0.000 A 
ATOM     17  C   UNL     1       1.560   4.728  20.486  0.00  0.00    +0.000 A 
ATOM     18  C   UNL     1       1.909   6.080  20.355  0.00  0.00    +0.000 A 
BRANCH  16  19
ATOM     19  N   UNL     1       1.185   2.487  19.473  0.00  0.00    +0.000 N 
ATOM     20  O   UNL     1       1.711   1.851  20.396  0.00  0.00    +0.000 OA
ATOM     21  O   UNL     1       0.396   2.009  18.648  0.00  0.00    +0.000 OA
ENDBRANCH  16  19
ENDBRANCH  12  13
ENDBRANCH   8  12
TORSDOF 3
ENDMDL
MODEL 9
REMARK VINA RESULT:      -6.7      3.157      7.522
REMARK  Name = 
REMARK  4 active torsions:
REMARK  status: ('A' for Active; 'I' for Inactive)
REMARK    1  A    between atoms: C_1  and  C_2
REMARK    2  A    between atoms: C_8  and  C_10
REMARK    3  A    between atoms: C_10  and  C_11
REMARK    4  A    between atoms: C_14  and  N_15
REMARK                            x       y       z     vdW  Elec       q    Type
REMARK                         _______ _______ _______ _____ _____    ______ ____
ROOT
ATOM      1  C   UNL     1       8.373   6.087  12.066  0.00  0.00    +0.000 C 
ATOM      2  C   UNL     1       7.490   5.185  12.875  0.00  0.00    +0.000 A 
ATOM      3  C   UNL     1       6.721   4.194  12.272  0.00  0.00    +0.000 A 
ATOM      4  C   UNL     1       5.986   3.342  13.083  0.00  0.00    +0.000 A 
ATOM      5  N   UNL     1       5.967   3.410  14.431  0.00  0.00    +0.000 NA
ATOM      6  C   UNL     1       6.640   4.430  14.995  0.00  0.00    +0.000 A 
ATOM      7  N   UNL     1       6.513   4.513  16.384  0.00  0.00    +0.000 N 
ATOM      8  C   UNL     1       6.347   5.706  17.056  0.00  0.00    +0.000 C 
ATOM      9  O   UNL     1       6.271   6.813  16.527  0.00  0.00    +0.000 OA
ATOM     10  C   UNL     1       7.427   5.318  14.267  0.00  0.00    +0.000 A 
ATOM     11  H   UNL     1       6.092   3.688  16.790  0.00  0.00    +0.000 HD
ENDROOT
BRANCH   8  12
ATOM     12  C   UNL     1       6.268   5.555  18.563  0.00  0.00    +0.000 C 
BRANCH  12  13
ATOM     13  C   UNL     1       4.994   4.919  19.088  0.00  0.00    +0.000 A 
ATOM     14  C   UNL     1       4.949   3.535  19.301  0.00  0.00    +0.000 A 
ATOM     15  C   UNL     1       3.816   2.939  19.863  0.00  0.00    +0.000 A 
ATOM     16  C   UNL     1       2.718   3.731  20.217  0.00  0.00    +0.000 A 
ATOM     17  C   UNL     1       2.749   5.118  20.011  0.00  0.00    +0.000 A 
ATOM     18  C   UNL     1       3.888   5.705  19.442  0.00  0.00    +0.000 A 
BRANCH  16  19
ATOM     19  N   UNL     1       1.538   3.107  20.832  0.00  0.00    +0.000 N 
ATOM     20  O   UNL     1       1.647   2.695  21.995  0.00  0.00    +0.000 OA
ATOM     21  O   UNL     1       0.508   3.026  20.151  0.00  0.00    +0.000 OA
ENDBRANCH  16  19
ENDBRANCH  12  13
ENDBRANCH   8  12
TORSDOF 3
ENDMDL
