MODEL 1
REMARK VINA RESULT:      -8.9      0.000      0.000
REMARK  Name = 
REMARK  4 active torsions:
REMARK  status: ('A' for Active; 'I' for Inactive)
REMARK    1  A    between atoms: C_2  and  C_21
REMARK    2  A    between atoms: N_3  and  C_4
REMARK    3  A    between atoms: C_7  and  N_8
REMARK    4  A    between atoms: N_8  and  C_9
REMARK                            x       y       z     vdW  Elec       q    Type
REMARK                         _______ _______ _______ _____ _____    ______ ____
ROOT
ATOM      1  C   UNL     1       8.000   7.335  18.439  0.00  0.00    +0.000 A 
ATOM      2  C   UNL     1       7.946   6.186  19.213  0.00  0.00    +0.000 A 
ATOM      3  C   UNL     1       7.100   5.142  18.869  0.00  0.00    +0.000 A 
ATOM      4  C   UNL     1       6.301   5.177  17.728  0.00  0.00    +0.000 A 
ATOM      5  C   UNL     1       6.304   6.378  17.001  0.00  0.00    +0.000 A 
ATOM      6  F   UNL     1       5.529   6.501  15.910  0.00  0.00    +0.000 F 
ATOM      7  C   UNL     1       7.140   7.449  17.344  0.00  0.00    +0.000 A 
ENDROOT
BRANCH   1  10
ATOM      8  O   UNL     1       7.697  10.188  17.862  0.00  0.00    +0.000 OA
ATOM      9  C   UNL     1       8.690   9.712  18.408  0.00  0.00    +0.000 C 
ATOM     10  N   UNL     1       8.902   8.379  18.726  0.00  0.00    +0.000 N 
ATOM     11  H   UNL     1       9.682   8.145  19.331  0.00  0.00    +0.000 HD
BRANCH   9  12
ATOM     12  C   UNL     1       9.728  10.673  18.798  0.00  0.00    +0.000 A 
ATOM     13  C   UNL     1      10.473  11.330  17.812  0.00  0.00    +0.000 A 
ATOM     14  C   UNL     1      11.339  12.352  18.190  0.00  0.00    +0.000 A 
ATOM     15  C   UNL     1      11.428  12.670  19.538  0.00  0.00    +0.000 A 
ATOM     16  N   UNL     1      10.748  12.028  20.514  0.00  0.00    +0.000 NA
ATOM     17  C   UNL     1       9.908  11.047  20.117  0.00  0.00    +0.000 A 
ATOM     18  F   UNL     1       9.208  10.431  21.084  0.00  0.00    +0.000 F 
ENDBRANCH   9  12
ENDBRANCH   1  10
BRANCH   4  19
ATOM     19  N   UNL     1       5.527   4.064  17.341  0.00  0.00    +0.000 N 
ATOM     20  H   UNL     1       6.062   3.208  17.206  0.00  0.00    +0.000 HD
BRANCH  19  21
ATOM     21  C   UNL     1       4.206   3.782  17.769  0.00  0.00    +0.000 A 
ATOM     22  N   UNL     1       3.116   4.196  17.064  0.00  0.00    +0.000 NA
ATOM     23  C   UNL     1       1.875   4.037  17.560  0.00  0.00    +0.000 A 
ATOM     24  N   UNL     1       1.532   3.464  18.720  0.00  0.00    +0.000 NA
ATOM     25  C   UNL     1       2.621   3.026  19.369  0.00  0.00    +0.000 A 
ATOM     26  N   UNL     1       2.648   2.411  20.579  0.00  0.00    +0.000 N 
ATOM     27  C   UNL     1       3.959   2.152  20.882  0.00  0.00    +0.000 A 
ATOM     28  N   UNL     1       4.775   2.577  19.945  0.00  0.00    +0.000 NA
ATOM     29  C   UNL     1       3.949   3.123  18.990  0.00  0.00    +0.000 A 
ATOM     30  H   UNL     1       1.839   2.208  21.145  0.00  0.00    +0.000 HD
ENDBRANCH  19  21
ENDBRANCH   4  19
TORSDOF 4
ENDMDL
MODEL 2
REMARK VINA RESULT:      -8.9      6.157      8.007
REMARK  Name = 
REMARK  4 active torsions:
REMARK  status: ('A' for Active; 'I' for Inactive)
REMARK    1  A    between atoms: C_2  and  C_21
REMARK    2  A    between atoms: N_3  and  C_4
REMARK    3  A    between atoms: C_7  and  N_8
REMARK    4  A    between atoms: N_8  and  C_9
REMARK                            x       y       z     vdW  Elec       q    Type
REMARK                         _______ _______ _______ _____ _____    ______ ____
ROOT
ATOM      1  C   UNL     1       1.297   8.544  19.769  0.00  0.00    +0.000 A 
ATOM      2  C   UNL     1       1.948   8.681  18.553  0.00  0.00    +0.000 A 
ATOM      3  C   UNL     1       2.748   7.661  18.060  0.00  0.00    +0.000 A 
ATOM      4  C   UNL     1       2.908   6.450  18.733  0.00  0.00    +0.000 A 
ATOM      5  C   UNL     1       2.311   6.358  20.000  0.00  0.00    +0.000 A 
ATOM      6  F   UNL     1       2.455   5.236  20.726  0.00  0.00    +0.000 F 
ATOM      7  C   UNL     1       1.514   7.387  20.520  0.00  0.00    +0.000 A 
ENDROOT
BRANCH   1  10
ATOM      8  O   UNL     1       1.580  10.161  22.192  0.00  0.00    +0.000 OA
ATOM      9  C   UNL     1       0.623  10.254  21.427  0.00  0.00    +0.000 C 
ATOM     10  N   UNL     1       0.424   9.536  20.257  0.00  0.00    +0.000 N 
ATOM     11  H   UNL     1      -0.316   9.831  19.629  0.00  0.00    +0.000 HD
BRANCH   9  12
ATOM     12  C   UNL     1      -0.382  11.265  21.778  0.00  0.00    +0.000 A 
ATOM     13  C   UNL     1      -0.567  12.378  20.949  0.00  0.00    +0.000 A 
ATOM     14  C   UNL     1      -1.627  13.242  21.207  0.00  0.00    +0.000 A 
ATOM     15  C   UNL     1      -2.454  12.959  22.283  0.00  0.00    +0.000 A 
ATOM     16  N   UNL     1      -2.278  11.913  23.121  0.00  0.00    +0.000 NA
ATOM     17  C   UNL     1      -1.246  11.086  22.842  0.00  0.00    +0.000 A 
ATOM     18  F   UNL     1      -1.090  10.028  23.655  0.00  0.00    +0.000 F 
ENDBRANCH   9  12
ENDBRANCH   1  10
BRANCH   4  19
ATOM     19  N   UNL     1       3.641   5.388  18.165  0.00  0.00    +0.000 N 
ATOM     20  H   UNL     1       3.302   5.085  17.254  0.00  0.00    +0.000 HD
BRANCH  19  21
ATOM     21  C   UNL     1       5.038   5.185  18.287  0.00  0.00    +0.000 A 
ATOM     22  N   UNL     1       5.698   5.402  19.460  0.00  0.00    +0.000 NA
ATOM     23  C   UNL     1       7.040   5.337  19.516  0.00  0.00    +0.000 A 
ATOM     24  N   UNL     1       7.881   5.041  18.518  0.00  0.00    +0.000 NA
ATOM     25  C   UNL     1       7.201   4.788  17.389  0.00  0.00    +0.000 A 
ATOM     26  N   UNL     1       7.731   4.471  16.181  0.00  0.00    +0.000 N 
ATOM     27  C   UNL     1       6.691   4.317  15.301  0.00  0.00    +0.000 A 
ATOM     28  N   UNL     1       5.527   4.530  15.871  0.00  0.00    +0.000 NA
ATOM     29  C   UNL     1       5.833   4.823  17.180  0.00  0.00    +0.000 A 
ATOM     30  H   UNL     1       8.716   4.388  15.982  0.00  0.00    +0.000 HD
ENDBRANCH  19  21
ENDBRANCH   4  19
TORSDOF 4
ENDMDL
MODEL 3
REMARK VINA RESULT:      -8.7      6.193      7.883
REMARK  Name = 
REMARK  4 active torsions:
REMARK  status: ('A' for Active; 'I' for Inactive)
REMARK    1  A    between atoms: C_2  and  C_21
REMARK    2  A    between atoms: N_3  and  C_4
REMARK    3  A    between atoms: C_7  and  N_8
REMARK    4  A    between atoms: N_8  and  C_9
REMARK                            x       y       z     vdW  Elec       q    Type
REMARK                         _______ _______ _______ _____ _____    ______ ____
ROOT
ATOM      1  C   UNL     1       1.381   8.828  19.654  0.00  0.00    +0.000 A 
ATOM      2  C   UNL     1       1.964   8.986  18.406  0.00  0.00    +0.000 A 
ATOM      3  C   UNL     1       2.721   7.968  17.845  0.00  0.00    +0.000 A 
ATOM      4  C   UNL     1       2.902   6.740  18.480  0.00  0.00    +0.000 A 
ATOM      5  C   UNL     1       2.377   6.625  19.777  0.00  0.00    +0.000 A 
ATOM      6  F   UNL     1       2.547   5.485  20.468  0.00  0.00    +0.000 F 
ATOM      7  C   UNL     1       1.625   7.650  20.365  0.00  0.00    +0.000 A 
ENDROOT
BRANCH   1  10
ATOM      8  O   UNL     1       1.487   9.956  22.352  0.00  0.00    +0.000 OA
ATOM      9  C   UNL     1       0.657  10.294  21.512  0.00  0.00    +0.000 C 
ATOM     10  N   UNL     1       0.550   9.818  20.214  0.00  0.00    +0.000 N 
ATOM     11  H   UNL     1      -0.065  10.305  19.570  0.00  0.00    +0.000 HD
BRANCH   9  12
ATOM     12  C   UNL     1      -0.282  11.343  21.926  0.00  0.00    +0.000 A 
ATOM     13  C   UNL     1      -1.317  11.038  22.817  0.00  0.00    +0.000 A 
ATOM     14  C   UNL     1      -2.099  12.072  23.323  0.00  0.00    +0.000 A 
ATOM     15  C   UNL     1      -1.816  13.367  22.914  0.00  0.00    +0.000 A 
ATOM     16  N   UNL     1      -0.847  13.687  22.027  0.00  0.00    +0.000 NA
ATOM     17  C   UNL     1      -0.098  12.664  21.559  0.00  0.00    +0.000 A 
ATOM     18  F   UNL     1       0.886  12.985  20.703  0.00  0.00    +0.000 F 
ENDBRANCH   9  12
ENDBRANCH   1  10
BRANCH   4  19
ATOM     19  N   UNL     1       3.588   5.682  17.847  0.00  0.00    +0.000 N 
ATOM     20  H   UNL     1       3.289   5.502  16.891  0.00  0.00    +0.000 HD
BRANCH  19  21
ATOM     21  C   UNL     1       4.954   5.351  18.030  0.00  0.00    +0.000 A 
ATOM     22  N   UNL     1       5.561   5.448  19.246  0.00  0.00    +0.000 NA
ATOM     23  C   UNL     1       6.888   5.262  19.368  0.00  0.00    +0.000 A 
ATOM     24  N   UNL     1       7.756   4.945  18.399  0.00  0.00    +0.000 NA
ATOM     25  C   UNL     1       7.122   4.813  17.225  0.00  0.00    +0.000 A 
ATOM     26  N   UNL     1       7.690   4.514  16.029  0.00  0.00    +0.000 N 
ATOM     27  C   UNL     1       6.693   4.498  15.090  0.00  0.00    +0.000 A 
ATOM     28  N   UNL     1       5.521   4.782  15.609  0.00  0.00    +0.000 NA
ATOM     29  C   UNL     1       5.776   4.978  16.947  0.00  0.00    +0.000 A 
ATOM     30  H   UNL     1       8.674   4.354  15.878  0.00  0.00    +0.000 HD
ENDBRANCH  19  21
ENDBRANCH   4  19
TORSDOF 4
ENDMDL
MODEL 4
REMARK VINA RESULT:      -8.7      5.947      7.604
REMARK  Name = 
REMARK  4 active torsions:
REMARK  status: ('A' for Active; 'I' for Inactive)
REMARK    1  A    between atoms: C_2  and  C_21
REMARK    2  A    between atoms: N_3  and  C_4
REMARK    3  A    between atoms: C_7  and  N_8
REMARK    4  A    between atoms: N_8  and  C_9
REMARK                            x       y       z     vdW  Elec       q    Type
REMARK                         _______ _______ _______ _____ _____    ______ ____
ROOT
ATOM      1  C   UNL     1       1.559   8.100  19.855  0.00  0.00    +0.000 A 
ATOM      2  C   UNL     1       2.236   8.174  18.648  0.00  0.00    +0.000 A 
ATOM      3  C   UNL     1       2.928   7.078  18.156  0.00  0.00    +0.000 A 
ATOM      4  C   UNL     1       2.948   5.852  18.820  0.00  0.00    +0.000 A 
ATOM      5  C   UNL     1       2.328   5.815  20.079  0.00  0.00    +0.000 A 
ATOM      6  F   UNL     1       2.340   4.679  20.798  0.00  0.00    +0.000 F 
ATOM      7  C   UNL     1       1.639   6.920  20.598  0.00  0.00    +0.000 A 
ENDROOT
BRANCH   1  10
ATOM      8  O   UNL     1       1.810   9.478  22.424  0.00  0.00    +0.000 OA
ATOM      9  C   UNL     1       0.965   9.771  21.582  0.00  0.00    +0.000 C 
ATOM     10  N   UNL     1       0.791   9.176  20.341  0.00  0.00    +0.000 N 
ATOM     11  H   UNL     1       0.173   9.625  19.672  0.00  0.00    +0.000 HD
BRANCH   9  12
ATOM     12  C   UNL     1       0.086  10.896  21.921  0.00  0.00    +0.000 A 
ATOM     13  C   UNL     1       0.181  12.093  21.202  0.00  0.00    +0.000 A 
ATOM     14  C   UNL     1      -0.762  13.092  21.426  0.00  0.00    +0.000 A 
ATOM     15  C   UNL     1      -1.758  12.852  22.362  0.00  0.00    +0.000 A 
ATOM     16  N   UNL     1      -1.853  11.721  23.096  0.00  0.00    +0.000 NA
ATOM     17  C   UNL     1      -0.929  10.766  22.851  0.00  0.00    +0.000 A 
ATOM     18  F   UNL     1      -1.042   9.629  23.556  0.00  0.00    +0.000 F 
ENDBRANCH   9  12
ENDBRANCH   1  10
BRANCH   4  19
ATOM     19  N   UNL     1       3.569   4.721  18.253  0.00  0.00    +0.000 N 
ATOM     20  H   UNL     1       2.926   4.068  17.808  0.00  0.00    +0.000 HD
BRANCH  19  21
ATOM     21  C   UNL     1       4.839   4.699  17.624  0.00  0.00    +0.000 A 
ATOM     22  N   UNL     1       4.988   4.357  16.314  0.00  0.00    +0.000 NA
ATOM     23  C   UNL     1       6.213   4.210  15.776  0.00  0.00    +0.000 A 
ATOM     24  N   UNL     1       7.392   4.393  16.382  0.00  0.00    +0.000 NA
ATOM     25  C   UNL     1       7.213   4.773  17.656  0.00  0.00    +0.000 A 
ATOM     26  N   UNL     1       8.186   5.029  18.567  0.00  0.00    +0.000 N 
ATOM     27  C   UNL     1       7.571   5.363  19.745  0.00  0.00    +0.000 A 
ATOM     28  N   UNL     1       6.262   5.323  19.648  0.00  0.00    +0.000 NA
ATOM     29  C   UNL     1       6.026   4.957  18.342  0.00  0.00    +0.000 A 
ATOM     30  H   UNL     1       9.177   4.961  18.393  0.00  0.00    +0.000 HD
ENDBRANCH  19  21
ENDBRANCH   4  19
TORSDOF 4
ENDMDL
MODEL 5
REMARK VINA RESULT:      -8.7      1.724      2.309
REMARK  Name = 
REMARK  4 active torsions:
REMARK  status: ('A' for Active; 'I' for Inactive)
REMARK    1  A    between atoms: C_2  and  C_21
REMARK    2  A    between atoms: N_3  and  C_4
REMARK    3  A    between atoms: C_7  and  N_8
REMARK    4  A    between atoms: N_8  and  C_9
REMARK                            x       y       z     vdW  Elec       q    Type
REMARK                         _______ _______ _______ _____ _____    ______ ____
ROOT
ATOM      1  C   UNL     1       7.899   8.073  17.927  0.00  0.00    +0.000 A 
ATOM      2  C   UNL     1       8.280   7.076  18.811  0.00  0.00    +0.000 A 
ATOM      3  C   UNL     1       7.563   5.891  18.892  0.00  0.00    +0.000 A 
ATOM      4  C   UNL     1       6.464   5.630  18.076  0.00  0.00    +0.000 A 
ATOM      5  C   UNL     1       6.040   6.679  17.245  0.00  0.00    +0.000 A 
ATOM      6  F   UNL     1       4.963   6.516  16.459  0.00  0.00    +0.000 F 
ATOM      7  C   UNL     1       6.743   7.889  17.165  0.00  0.00    +0.000 A 
ENDROOT
BRANCH   1  10
ATOM      8  O   UNL     1       8.863   9.877  20.020  0.00  0.00    +0.000 OA
ATOM      9  C   UNL     1       9.061  10.067  18.822  0.00  0.00    +0.000 C 
ATOM     10  N   UNL     1       8.651   9.255  17.775  0.00  0.00    +0.000 N 
ATOM     11  H   UNL     1       9.028   9.431  16.850  0.00  0.00    +0.000 HD
BRANCH   9  12
ATOM     12  C   UNL     1       9.855  11.254  18.484  0.00  0.00    +0.000 A 
ATOM     13  C   UNL     1      11.214  11.299  18.813  0.00  0.00    +0.000 A 
ATOM     14  C   UNL     1      11.987  12.358  18.346  0.00  0.00    +0.000 A 
ATOM     15  C   UNL     1      11.367  13.330  17.575  0.00  0.00    +0.000 A 
ATOM     16  N   UNL     1      10.049  13.332  17.273  0.00  0.00    +0.000 NA
ATOM     17  C   UNL     1       9.326  12.287  17.731  0.00  0.00    +0.000 A 
ATOM     18  F   UNL     1       8.023  12.271  17.404  0.00  0.00    +0.000 F 
ENDBRANCH   9  12
ENDBRANCH   1  10
BRANCH   4  19
ATOM     19  N   UNL     1       5.813   4.379  18.101  0.00  0.00    +0.000 N 
ATOM     20  H   UNL     1       6.375   3.608  17.743  0.00  0.00    +0.000 HD
BRANCH  19  21
ATOM     21  C   UNL     1       4.905   3.935  19.094  0.00  0.00    +0.000 A 
ATOM     22  N   UNL     1       4.998   2.696  19.653  0.00  0.00    +0.000 NA
ATOM     23  C   UNL     1       4.045   2.246  20.490  0.00  0.00    +0.000 A 
ATOM     24  N   UNL     1       2.954   2.901  20.904  0.00  0.00    +0.000 NA
ATOM     25  C   UNL     1       2.913   4.132  20.374  0.00  0.00    +0.000 A 
ATOM     26  N   UNL     1       1.943   5.062  20.563  0.00  0.00    +0.000 N 
ATOM     27  C   UNL     1       2.280   6.166  19.824  0.00  0.00    +0.000 A 
ATOM     28  N   UNL     1       3.401   5.994  19.161  0.00  0.00    +0.000 NA
ATOM     29  C   UNL     1       3.809   4.725  19.500  0.00  0.00    +0.000 A 
ATOM     30  H   UNL     1       1.122   4.937  21.133  0.00  0.00    +0.000 HD
ENDBRANCH  19  21
ENDBRANCH   4  19
TORSDOF 4
ENDMDL
MODEL 6
REMARK VINA RESULT:      -8.6      5.854      7.458
REMARK  Name = 
REMARK  4 active torsions:
REMARK  status: ('A' for Active; 'I' for Inactive)
REMARK    1  A    between atoms: C_2  and  C_21
REMARK    2  A    between atoms: N_3  and  C_4
REMARK    3  A    between atoms: C_7  and  N_8
REMARK    4  A    between atoms: N_8  and  C_9
REMARK                            x       y       z     vdW  Elec       q    Type
REMARK                         _______ _______ _______ _____ _____    ______ ____
ROOT
ATOM      1  C   UNL     1       1.511   8.220  19.828  0.00  0.00    +0.000 A 
ATOM      2  C   UNL     1       1.512   7.066  20.596  0.00  0.00    +0.000 A 
ATOM      3  C   UNL     1       2.241   5.954  20.199  0.00  0.00    +0.000 A 
ATOM      4  C   UNL     1       3.026   5.951  19.047  0.00  0.00    +0.000 A 
ATOM      5  C   UNL     1       2.950   7.096  18.238  0.00  0.00    +0.000 A 
ATOM      6  F   UNL     1       3.647   7.151  17.091  0.00  0.00    +0.000 F 
ATOM      7  C   UNL     1       2.204   8.221  18.615  0.00  0.00    +0.000 A 
ENDROOT
BRANCH   1  10
ATOM      8  O   UNL     1       1.583   9.503  22.457  0.00  0.00    +0.000 OA
ATOM      9  C   UNL     1       0.914   9.927  21.519  0.00  0.00    +0.000 C 
ATOM     10  N   UNL     1       0.837   9.386  20.244  0.00  0.00    +0.000 N 
ATOM     11  H   UNL     1       0.388   9.929  19.514  0.00  0.00    +0.000 HD
BRANCH   9  12
ATOM     12  C   UNL     1       0.159  11.159  21.775  0.00  0.00    +0.000 A 
ATOM     13  C   UNL     1      -0.888  11.153  22.704  0.00  0.00    +0.000 A 
ATOM     14  C   UNL     1      -1.487  12.359  23.053  0.00  0.00    +0.000 A 
ATOM     15  C   UNL     1      -1.018  13.520  22.455  0.00  0.00    +0.000 A 
ATOM     16  N   UNL     1      -0.035  13.552  21.529  0.00  0.00    +0.000 NA
ATOM     17  C   UNL     1       0.535  12.367  21.216  0.00  0.00    +0.000 A 
ATOM     18  F   UNL     1       1.535  12.402  20.320  0.00  0.00    +0.000 F 
ENDBRANCH   9  12
ENDBRANCH   1  10
BRANCH   4  19
ATOM     19  N   UNL     1       3.840   4.848  18.718  0.00  0.00    +0.000 N 
ATOM     20  H   UNL     1       3.437   4.223  18.022  0.00  0.00    +0.000 HD
BRANCH  19  21
ATOM     21  C   UNL     1       5.255   4.853  18.645  0.00  0.00    +0.000 A 
ATOM     22  N   UNL     1       6.030   5.181  19.717  0.00  0.00    +0.000 NA
ATOM     23  C   UNL     1       7.363   5.313  19.587  0.00  0.00    +0.000 A 
ATOM     24  N   UNL     1       8.093   5.127  18.481  0.00  0.00    +0.000 NA
ATOM     25  C   UNL     1       7.309   4.761  17.456  0.00  0.00    +0.000 A 
ATOM     26  N   UNL     1       7.709   4.506  16.184  0.00  0.00    +0.000 N 
ATOM     27  C   UNL     1       6.593   4.189  15.456  0.00  0.00    +0.000 A 
ATOM     28  N   UNL     1       5.499   4.239  16.181  0.00  0.00    +0.000 NA
ATOM     29  C   UNL     1       5.936   4.593  17.437  0.00  0.00    +0.000 A 
ATOM     30  H   UNL     1       8.659   4.564  15.851  0.00  0.00    +0.000 HD
ENDBRANCH  19  21
ENDBRANCH   4  19
TORSDOF 4
ENDMDL
MODEL 7
REMARK VINA RESULT:      -8.6      5.782      7.614
REMARK  Name = 
REMARK  4 active torsions:
REMARK  status: ('A' for Active; 'I' for Inactive)
REMARK    1  A    between atoms: C_2  and  C_21
REMARK    2  A    between atoms: N_3  and  C_4
REMARK    3  A    between atoms: C_7  and  N_8
REMARK    4  A    between atoms: N_8  and  C_9
REMARK                            x       y       z     vdW  Elec       q    Type
REMARK                         _______ _______ _______ _____ _____    ______ ____
ROOT
ATOM      1  C   UNL     1       1.803   7.849  20.103  0.00  0.00    +0.000 A 
ATOM      2  C   UNL     1       1.747   6.538  20.551  0.00  0.00    +0.000 A 
ATOM      3  C   UNL     1       2.315   5.514  19.809  0.00  0.00    +0.000 A 
ATOM      4  C   UNL     1       2.993   5.747  18.614  0.00  0.00    +0.000 A 
ATOM      5  C   UNL     1       2.970   7.066  18.132  0.00  0.00    +0.000 A 
ATOM      6  F   UNL     1       3.567   7.361  16.965  0.00  0.00    +0.000 F 
ATOM      7  C   UNL     1       2.384   8.110  18.860  0.00  0.00    +0.000 A 
ENDROOT
BRANCH   1  10
ATOM      8  O   UNL     1      -0.290   9.760  19.373  0.00  0.00    +0.000 OA
ATOM      9  C   UNL     1       0.306   9.791  20.447  0.00  0.00    +0.000 C 
ATOM     10  N   UNL     1       1.296   8.916  20.870  0.00  0.00    +0.000 N 
ATOM     11  H   UNL     1       1.581   8.944  21.844  0.00  0.00    +0.000 HD
BRANCH   9  12
ATOM     12  C   UNL     1      -0.117  10.837  21.384  0.00  0.00    +0.000 A 
ATOM     13  C   UNL     1       0.036  12.185  21.038  0.00  0.00    +0.000 A 
ATOM     14  C   UNL     1      -0.513  13.160  21.864  0.00  0.00    +0.000 A 
ATOM     15  C   UNL     1      -1.188  12.748  23.003  0.00  0.00    +0.000 A 
ATOM     16  N   UNL     1      -1.320  11.458  23.382  0.00  0.00    +0.000 NA
ATOM     17  C   UNL     1      -0.785  10.531  22.556  0.00  0.00    +0.000 A 
ATOM     18  F   UNL     1      -0.945   9.247  22.914  0.00  0.00    +0.000 F 
ENDBRANCH   9  12
ENDBRANCH   1  10
BRANCH   4  19
ATOM     19  N   UNL     1       3.653   4.706  17.930  0.00  0.00    +0.000 N 
ATOM     20  H   UNL     1       3.142   4.342  17.127  0.00  0.00    +0.000 HD
BRANCH  19  21
ATOM     21  C   UNL     1       5.053   4.593  17.741  0.00  0.00    +0.000 A 
ATOM     22  N   UNL     1       5.924   4.600  18.789  0.00  0.00    +0.000 NA
ATOM     23  C   UNL     1       7.253   4.631  18.580  0.00  0.00    +0.000 A 
ATOM     24  N   UNL     1       7.888   4.627  17.402  0.00  0.00    +0.000 NA
ATOM     25  C   UNL     1       7.008   4.573  16.392  0.00  0.00    +0.000 A 
ATOM     26  N   UNL     1       7.298   4.571  15.066  0.00  0.00    +0.000 N 
ATOM     27  C   UNL     1       6.111   4.530  14.383  0.00  0.00    +0.000 A 
ATOM     28  N   UNL     1       5.076   4.521  15.191  0.00  0.00    +0.000 NA
ATOM     29  C   UNL     1       5.625   4.544  16.453  0.00  0.00    +0.000 A 
ATOM     30  H   UNL     1       8.227   4.611  14.675  0.00  0.00    +0.000 HD
ENDBRANCH  19  21
ENDBRANCH   4  19
TORSDOF 4
ENDMDL
MODEL 8
REMARK VINA RESULT:      -8.6      5.915      7.567
REMARK  Name = 
REMARK  4 active torsions:
REMARK  status: ('A' for Active; 'I' for Inactive)
REMARK    1  A    between atoms: C_2  and  C_21
REMARK    2  A    between atoms: N_3  and  C_4
REMARK    3  A    between atoms: C_7  and  N_8
REMARK    4  A    between atoms: N_8  and  C_9
REMARK                            x       y       z     vdW  Elec       q    Type
REMARK                         _______ _______ _______ _____ _____    ______ ____
ROOT
ATOM      1  C   UNL     1       1.449   7.984  20.102  0.00  0.00    +0.000 A 
ATOM      2  C   UNL     1       2.208   8.017  18.943  0.00  0.00    +0.000 A 
ATOM      3  C   UNL     1       2.909   6.896  18.526  0.00  0.00    +0.000 A 
ATOM      4  C   UNL     1       2.859   5.687  19.218  0.00  0.00    +0.000 A 
ATOM      5  C   UNL     1       2.155   5.692  20.432  0.00  0.00    +0.000 A 
ATOM      6  F   UNL     1       2.096   4.574  21.176  0.00  0.00    +0.000 F 
ATOM      7  C   UNL     1       1.455   6.822  20.877  0.00  0.00    +0.000 A 
ENDROOT
BRANCH   1  10
ATOM      8  O   UNL     1       1.708   9.567  22.550  0.00  0.00    +0.000 OA
ATOM      9  C   UNL     1       0.850   9.780  21.697  0.00  0.00    +0.000 C 
ATOM     10  N   UNL     1       0.671   9.086  20.510  0.00  0.00    +0.000 N 
ATOM     11  H   UNL     1       0.040   9.472  19.815  0.00  0.00    +0.000 HD
BRANCH   9  12
ATOM     12  C   UNL     1      -0.041  10.918  21.955  0.00  0.00    +0.000 A 
ATOM     13  C   UNL     1      -1.077  10.792  22.888  0.00  0.00    +0.000 A 
ATOM     14  C   UNL     1      -1.809  11.922  23.239  0.00  0.00    +0.000 A 
ATOM     15  C   UNL     1      -1.479  13.128  22.638  0.00  0.00    +0.000 A 
ATOM     16  N   UNL     1      -0.509  13.271  21.707  0.00  0.00    +0.000 NA
ATOM     17  C   UNL     1       0.192  12.160  21.394  0.00  0.00    +0.000 A 
ATOM     18  F   UNL     1       1.178  12.308  20.493  0.00  0.00    +0.000 F 
ENDBRANCH   9  12
ENDBRANCH   1  10
BRANCH   4  19
ATOM     19  N   UNL     1       3.496   4.531  18.720  0.00  0.00    +0.000 N 
ATOM     20  H   UNL     1       2.860   3.768  18.493  0.00  0.00    +0.000 HD
BRANCH  19  21
ATOM     21  C   UNL     1       4.644   4.507  17.890  0.00  0.00    +0.000 A 
ATOM     22  N   UNL     1       4.588   4.089  16.595  0.00  0.00    +0.000 NA
ATOM     23  C   UNL     1       5.712   3.945  15.869  0.00  0.00    +0.000 A 
ATOM     24  N   UNL     1       6.967   4.198  16.259  0.00  0.00    +0.000 NA
ATOM     25  C   UNL     1       6.986   4.652  17.521  0.00  0.00    +0.000 A 
ATOM     26  N   UNL     1       8.085   4.992  18.241  0.00  0.00    +0.000 N 
ATOM     27  C   UNL     1       7.661   5.380  19.484  0.00  0.00    +0.000 A 
ATOM     28  N   UNL     1       6.356   5.296  19.609  0.00  0.00    +0.000 NA
ATOM     29  C   UNL     1       5.922   4.844  18.385  0.00  0.00    +0.000 A 
ATOM     30  H   UNL     1       9.035   4.943  17.908  0.00  0.00    +0.000 HD
ENDBRANCH  19  21
ENDBRANCH   4  19
TORSDOF 4
ENDMDL
MODEL 9
REMARK VINA RESULT:      -8.6      5.801      7.412
REMARK  Name = 
REMARK  4 active torsions:
REMARK  status: ('A' for Active; 'I' for Inactive)
REMARK    1  A    between atoms: C_2  and  C_21
REMARK    2  A    between atoms: N_3  and  C_4
REMARK    3  A    between atoms: C_7  and  N_8
REMARK    4  A    between atoms: N_8  and  C_9
REMARK                            x       y       z     vdW  Elec       q    Type
REMARK                         _______ _______ _______ _____ _____    ______ ____
ROOT
ATOM      1  C   UNL     1       1.774   7.882  20.131  0.00  0.00    +0.000 A 
ATOM      2  C   UNL     1       1.691   6.584  20.611  0.00  0.00    +0.000 A 
ATOM      3  C   UNL     1       2.225   5.528  19.888  0.00  0.00    +0.000 A 
ATOM      4  C   UNL     1       2.894   5.716  18.679  0.00  0.00    +0.000 A 
ATOM      5  C   UNL     1       2.897   7.023  18.166  0.00  0.00    +0.000 A 
ATOM      6  F   UNL     1       3.487   7.276  16.985  0.00  0.00    +0.000 F 
ATOM      7  C   UNL     1       2.347   8.099  18.875  0.00  0.00    +0.000 A 
ENDROOT
BRANCH   1  10
ATOM      8  O   UNL     1      -0.438   9.687  19.486  0.00  0.00    +0.000 OA
ATOM      9  C   UNL     1       0.251   9.799  20.497  0.00  0.00    +0.000 C 
ATOM     10  N   UNL     1       1.303   8.980  20.878  0.00  0.00    +0.000 N 
ATOM     11  H   UNL     1       1.674   9.075  21.818  0.00  0.00    +0.000 HD
BRANCH   9  12
ATOM     12  C   UNL     1      -0.121  10.889  21.407  0.00  0.00    +0.000 A 
ATOM     13  C   UNL     1       0.078  12.218  21.017  0.00  0.00    +0.000 A 
ATOM     14  C   UNL     1      -0.424  13.239  21.819  0.00  0.00    +0.000 A 
ATOM     15  C   UNL     1      -1.098  12.887  22.979  0.00  0.00    +0.000 A 
ATOM     16  N   UNL     1      -1.273  11.614  23.399  0.00  0.00    +0.000 NA
ATOM     17  C   UNL     1      -0.783  10.644  22.596  0.00  0.00    +0.000 A 
ATOM     18  F   UNL     1      -0.985   9.377  22.995  0.00  0.00    +0.000 F 
ENDBRANCH   9  12
ENDBRANCH   1  10
BRANCH   4  19
ATOM     19  N   UNL     1       3.519   4.643  18.013  0.00  0.00    +0.000 N 
ATOM     20  H   UNL     1       2.887   4.070  17.456  0.00  0.00    +0.000 HD
BRANCH  19  21
ATOM     21  C   UNL     1       4.823   4.657  17.457  0.00  0.00    +0.000 A 
ATOM     22  N   UNL     1       5.054   4.335  16.154  0.00  0.00    +0.000 NA
ATOM     23  C   UNL     1       6.310   4.221  15.685  0.00  0.00    +0.000 A 
ATOM     24  N   UNL     1       7.449   4.420  16.360  0.00  0.00    +0.000 NA
ATOM     25  C   UNL     1       7.189   4.780  17.626  0.00  0.00    +0.000 A 
ATOM     26  N   UNL     1       8.102   5.044  18.595  0.00  0.00    +0.000 N 
ATOM     27  C   UNL     1       7.414   5.349  19.739  0.00  0.00    +0.000 A 
ATOM     28  N   UNL     1       6.114   5.283  19.567  0.00  0.00    +0.000 NA
ATOM     29  C   UNL     1       5.960   4.930  18.246  0.00  0.00    +0.000 A 
ATOM     30  H   UNL     1       9.103   5.000  18.477  0.00  0.00    +0.000 HD
ENDBRANCH  19  21
ENDBRANCH   4  19
TORSDOF 4
ENDMDL
