MODEL 1
REMARK VINA RESULT:      -7.5      0.000      0.000
REMARK  Name = 
REMARK  6 active torsions:
REMARK  status: ('A' for Active; 'I' for Inactive)
REMARK    1  A    between atoms: C_1  and  C_2
REMARK    2  A    between atoms: C_2  and  C_3
REMARK    3  A    between atoms: C_2  and  C_4
REMARK    4  A    between atoms: C_7  and  N_8
REMARK    5  A    between atoms: N_14  and  C_15
REMARK    6  A    between atoms: C_20  and  C_21
REMARK                            x       y       z     vdW  Elec       q    Type
REMARK                         _______ _______ _______ _____ _____    ______ ____
ROOT
ATOM      1  N   UNL     1       1.519   8.040  20.260  0.00  0.00    +0.000 N 
ATOM      2  C   UNL     1       1.078   9.222  19.715  0.00  0.00    +0.000 C 
ATOM      3  O   UNL     1       1.193   9.533  18.533  0.00  0.00    +0.000 OA
ATOM      4  N   UNL     1       0.412  10.045  20.606  0.00  0.00    +0.000 N 
ATOM      5  C   UNL     1      -0.222  11.265  20.067  0.00  0.00    +0.000 C 
ATOM      6  C   UNL     1      -1.533  11.599  20.809  0.00  0.00    +0.000 C 
ATOM      7  N   UNL     1      -1.210  11.663  22.242  0.00  0.00    +0.000 N 
ATOM      8  C   UNL     1      -0.751  10.368  22.775  0.00  0.00    +0.000 C 
ATOM      9  C   UNL     1       0.576  10.031  22.073  0.00  0.00    +0.000 C 
ATOM     10  H   UNL     1       1.063   7.756  21.109  0.00  0.00    +0.000 HD
ENDROOT
BRANCH   1  14
ATOM     11  C   UNL     1       3.623   4.906  18.381  0.00  0.00    +0.000 A 
ATOM     12  C   UNL     1       3.606   6.177  17.795  0.00  0.00    +0.000 A 
ATOM     13  C   UNL     1       2.924   7.232  18.403  0.00  0.00    +0.000 A 
ATOM     14  C   UNL     1       2.239   7.031  19.599  0.00  0.00    +0.000 A 
ATOM     15  C   UNL     1       2.255   5.768  20.195  0.00  0.00    +0.000 A 
ATOM     16  C   UNL     1       2.930   4.710  19.583  0.00  0.00    +0.000 A 
BRANCH  11  18
ATOM     17  C   UNL     1       3.609   2.490  17.736  0.00  0.00    +0.000 C 
ATOM     18  C   UNL     1       4.416   3.790  17.732  0.00  0.00    +0.000 C 
ATOM     19  C   UNL     1       4.868   4.161  16.319  0.00  0.00    +0.000 C 
ENDBRANCH  11  18
ENDBRANCH   1  14
BRANCH   7  20
ATOM     20  C   UNL     1      -1.971  12.470  23.068  0.00  0.00    +0.000 A 
ATOM     21  N   UNL     1      -3.150  12.002  23.534  0.00  0.00    +0.000 NA
ATOM     22  C   UNL     1      -3.885  12.809  24.338  0.00  0.00    +0.000 A 
ATOM     23  C   UNL     1      -3.502  14.085  24.719  0.00  0.00    +0.000 A 
ATOM     24  C   UNL     1      -2.304  14.577  24.230  0.00  0.00    +0.000 A 
ATOM     25  C   UNL     1      -1.547  13.771  23.380  0.00  0.00    +0.000 A 
BRANCH  25  26
ATOM     26  C   UNL     1      -0.363  14.351  22.723  0.00  0.00    +0.000 C 
ATOM     27  O   UNL     1       0.267  15.278  23.217  0.00  0.00    +0.000 OA
ENDBRANCH  25  26
ENDBRANCH   7  20
TORSDOF 4
ENDMDL
MODEL 2
REMARK VINA RESULT:      -7.4      1.040      1.233
REMARK  Name = 
REMARK  6 active torsions:
REMARK  status: ('A' for Active; 'I' for Inactive)
REMARK    1  A    between atoms: C_1  and  C_2
REMARK    2  A    between atoms: C_2  and  C_3
REMARK    3  A    between atoms: C_2  and  C_4
REMARK    4  A    between atoms: C_7  and  N_8
REMARK    5  A    between atoms: N_14  and  C_15
REMARK    6  A    between atoms: C_20  and  C_21
REMARK                            x       y       z     vdW  Elec       q    Type
REMARK                         _______ _______ _______ _____ _____    ______ ____
ROOT
ATOM      1  N   UNL     1       1.517   7.337  20.881  0.00  0.00    +0.000 N 
ATOM      2  C   UNL     1       1.289   8.523  20.223  0.00  0.00    +0.000 C 
ATOM      3  O   UNL     1       1.587   8.741  19.053  0.00  0.00    +0.000 OA
ATOM      4  N   UNL     1       0.617   9.469  20.976  0.00  0.00    +0.000 N 
ATOM      5  C   UNL     1       0.203  10.714  20.297  0.00  0.00    +0.000 C 
ATOM      6  C   UNL     1      -1.143  11.236  20.842  0.00  0.00    +0.000 C 
ATOM      7  N   UNL     1      -0.997  11.358  22.300  0.00  0.00    +0.000 N 
ATOM      8  C   UNL     1      -0.763  10.058  22.953  0.00  0.00    +0.000 C 
ATOM      9  C   UNL     1       0.593   9.532  22.451  0.00  0.00    +0.000 C 
ATOM     10  H   UNL     1       0.928   7.160  21.675  0.00  0.00    +0.000 HD
ENDROOT
BRANCH   1  14
ATOM     11  C   UNL     1       3.424   3.875  19.413  0.00  0.00    +0.000 A 
ATOM     12  C   UNL     1       3.924   5.137  19.073  0.00  0.00    +0.000 A 
ATOM     13  C   UNL     1       3.315   6.297  19.555  0.00  0.00    +0.000 A 
ATOM     14  C   UNL     1       2.191   6.215  20.372  0.00  0.00    +0.000 A 
ATOM     15  C   UNL     1       1.688   4.959  20.722  0.00  0.00    +0.000 A 
ATOM     16  C   UNL     1       2.292   3.799  20.234  0.00  0.00    +0.000 A 
BRANCH  11  18
ATOM     17  C   UNL     1       4.640   1.804  20.110  0.00  0.00    +0.000 C 
ATOM     18  C   UNL     1       4.135   2.629  18.924  0.00  0.00    +0.000 C 
ATOM     19  C   UNL     1       3.248   1.793  18.001  0.00  0.00    +0.000 C 
ENDBRANCH  11  18
ENDBRANCH   1  14
BRANCH   7  20
ATOM     20  C   UNL     1      -1.756  12.295  22.976  0.00  0.00    +0.000 A 
ATOM     21  N   UNL     1      -2.919  11.907  23.546  0.00  0.00    +0.000 NA
ATOM     22  C   UNL     1      -3.652  12.841  24.200  0.00  0.00    +0.000 A 
ATOM     23  C   UNL     1      -3.284  14.171  24.328  0.00  0.00    +0.000 A 
ATOM     24  C   UNL     1      -2.104  14.578  23.731  0.00  0.00    +0.000 A 
ATOM     25  C   UNL     1      -1.348  13.637  23.031  0.00  0.00    +0.000 A 
BRANCH  25  26
ATOM     26  C   UNL     1      -0.187  14.099  22.253  0.00  0.00    +0.000 C 
ATOM     27  O   UNL     1       0.809  14.571  22.787  0.00  0.00    +0.000 OA
ENDBRANCH  25  26
ENDBRANCH   7  20
TORSDOF 4
ENDMDL
MODEL 3
REMARK VINA RESULT:      -7.3      1.232      1.785
REMARK  Name = 
REMARK  6 active torsions:
REMARK  status: ('A' for Active; 'I' for Inactive)
REMARK    1  A    between atoms: C_1  and  C_2
REMARK    2  A    between atoms: C_2  and  C_3
REMARK    3  A    between atoms: C_2  and  C_4
REMARK    4  A    between atoms: C_7  and  N_8
REMARK    5  A    between atoms: N_14  and  C_15
REMARK    6  A    between atoms: C_20  and  C_21
REMARK                            x       y       z     vdW  Elec       q    Type
REMARK                         _______ _______ _______ _____ _____    ______ ____
ROOT
ATOM      1  N   UNL     1       2.168   7.977  19.107  0.00  0.00    +0.000 N 
ATOM      2  C   UNL     1       1.633   9.142  18.610  0.00  0.00    +0.000 C 
ATOM      3  O   UNL     1       1.649   9.470  17.428  0.00  0.00    +0.000 OA
ATOM      4  N   UNL     1       0.993   9.922  19.558  0.00  0.00    +0.000 N 
ATOM      5  C   UNL     1       0.265  11.115  19.081  0.00  0.00    +0.000 C 
ATOM      6  C   UNL     1      -1.005  11.377  19.918  0.00  0.00    +0.000 C 
ATOM      7  N   UNL     1      -0.584  11.442  21.326  0.00  0.00    +0.000 N 
ATOM      8  C   UNL     1      -0.027  10.166  21.807  0.00  0.00    +0.000 C 
ATOM      9  C   UNL     1       1.262   9.901  21.009  0.00  0.00    +0.000 C 
ATOM     10  H   UNL     1       1.788   7.663  19.982  0.00  0.00    +0.000 HD
ENDROOT
BRANCH   1  14
ATOM     11  C   UNL     1       4.439   5.192  16.903  0.00  0.00    +0.000 A 
ATOM     12  C   UNL     1       3.300   4.763  17.594  0.00  0.00    +0.000 A 
ATOM     13  C   UNL     1       2.527   5.668  18.323  0.00  0.00    +0.000 A 
ATOM     14  C   UNL     1       2.887   7.012  18.383  0.00  0.00    +0.000 A 
ATOM     15  C   UNL     1       4.018   7.451  17.690  0.00  0.00    +0.000 A 
ATOM     16  C   UNL     1       4.796   6.545  16.968  0.00  0.00    +0.000 A 
BRANCH  11  18
ATOM     17  C   UNL     1       5.095   4.526  14.583  0.00  0.00    +0.000 C 
ATOM     18  C   UNL     1       5.230   4.202  16.072  0.00  0.00    +0.000 C 
ATOM     19  C   UNL     1       6.698   4.146  16.499  0.00  0.00    +0.000 C 
ENDBRANCH  11  18
ENDBRANCH   1  14
BRANCH   7  20
ATOM     20  C   UNL     1      -1.322  12.202  22.214  0.00  0.00    +0.000 A 
ATOM     21  N   UNL     1      -2.441  11.672  22.756  0.00  0.00    +0.000 NA
ATOM     22  C   UNL     1      -3.155  12.434  23.621  0.00  0.00    +0.000 A 
ATOM     23  C   UNL     1      -2.809  13.724  23.990  0.00  0.00    +0.000 A 
ATOM     24  C   UNL     1      -1.674  14.279  23.424  0.00  0.00    +0.000 A 
ATOM     25  C   UNL     1      -0.941  13.520  22.512  0.00  0.00    +0.000 A 
BRANCH  25  26
ATOM     26  C   UNL     1       0.163  14.163  21.781  0.00  0.00    +0.000 C 
ATOM     27  O   UNL     1       1.282  14.284  22.265  0.00  0.00    +0.000 OA
ENDBRANCH  25  26
ENDBRANCH   7  20
TORSDOF 4
ENDMDL
MODEL 4
REMARK VINA RESULT:      -7.1      1.966      9.949
REMARK  Name = 
REMARK  6 active torsions:
REMARK  status: ('A' for Active; 'I' for Inactive)
REMARK    1  A    between atoms: C_1  and  C_2
REMARK    2  A    between atoms: C_2  and  C_3
REMARK    3  A    between atoms: C_2  and  C_4
REMARK    4  A    between atoms: C_7  and  N_8
REMARK    5  A    between atoms: N_14  and  C_15
REMARK    6  A    between atoms: C_20  and  C_21
REMARK                            x       y       z     vdW  Elec       q    Type
REMARK                         _______ _______ _______ _____ _____    ______ ____
ROOT
ATOM      1  N   UNL     1       0.493  10.455  21.027  0.00  0.00    +0.000 N 
ATOM      2  C   UNL     1       0.589  10.329  19.661  0.00  0.00    +0.000 C 
ATOM      3  O   UNL     1       0.188  11.160  18.853  0.00  0.00    +0.000 OA
ATOM      4  N   UNL     1       1.252   9.189  19.243  0.00  0.00    +0.000 N 
ATOM      5  C   UNL     1       1.528   9.052  17.798  0.00  0.00    +0.000 C 
ATOM      6  C   UNL     1       2.874   8.341  17.543  0.00  0.00    +0.000 C 
ATOM      7  N   UNL     1       2.833   7.068  18.279  0.00  0.00    +0.000 N 
ATOM      8  C   UNL     1       2.738   7.263  19.736  0.00  0.00    +0.000 C 
ATOM      9  C   UNL     1       1.386   7.940  20.019  0.00  0.00    +0.000 C 
ATOM     10  H   UNL     1       1.152   9.917  21.561  0.00  0.00    +0.000 HD
ENDROOT
BRANCH   1  14
ATOM     11  C   UNL     1      -1.501  13.462  23.209  0.00  0.00    +0.000 A 
ATOM     12  C   UNL     1      -0.436  13.808  22.369  0.00  0.00    +0.000 A 
ATOM     13  C   UNL     1       0.233  12.831  21.630  0.00  0.00    +0.000 A 
ATOM     14  C   UNL     1      -0.142  11.494  21.727  0.00  0.00    +0.000 A 
ATOM     15  C   UNL     1      -1.209  11.140  22.558  0.00  0.00    +0.000 A 
ATOM     16  C   UNL     1      -1.873  12.115  23.304  0.00  0.00    +0.000 A 
BRANCH  11  18
ATOM     17  C   UNL     1      -3.500  13.969  24.623  0.00  0.00    +0.000 C 
ATOM     18  C   UNL     1      -2.248  14.546  23.958  0.00  0.00    +0.000 C 
ATOM     19  C   UNL     1      -1.354  15.255  24.976  0.00  0.00    +0.000 C 
ENDBRANCH  11  18
ENDBRANCH   1  14
BRANCH   7  20
ATOM     20  C   UNL     1       3.578   5.999  17.816  0.00  0.00    +0.000 A 
ATOM     21  N   UNL     1       4.850   6.214  17.413  0.00  0.00    +0.000 NA
ATOM     22  C   UNL     1       5.563   5.154  16.957  0.00  0.00    +0.000 A 
ATOM     23  C   UNL     1       5.073   3.860  16.882  0.00  0.00    +0.000 A 
ATOM     24  C   UNL     1       3.765   3.638  17.277  0.00  0.00    +0.000 A 
ATOM     25  C   UNL     1       3.007   4.720  17.724  0.00  0.00    +0.000 A 
BRANCH  25  26
ATOM     26  C   UNL     1       1.571   4.521  17.981  0.00  0.00    +0.000 C 
ATOM     27  O   UNL     1       0.967   3.535  17.577  0.00  0.00    +0.000 OA
ENDBRANCH  25  26
ENDBRANCH   7  20
TORSDOF 4
ENDMDL
MODEL 5
REMARK VINA RESULT:      -7.0      0.997      1.475
REMARK  Name = 
REMARK  6 active torsions:
REMARK  status: ('A' for Active; 'I' for Inactive)
REMARK    1  A    between atoms: C_1  and  C_2
REMARK    2  A    between atoms: C_2  and  C_3
REMARK    3  A    between atoms: C_2  and  C_4
REMARK    4  A    between atoms: C_7  and  N_8
REMARK    5  A    between atoms: N_14  and  C_15
REMARK    6  A    between atoms: C_20  and  C_21
REMARK                            x       y       z     vdW  Elec       q    Type
REMARK                         _______ _______ _______ _____ _____    ______ ____
ROOT
ATOM      1  N   UNL     1       1.310   7.502  20.942  0.00  0.00    +0.000 N 
ATOM      2  C   UNL     1       1.132   8.696  20.283  0.00  0.00    +0.000 C 
ATOM      3  O   UNL     1       1.433   8.898  19.111  0.00  0.00    +0.000 OA
ATOM      4  N   UNL     1       0.507   9.672  21.038  0.00  0.00    +0.000 N 
ATOM      5  C   UNL     1       0.146  10.933  20.359  0.00  0.00    +0.000 C 
ATOM      6  C   UNL     1      -1.173  11.516  20.910  0.00  0.00    +0.000 C 
ATOM      7  N   UNL     1      -1.013  11.634  22.367  0.00  0.00    +0.000 N 
ATOM      8  C   UNL     1      -0.834  10.326  23.021  0.00  0.00    +0.000 C 
ATOM      9  C   UNL     1       0.494   9.739  22.513  0.00  0.00    +0.000 C 
ATOM     10  H   UNL     1       0.719   7.353  21.740  0.00  0.00    +0.000 HD
ENDROOT
BRANCH   1  14
ATOM     11  C   UNL     1       3.286   4.139  19.341  0.00  0.00    +0.000 A 
ATOM     12  C   UNL     1       2.214   3.957  20.222  0.00  0.00    +0.000 A 
ATOM     13  C   UNL     1       1.538   5.055  20.757  0.00  0.00    +0.000 A 
ATOM     14  C   UNL     1       1.931   6.350  20.432  0.00  0.00    +0.000 A 
ATOM     15  C   UNL     1       2.997   6.542  19.548  0.00  0.00    +0.000 A 
ATOM     16  C   UNL     1       3.678   5.445  19.019  0.00  0.00    +0.000 A 
BRANCH  11  18
ATOM     17  C   UNL     1       4.512   2.014  19.825  0.00  0.00    +0.000 C 
ATOM     18  C   UNL     1       3.969   2.933  18.729  0.00  0.00    +0.000 C 
ATOM     19  C   UNL     1       3.041   2.177  17.777  0.00  0.00    +0.000 C 
ENDBRANCH  11  18
ENDBRANCH   1  14
BRANCH   7  20
ATOM     20  C   UNL     1      -1.726  12.605  23.046  0.00  0.00    +0.000 A 
ATOM     21  N   UNL     1      -2.936  12.289  23.560  0.00  0.00    +0.000 NA
ATOM     22  C   UNL     1      -3.622  13.257  24.217  0.00  0.00    +0.000 A 
ATOM     23  C   UNL     1      -3.162  14.550  24.401  0.00  0.00    +0.000 A 
ATOM     24  C   UNL     1      -1.931  14.884  23.861  0.00  0.00    +0.000 A 
ATOM     25  C   UNL     1      -1.222  13.910  23.159  0.00  0.00    +0.000 A 
BRANCH  25  26
ATOM     26  C   UNL     1       0.000  14.306  22.440  0.00  0.00    +0.000 C 
ATOM     27  O   UNL     1      -0.034  14.801  21.320  0.00  0.00    +0.000 OA
ENDBRANCH  25  26
ENDBRANCH   7  20
TORSDOF 4
ENDMDL
MODEL 6
REMARK VINA RESULT:      -7.0      1.216      1.473
REMARK  Name = 
REMARK  6 active torsions:
REMARK  status: ('A' for Active; 'I' for Inactive)
REMARK    1  A    between atoms: C_1  and  C_2
REMARK    2  A    between atoms: C_2  and  C_3
REMARK    3  A    between atoms: C_2  and  C_4
REMARK    4  A    between atoms: C_7  and  N_8
REMARK    5  A    between atoms: N_14  and  C_15
REMARK    6  A    between atoms: C_20  and  C_21
REMARK                            x       y       z     vdW  Elec       q    Type
REMARK                         _______ _______ _______ _____ _____    ______ ____
ROOT
ATOM      1  N   UNL     1       2.112   8.176  19.147  0.00  0.00    +0.000 N 
ATOM      2  C   UNL     1       1.499   9.308  18.663  0.00  0.00    +0.000 C 
ATOM      3  O   UNL     1       1.468   9.634  17.481  0.00  0.00    +0.000 OA
ATOM      4  N   UNL     1       0.838  10.050  19.626  0.00  0.00    +0.000 N 
ATOM      5  C   UNL     1       0.031  11.199  19.167  0.00  0.00    +0.000 C 
ATOM      6  C   UNL     1      -1.232  11.388  20.034  0.00  0.00    +0.000 C 
ATOM      7  N   UNL     1      -0.782  11.479  21.431  0.00  0.00    +0.000 N 
ATOM      8  C   UNL     1      -0.141  10.238  21.899  0.00  0.00    +0.000 C 
ATOM      9  C   UNL     1       1.142  10.046  21.071  0.00  0.00    +0.000 C 
ATOM     10  H   UNL     1       1.772   7.841  20.031  0.00  0.00    +0.000 HD
ENDROOT
BRANCH   1  14
ATOM     11  C   UNL     1       4.272   5.292  16.958  0.00  0.00    +0.000 A 
ATOM     12  C   UNL     1       4.673   6.633  16.919  0.00  0.00    +0.000 A 
ATOM     13  C   UNL     1       3.979   7.604  17.643  0.00  0.00    +0.000 A 
ATOM     14  C   UNL     1       2.868   7.253  18.406  0.00  0.00    +0.000 A 
ATOM     15  C   UNL     1       2.465   5.916  18.456  0.00  0.00    +0.000 A 
ATOM     16  C   UNL     1       3.153   4.946  17.726  0.00  0.00    +0.000 A 
BRANCH  11  18
ATOM     17  C   UNL     1       5.078   4.552  14.709  0.00  0.00    +0.000 C 
ATOM     18  C   UNL     1       5.074   4.247  16.209  0.00  0.00    +0.000 C 
ATOM     19  C   UNL     1       6.497   4.122  16.755  0.00  0.00    +0.000 C 
ENDBRANCH  11  18
ENDBRANCH   1  14
BRANCH   7  20
ATOM     20  C   UNL     1      -1.542  12.196  22.337  0.00  0.00    +0.000 A 
ATOM     21  N   UNL     1      -2.714  11.676  22.764  0.00  0.00    +0.000 NA
ATOM     22  C   UNL     1      -3.448  12.397  23.648  0.00  0.00    +0.000 A 
ATOM     23  C   UNL     1      -3.071  13.632  24.148  0.00  0.00    +0.000 A 
ATOM     24  C   UNL     1      -1.880  14.178  23.700  0.00  0.00    +0.000 A 
ATOM     25  C   UNL     1      -1.124  13.464  22.771  0.00  0.00    +0.000 A 
BRANCH  25  26
ATOM     26  C   UNL     1       0.051  14.113  22.165  0.00  0.00    +0.000 C 
ATOM     27  O   UNL     1      -0.024  14.757  21.126  0.00  0.00    +0.000 OA
ENDBRANCH  25  26
ENDBRANCH   7  20
TORSDOF 4
ENDMDL
MODEL 7
REMARK VINA RESULT:      -6.9      1.998      2.951
REMARK  Name = 
REMARK  6 active torsions:
REMARK  status: ('A' for Active; 'I' for Inactive)
REMARK    1  A    between atoms: C_1  and  C_2
REMARK    2  A    between atoms: C_2  and  C_3
REMARK    3  A    between atoms: C_2  and  C_4
REMARK    4  A    between atoms: C_7  and  N_8
REMARK    5  A    between atoms: N_14  and  C_15
REMARK    6  A    between atoms: C_20  and  C_21
REMARK                            x       y       z     vdW  Elec       q    Type
REMARK                         _______ _______ _______ _____ _____    ______ ____
ROOT
ATOM      1  N   UNL     1       2.423   7.882  18.626  0.00  0.00    +0.000 N 
ATOM      2  C   UNL     1       1.731   7.711  19.803  0.00  0.00    +0.000 C 
ATOM      3  O   UNL     1       1.773   6.701  20.498  0.00  0.00    +0.000 OA
ATOM      4  N   UNL     1       1.006   8.821  20.200  0.00  0.00    +0.000 N 
ATOM      5  C   UNL     1       0.355   8.772  21.525  0.00  0.00    +0.000 C 
ATOM      6  C   UNL     1       0.352  10.157  22.207  0.00  0.00    +0.000 C 
ATOM      7  N   UNL     1      -0.263  11.099  21.260  0.00  0.00    +0.000 N 
ATOM      8  C   UNL     1       0.523  11.249  20.024  0.00  0.00    +0.000 C 
ATOM      9  C   UNL     1       0.511   9.887  19.307  0.00  0.00    +0.000 C 
ATOM     10  H   UNL     1       2.591   8.834  18.355  0.00  0.00    +0.000 HD
ENDROOT
BRANCH   1  14
ATOM     11  C   UNL     1       4.921   5.119  16.652  0.00  0.00    +0.000 A 
ATOM     12  C   UNL     1       3.775   4.664  17.314  0.00  0.00    +0.000 A 
ATOM     13  C   UNL     1       2.928   5.561  17.966  0.00  0.00    +0.000 A 
ATOM     14  C   UNL     1       3.219   6.923  17.979  0.00  0.00    +0.000 A 
ATOM     15  C   UNL     1       4.357   7.387  17.315  0.00  0.00    +0.000 A 
ATOM     16  C   UNL     1       5.209   6.490  16.669  0.00  0.00    +0.000 A 
BRANCH  11  18
ATOM     17  C   UNL     1       5.527   4.219  14.399  0.00  0.00    +0.000 C 
ATOM     18  C   UNL     1       5.796   4.134  15.903  0.00  0.00    +0.000 C 
ATOM     19  C   UNL     1       7.279   4.337  16.216  0.00  0.00    +0.000 C 
ENDBRANCH  11  18
ENDBRANCH   1  14
BRANCH   7  20
ATOM     20  C   UNL     1      -0.917  12.214  21.750  0.00  0.00    +0.000 A 
ATOM     21  N   UNL     1      -0.471  12.786  22.892  0.00  0.00    +0.000 NA
ATOM     22  C   UNL     1      -1.129  13.875  23.359  0.00  0.00    +0.000 A 
ATOM     23  C   UNL     1      -2.228  14.446  22.740  0.00  0.00    +0.000 A 
ATOM     24  C   UNL     1      -2.700  13.855  21.581  0.00  0.00    +0.000 A 
ATOM     25  C   UNL     1      -2.053  12.717  21.098  0.00  0.00    +0.000 A 
BRANCH  25  26
ATOM     26  C   UNL     1      -2.653  11.988  19.968  0.00  0.00    +0.000 C 
ATOM     27  O   UNL     1      -2.435  12.297  18.804  0.00  0.00    +0.000 OA
ENDBRANCH  25  26
ENDBRANCH   7  20
TORSDOF 4
ENDMDL
MODEL 8
REMARK VINA RESULT:      -6.9      1.970      2.598
REMARK  Name = 
REMARK  6 active torsions:
REMARK  status: ('A' for Active; 'I' for Inactive)
REMARK    1  A    between atoms: C_1  and  C_2
REMARK    2  A    between atoms: C_2  and  C_3
REMARK    3  A    between atoms: C_2  and  C_4
REMARK    4  A    between atoms: C_7  and  N_8
REMARK    5  A    between atoms: N_14  and  C_15
REMARK    6  A    between atoms: C_20  and  C_21
REMARK                            x       y       z     vdW  Elec       q    Type
REMARK                         _______ _______ _______ _____ _____    ______ ____
ROOT
ATOM      1  N   UNL     1       1.987   7.878  18.544  0.00  0.00    +0.000 N 
ATOM      2  C   UNL     1       1.894   9.200  18.180  0.00  0.00    +0.000 C 
ATOM      3  O   UNL     1       2.544   9.725  17.281  0.00  0.00    +0.000 OA
ATOM      4  N   UNL     1       0.935   9.914  18.876  0.00  0.00    +0.000 N 
ATOM      5  C   UNL     1       0.669  11.301  18.444  0.00  0.00    +0.000 C 
ATOM      6  C   UNL     1      -0.820  11.672  18.613  0.00  0.00    +0.000 C 
ATOM      7  N   UNL     1      -1.176  11.391  20.011  0.00  0.00    +0.000 N 
ATOM      8  C   UNL     1      -1.067   9.960  20.344  0.00  0.00    +0.000 C 
ATOM      9  C   UNL     1       0.418   9.574  20.217  0.00  0.00    +0.000 C 
ATOM     10  H   UNL     1       1.185   7.499  19.014  0.00  0.00    +0.000 HD
ENDROOT
BRANCH   1  14
ATOM     11  C   UNL     1       4.784   5.146  16.965  0.00  0.00    +0.000 A 
ATOM     12  C   UNL     1       3.563   4.676  17.462  0.00  0.00    +0.000 A 
ATOM     13  C   UNL     1       2.618   5.562  17.981  0.00  0.00    +0.000 A 
ATOM     14  C   UNL     1       2.882   6.929  18.023  0.00  0.00    +0.000 A 
ATOM     15  C   UNL     1       4.095   7.408  17.523  0.00  0.00    +0.000 A 
ATOM     16  C   UNL     1       5.044   6.522  17.011  0.00  0.00    +0.000 A 
BRANCH  11  18
ATOM     17  C   UNL     1       5.687   4.213  14.828  0.00  0.00    +0.000 C 
ATOM     18  C   UNL     1       5.771   4.172  16.355  0.00  0.00    +0.000 C 
ATOM     19  C   UNL     1       7.198   4.429  16.841  0.00  0.00    +0.000 C 
ENDBRANCH  11  18
ENDBRANCH   1  14
BRANCH   7  20
ATOM     20  C   UNL     1      -2.191  12.117  20.606  0.00  0.00    +0.000 A 
ATOM     21  N   UNL     1      -3.272  12.457  19.869  0.00  0.00    +0.000 NA
ATOM     22  C   UNL     1      -4.254  13.174  20.469  0.00  0.00    +0.000 A 
ATOM     23  C   UNL     1      -4.225  13.579  21.793  0.00  0.00    +0.000 A 
ATOM     24  C   UNL     1      -3.112  13.250  22.548  0.00  0.00    +0.000 A 
ATOM     25  C   UNL     1      -2.079  12.535  21.942  0.00  0.00    +0.000 A 
BRANCH  25  26
ATOM     26  C   UNL     1      -0.826  12.333  22.687  0.00  0.00    +0.000 C 
ATOM     27  O   UNL     1      -0.636  11.345  23.386  0.00  0.00    +0.000 OA
ENDBRANCH  25  26
ENDBRANCH   7  20
TORSDOF 4
ENDMDL
MODEL 9
REMARK VINA RESULT:      -6.8      1.840      2.883
REMARK  Name = 
REMARK  6 active torsions:
REMARK  status: ('A' for Active; 'I' for Inactive)
REMARK    1  A    between atoms: C_1  and  C_2
REMARK    2  A    between atoms: C_2  and  C_3
REMARK    3  A    between atoms: C_2  and  C_4
REMARK    4  A    between atoms: C_7  and  N_8
REMARK    5  A    between atoms: N_14  and  C_15
REMARK    6  A    between atoms: C_20  and  C_21
REMARK                            x       y       z     vdW  Elec       q    Type
REMARK                         _______ _______ _______ _____ _____    ______ ____
ROOT
ATOM      1  N   UNL     1       0.306  10.284  20.477  0.00  0.00    +0.000 N 
ATOM      2  C   UNL     1       0.686  11.584  20.716  0.00  0.00    +0.000 C 
ATOM      3  O   UNL     1       1.724  12.095  20.305  0.00  0.00    +0.000 OA
ATOM      4  N   UNL     1      -0.244  12.327  21.421  0.00  0.00    +0.000 N 
ATOM      5  C   UNL     1       0.022  13.770  21.591  0.00  0.00    +0.000 C 
ATOM      6  C   UNL     1      -1.284  14.593  21.568  0.00  0.00    +0.000 C 
ATOM      7  N   UNL     1      -2.173  14.014  22.586  0.00  0.00    +0.000 N 
ATOM      8  C   UNL     1      -2.555  12.625  22.277  0.00  0.00    +0.000 C 
ATOM      9  C   UNL     1      -1.272  11.777  22.327  0.00  0.00    +0.000 C 
ATOM     10  H   UNL     1      -0.679  10.101  20.544  0.00  0.00    +0.000 HD
ENDROOT
BRANCH   1  14
ATOM     11  C   UNL     1       2.554   7.250  18.602  0.00  0.00    +0.000 A 
ATOM     12  C   UNL     1       2.108   8.344  17.852  0.00  0.00    +0.000 A 
ATOM     13  C   UNL     1       1.371   9.366  18.453  0.00  0.00    +0.000 A 
ATOM     14  C   UNL     1       1.056   9.304  19.808  0.00  0.00    +0.000 A 
ATOM     15  C   UNL     1       1.502   8.218  20.567  0.00  0.00    +0.000 A 
ATOM     16  C   UNL     1       2.233   7.193  19.965  0.00  0.00    +0.000 A 
BRANCH  11  18
ATOM     17  C   UNL     1       4.483   6.822  17.069  0.00  0.00    +0.000 C 
ATOM     18  C   UNL     1       3.401   6.182  17.941  0.00  0.00    +0.000 C 
ATOM     19  C   UNL     1       4.007   5.222  18.966  0.00  0.00    +0.000 C 
ENDBRANCH  11  18
ENDBRANCH   1  14
BRANCH   7  20
ATOM     20  C   UNL     1      -3.114  14.823  23.197  0.00  0.00    +0.000 A 
ATOM     21  N   UNL     1      -4.260  15.105  22.538  0.00  0.00    +0.000 NA
ATOM     22  C   UNL     1      -5.168  15.905  23.151  0.00  0.00    +0.000 A 
ATOM     23  C   UNL     1      -5.000  16.448  24.414  0.00  0.00    +0.000 A 
ATOM     24  C   UNL     1      -3.820  16.178  25.085  0.00  0.00    +0.000 A 
ATOM     25  C   UNL     1      -2.862  15.379  24.461  0.00  0.00    +0.000 A 
BRANCH  25  26
ATOM     26  C   UNL     1      -1.542  15.230  25.095  0.00  0.00    +0.000 C 
ATOM     27  O   UNL     1      -1.350  15.508  26.273  0.00  0.00    +0.000 OA
ENDBRANCH  25  26
ENDBRANCH   7  20
TORSDOF 4
ENDMDL
