MODEL 1
REMARK VINA RESULT:      -9.6      0.000      0.000
REMARK  Name = 
REMARK  9 active torsions:
REMARK  status: ('A' for Active; 'I' for Inactive)
REMARK    1  A    between atoms: C_1  and  C_2
REMARK    2  A    between atoms: C_5  and  N_6
REMARK    3  A    between atoms: C_7  and  C_9
REMARK    4  A    between atoms: C_9  and  O_10
REMARK    5  A    between atoms: C_9  and  C_20
REMARK    6  A    between atoms: O_10  and  C_11
REMARK    7  A    between atoms: C_11  and  C_13
REMARK    8  A    between atoms: C_14  and  C_15
REMARK    9  A    between atoms: C_18  and  C_19
REMARK                            x       y       z     vdW  Elec       q    Type
REMARK                         _______ _______ _______ _____ _____    ______ ____
ROOT
ATOM      1  C   UNL     1       3.483   5.840  18.475  0.00  0.00    +0.000 C 
ENDROOT
BRANCH   1   2
ATOM      2  C   UNL     1       2.600   4.745  19.054  0.00  0.00    +0.000 A 
ATOM      3  C   UNL     1       1.823   3.939  18.208  0.00  0.00    +0.000 A 
ATOM      4  C   UNL     1       0.990   2.949  18.736  0.00  0.00    +0.000 A 
ATOM      5  C   UNL     1       0.929   2.746  20.113  0.00  0.00    +0.000 A 
ATOM      6  C   UNL     1       1.713   3.521  20.963  0.00  0.00    +0.000 A 
ATOM      7  C   UNL     1       2.547   4.511  20.440  0.00  0.00    +0.000 A 
ENDBRANCH   1   2
BRANCH   1   9
ATOM      8  N   UNL     1       2.030   7.427  19.719  0.00  0.00    +0.000 N 
ATOM      9  C   UNL     1       2.794   7.230  18.573  0.00  0.00    +0.000 C 
ATOM     10  O   UNL     1       2.920   8.040  17.655  0.00  0.00    +0.000 OA
ATOM     11  H   UNL     1       1.845   6.623  20.302  0.00  0.00    +0.000 HD
BRANCH   8  16
ATOM     12  C   UNL     1      -1.020  12.122  21.071  0.00  0.00    +0.000 C 
ATOM     13  C   UNL     1      -0.190  10.909  20.753  0.00  0.00    +0.000 A 
ATOM     14  C   UNL     1       0.340  10.766  19.467  0.00  0.00    +0.000 A 
ATOM     15  C   UNL     1       1.088   9.636  19.120  0.00  0.00    +0.000 A 
ATOM     16  C   UNL     1       1.322   8.614  20.041  0.00  0.00    +0.000 A 
ATOM     17  C   UNL     1       0.834   8.772  21.343  0.00  0.00    +0.000 A 
ATOM     18  C   UNL     1       0.077   9.903  21.692  0.00  0.00    +0.000 A 
ATOM     19 CL   UNL     1      -0.528  10.007  23.309  0.00  0.00    +0.000 Cl
ENDBRANCH   8  16
ENDBRANCH   1   9
BRANCH   1  20
ATOM     20  O   UNL     1       4.710   5.837  19.227  0.00  0.00    +0.000 OA
BRANCH  20  21
ATOM     21  C   UNL     1       5.638   4.954  18.757  0.00  0.00    +0.000 C 
ATOM     22  O   UNL     1       5.856   3.871  19.292  0.00  0.00    +0.000 OA
BRANCH  21  23
ATOM     23  C   UNL     1       6.353   5.422  17.588  0.00  0.00    +0.000 A 
ATOM     24  C   UNL     1       6.184   5.029  16.226  0.00  0.00    +0.000 A 
ATOM     25  C   UNL     1       5.248   4.049  15.622  0.00  0.00    +0.000 C 
ATOM     26  N   UNL     1       7.035   5.678  15.421  0.00  0.00    +0.000 NA
ATOM     27  O   UNL     1       7.758   6.520  16.234  0.00  0.00    +0.000 OA
ATOM     28  C   UNL     1       7.353   6.373  17.523  0.00  0.00    +0.000 A 
ATOM     29  C   UNL     1       8.041   7.237  18.502  0.00  0.00    +0.000 C 
ENDBRANCH  21  23
ENDBRANCH  20  21
ENDBRANCH   1  20
TORSDOF 6
ENDMDL
MODEL 2
REMARK VINA RESULT:      -9.4      0.401      1.791
REMARK  Name = 
REMARK  9 active torsions:
REMARK  status: ('A' for Active; 'I' for Inactive)
REMARK    1  A    between atoms: C_1  and  C_2
REMARK    2  A    between atoms: C_5  and  N_6
REMARK    3  A    between atoms: C_7  and  C_9
REMARK    4  A    between atoms: C_9  and  O_10
REMARK    5  A    between atoms: C_9  and  C_20
REMARK    6  A    between atoms: O_10  and  C_11
REMARK    7  A    between atoms: C_11  and  C_13
REMARK    8  A    between atoms: C_14  and  C_15
REMARK    9  A    between atoms: C_18  and  C_19
REMARK                            x       y       z     vdW  Elec       q    Type
REMARK                         _______ _______ _______ _____ _____    ______ ____
ROOT
ATOM      1  C   UNL     1       3.381   5.861  18.473  0.00  0.00    +0.000 C 
ENDROOT
BRANCH   1   2
ATOM      2  C   UNL     1       2.465   4.760  18.985  0.00  0.00    +0.000 A 
ATOM      3  C   UNL     1       2.292   4.566  20.363  0.00  0.00    +0.000 A 
ATOM      4  C   UNL     1       1.472   3.540  20.840  0.00  0.00    +0.000 A 
ATOM      5  C   UNL     1       0.810   2.700  19.947  0.00  0.00    +0.000 A 
ATOM      6  C   UNL     1       0.951   2.897  18.576  0.00  0.00    +0.000 A 
ATOM      7  C   UNL     1       1.769   3.922  18.096  0.00  0.00    +0.000 A 
ENDBRANCH   1   2
BRANCH   1   9
ATOM      8  N   UNL     1       2.010   7.490  19.755  0.00  0.00    +0.000 N 
ATOM      9  C   UNL     1       2.697   7.254  18.569  0.00  0.00    +0.000 C 
ATOM     10  O   UNL     1       2.759   8.033  17.618  0.00  0.00    +0.000 OA
ATOM     11  H   UNL     1       1.866   6.705  20.377  0.00  0.00    +0.000 HD
BRANCH   8  16
ATOM     12  C   UNL     1      -0.963  12.230  21.120  0.00  0.00    +0.000 C 
ATOM     13  C   UNL     1      -0.154  11.003  20.801  0.00  0.00    +0.000 A 
ATOM     14  C   UNL     1       0.432  10.885  19.537  0.00  0.00    +0.000 A 
ATOM     15  C   UNL     1       1.162   9.744  19.188  0.00  0.00    +0.000 A 
ATOM     16  C   UNL     1       1.322   8.687  20.084  0.00  0.00    +0.000 A 
ATOM     17  C   UNL     1       0.778   8.818  21.367  0.00  0.00    +0.000 A 
ATOM     18  C   UNL     1       0.038   9.959  21.717  0.00  0.00    +0.000 A 
ATOM     19 CL   UNL     1      -0.640  10.030  23.307  0.00  0.00    +0.000 Cl
ENDBRANCH   8  16
ENDBRANCH   1   9
BRANCH   1  20
ATOM     20  O   UNL     1       4.571   5.833  19.281  0.00  0.00    +0.000 OA
BRANCH  20  21
ATOM     21  C   UNL     1       5.511   4.948  18.841  0.00  0.00    +0.000 C 
ATOM     22  O   UNL     1       5.759   3.896  19.424  0.00  0.00    +0.000 OA
BRANCH  21  23
ATOM     23  C   UNL     1       6.201   5.373  17.641  0.00  0.00    +0.000 A 
ATOM     24  C   UNL     1       7.283   6.296  17.516  0.00  0.00    +0.000 A 
ATOM     25  C   UNL     1       8.001   7.073  18.556  0.00  0.00    +0.000 C 
ATOM     26  N   UNL     1       7.656   6.442  16.238  0.00  0.00    +0.000 NA
ATOM     27  O   UNL     1       6.843   5.605  15.508  0.00  0.00    +0.000 OA
ATOM     28  C   UNL     1       5.979   4.965  16.339  0.00  0.00    +0.000 A 
ATOM     29  C   UNL     1       5.057   4.018  15.682  0.00  0.00    +0.000 C 
ENDBRANCH  21  23
ENDBRANCH  20  21
ENDBRANCH   1  20
TORSDOF 6
ENDMDL
MODEL 3
REMARK VINA RESULT:      -9.3      2.155      2.767
REMARK  Name = 
REMARK  9 active torsions:
REMARK  status: ('A' for Active; 'I' for Inactive)
REMARK    1  A    between atoms: C_1  and  C_2
REMARK    2  A    between atoms: C_5  and  N_6
REMARK    3  A    between atoms: C_7  and  C_9
REMARK    4  A    between atoms: C_9  and  O_10
REMARK    5  A    between atoms: C_9  and  C_20
REMARK    6  A    between atoms: O_10  and  C_11
REMARK    7  A    between atoms: C_11  and  C_13
REMARK    8  A    between atoms: C_14  and  C_15
REMARK    9  A    between atoms: C_18  and  C_19
REMARK                            x       y       z     vdW  Elec       q    Type
REMARK                         _______ _______ _______ _____ _____    ______ ____
ROOT
ATOM      1  C   UNL     1       2.904   6.091  18.262  0.00  0.00    +0.000 C 
ENDROOT
BRANCH   1   2
ATOM      2  C   UNL     1       2.360   4.889  19.019  0.00  0.00    +0.000 A 
ATOM      3  C   UNL     1       1.397   4.057  18.429  0.00  0.00    +0.000 A 
ATOM      4  C   UNL     1       0.874   2.966  19.130  0.00  0.00    +0.000 A 
ATOM      5  C   UNL     1       1.312   2.689  20.423  0.00  0.00    +0.000 A 
ATOM      6  C   UNL     1       2.286   3.492  21.012  0.00  0.00    +0.000 A 
ATOM      7  C   UNL     1       2.811   4.582  20.314  0.00  0.00    +0.000 A 
ENDBRANCH   1   2
BRANCH   1   9
ATOM      8  N   UNL     1       2.010   8.373  17.845  0.00  0.00    +0.000 N 
ATOM      9  C   UNL     1       2.311   7.420  18.812  0.00  0.00    +0.000 C 
ATOM     10  O   UNL     1       2.179   7.573  20.026  0.00  0.00    +0.000 OA
ATOM     11  H   UNL     1       2.343   8.207  16.905  0.00  0.00    +0.000 HD
BRANCH   8  16
ATOM     12  C   UNL     1      -0.154  13.573  19.047  0.00  0.00    +0.000 C 
ATOM     13  C   UNL     1       0.426  12.233  18.688  0.00  0.00    +0.000 A 
ATOM     14  C   UNL     1      -0.421  11.122  18.617  0.00  0.00    +0.000 A 
ATOM     15  C   UNL     1       0.084   9.852  18.322  0.00  0.00    +0.000 A 
ATOM     16  C   UNL     1       1.447   9.651  18.096  0.00  0.00    +0.000 A 
ATOM     17  C   UNL     1       2.293  10.765  18.120  0.00  0.00    +0.000 A 
ATOM     18  C   UNL     1       1.789  12.041  18.423  0.00  0.00    +0.000 A 
ATOM     19 CL   UNL     1       2.904  13.362  18.476  0.00  0.00    +0.000 Cl
ENDBRANCH   8  16
ENDBRANCH   1   9
BRANCH   1  20
ATOM     20  O   UNL     1       4.334   6.080  18.419  0.00  0.00    +0.000 OA
BRANCH  20  21
ATOM     21  C   UNL     1       5.014   6.300  17.257  0.00  0.00    +0.000 C 
ATOM     22  O   UNL     1       4.661   7.134  16.428  0.00  0.00    +0.000 OA
BRANCH  21  23
ATOM     23  C   UNL     1       6.170   5.446  17.084  0.00  0.00    +0.000 A 
ATOM     24  C   UNL     1       7.249   5.214  17.990  0.00  0.00    +0.000 A 
ATOM     25  C   UNL     1       7.496   5.767  19.344  0.00  0.00    +0.000 C 
ATOM     26  N   UNL     1       8.144   4.361  17.476  0.00  0.00    +0.000 NA
ATOM     27  O   UNL     1       7.660   4.003  16.239  0.00  0.00    +0.000 OA
ATOM     28  C   UNL     1       6.484   4.644  16.003  0.00  0.00    +0.000 A 
ATOM     29  C   UNL     1       5.845   4.333  14.710  0.00  0.00    +0.000 C 
ENDBRANCH  21  23
ENDBRANCH  20  21
ENDBRANCH   1  20
TORSDOF 6
ENDMDL
MODEL 4
REMARK VINA RESULT:      -9.3      0.992      1.342
REMARK  Name = 
REMARK  9 active torsions:
REMARK  status: ('A' for Active; 'I' for Inactive)
REMARK    1  A    between atoms: C_1  and  C_2
REMARK    2  A    between atoms: C_5  and  N_6
REMARK    3  A    between atoms: C_7  and  C_9
REMARK    4  A    between atoms: C_9  and  O_10
REMARK    5  A    between atoms: C_9  and  C_20
REMARK    6  A    between atoms: O_10  and  C_11
REMARK    7  A    between atoms: C_11  and  C_13
REMARK    8  A    between atoms: C_14  and  C_15
REMARK    9  A    between atoms: C_18  and  C_19
REMARK                            x       y       z     vdW  Elec       q    Type
REMARK                         _______ _______ _______ _____ _____    ______ ____
ROOT
ATOM      1  C   UNL     1       3.439   5.854  18.591  0.00  0.00    +0.000 C 
ENDROOT
BRANCH   1   2
ATOM      2  C   UNL     1       2.587   4.673  19.029  0.00  0.00    +0.000 A 
ATOM      3  C   UNL     1       1.950   3.865  18.075  0.00  0.00    +0.000 A 
ATOM      4  C   UNL     1       1.145   2.794  18.472  0.00  0.00    +0.000 A 
ATOM      5  C   UNL     1       0.972   2.512  19.825  0.00  0.00    +0.000 A 
ATOM      6  C   UNL     1       1.617   3.290  20.783  0.00  0.00    +0.000 A 
ATOM      7  C   UNL     1       2.423   4.360  20.390  0.00  0.00    +0.000 A 
ENDBRANCH   1   2
BRANCH   1   9
ATOM      8  N   UNL     1       2.119   7.326  20.098  0.00  0.00    +0.000 N 
ATOM      9  C   UNL     1       2.705   7.202  18.842  0.00  0.00    +0.000 C 
ATOM     10  O   UNL     1       2.647   8.042  17.945  0.00  0.00    +0.000 OA
ATOM     11  H   UNL     1       2.067   6.497  20.674  0.00  0.00    +0.000 HD
BRANCH   8  16
ATOM     12  C   UNL     1      -0.584  12.068  21.934  0.00  0.00    +0.000 C 
ATOM     13  C   UNL     1       0.081  10.820  21.426  0.00  0.00    +0.000 A 
ATOM     14  C   UNL     1       0.429   9.816  22.336  0.00  0.00    +0.000 A 
ATOM     15  C   UNL     1       1.082   8.655  21.909  0.00  0.00    +0.000 A 
ATOM     16  C   UNL     1       1.412   8.464  20.567  0.00  0.00    +0.000 A 
ATOM     17  C   UNL     1       1.026   9.442  19.644  0.00  0.00    +0.000 A 
ATOM     18  C   UNL     1       0.377  10.612  20.071  0.00  0.00    +0.000 A 
ATOM     19 CL   UNL     1      -0.031  11.796  18.878  0.00  0.00    +0.000 Cl
ENDBRANCH   8  16
ENDBRANCH   1   9
BRANCH   1  20
ATOM     20  O   UNL     1       4.660   5.801  19.351  0.00  0.00    +0.000 OA
BRANCH  20  21
ATOM     21  C   UNL     1       5.570   4.911  18.862  0.00  0.00    +0.000 C 
ATOM     22  O   UNL     1       5.782   3.821  19.386  0.00  0.00    +0.000 OA
BRANCH  21  23
ATOM     23  C   UNL     1       6.276   5.379  17.688  0.00  0.00    +0.000 A 
ATOM     24  C   UNL     1       6.068   5.018  16.322  0.00  0.00    +0.000 A 
ATOM     25  C   UNL     1       5.091   4.079  15.719  0.00  0.00    +0.000 C 
ATOM     26  N   UNL     1       6.923   5.656  15.512  0.00  0.00    +0.000 NA
ATOM     27  O   UNL     1       7.689   6.459  16.326  0.00  0.00    +0.000 OA
ATOM     28  C   UNL     1       7.304   6.299  17.620  0.00  0.00    +0.000 A 
ATOM     29  C   UNL     1       8.038   7.122  18.602  0.00  0.00    +0.000 C 
ENDBRANCH  21  23
ENDBRANCH  20  21
ENDBRANCH   1  20
TORSDOF 6
ENDMDL
MODEL 5
REMARK VINA RESULT:      -9.3      1.734      2.168
REMARK  Name = 
REMARK  9 active torsions:
REMARK  status: ('A' for Active; 'I' for Inactive)
REMARK    1  A    between atoms: C_1  and  C_2
REMARK    2  A    between atoms: C_5  and  N_6
REMARK    3  A    between atoms: C_7  and  C_9
REMARK    4  A    between atoms: C_9  and  O_10
REMARK    5  A    between atoms: C_9  and  C_20
REMARK    6  A    between atoms: O_10  and  C_11
REMARK    7  A    between atoms: C_11  and  C_13
REMARK    8  A    between atoms: C_14  and  C_15
REMARK    9  A    between atoms: C_18  and  C_19
REMARK                            x       y       z     vdW  Elec       q    Type
REMARK                         _______ _______ _______ _____ _____    ______ ____
ROOT
ATOM      1  C   UNL     1       3.155   5.880  18.342  0.00  0.00    +0.000 C 
ENDROOT
BRANCH   1   2
ATOM      2  C   UNL     1       3.214   4.363  18.433  0.00  0.00    +0.000 A 
ATOM      3  C   UNL     1       2.464   3.570  17.552  0.00  0.00    +0.000 A 
ATOM      4  C   UNL     1       2.493   2.176  17.648  0.00  0.00    +0.000 A 
ATOM      5  C   UNL     1       3.278   1.557  18.619  0.00  0.00    +0.000 A 
ATOM      6  C   UNL     1       4.047   2.331  19.484  0.00  0.00    +0.000 A 
ATOM      7  C   UNL     1       4.021   3.724  19.391  0.00  0.00    +0.000 A 
ENDBRANCH   1   2
BRANCH   1   9
ATOM      8  N   UNL     1       2.095   7.859  19.409  0.00  0.00    +0.000 N 
ATOM      9  C   UNL     1       2.245   6.477  19.452  0.00  0.00    +0.000 C 
ATOM     10  O   UNL     1       1.754   5.736  20.303  0.00  0.00    +0.000 OA
ATOM     11  H   UNL     1       2.701   8.376  18.786  0.00  0.00    +0.000 HD
BRANCH   8  16
ATOM     12  C   UNL     1      -1.015  11.168  22.950  0.00  0.00    +0.000 C 
ATOM     13  C   UNL     1      -0.247  10.286  22.007  0.00  0.00    +0.000 A 
ATOM     14  C   UNL     1       0.618   9.320  22.531  0.00  0.00    +0.000 A 
ATOM     15  C   UNL     1       1.379   8.503  21.688  0.00  0.00    +0.000 A 
ATOM     16  C   UNL     1       1.305   8.630  20.300  0.00  0.00    +0.000 A 
ATOM     17  C   UNL     1       0.408   9.562  19.767  0.00  0.00    +0.000 A 
ATOM     18  C   UNL     1      -0.352  10.388  20.613  0.00  0.00    +0.000 A 
ATOM     19 CL   UNL     1      -1.408  11.546  19.880  0.00  0.00    +0.000 Cl
ENDBRANCH   8  16
ENDBRANCH   1   9
BRANCH   1  20
ATOM     20  O   UNL     1       4.502   6.366  18.486  0.00  0.00    +0.000 OA
BRANCH  20  21
ATOM     21  C   UNL     1       5.149   6.543  17.298  0.00  0.00    +0.000 C 
ATOM     22  O   UNL     1       4.820   7.400  16.483  0.00  0.00    +0.000 OA
BRANCH  21  23
ATOM     23  C   UNL     1       6.240   5.617  17.081  0.00  0.00    +0.000 A 
ATOM     24  C   UNL     1       6.481   4.775  15.953  0.00  0.00    +0.000 A 
ATOM     25  C   UNL     1       5.703   4.607  14.702  0.00  0.00    +0.000 C 
ATOM     26  N   UNL     1       7.594   4.047  16.115  0.00  0.00    +0.000 NA
ATOM     27  O   UNL     1       8.111   4.413  17.337  0.00  0.00    +0.000 OA
ATOM     28  C   UNL     1       7.311   5.348  17.913  0.00  0.00    +0.000 A 
ATOM     29  C   UNL     1       7.764   5.843  19.227  0.00  0.00    +0.000 C 
ENDBRANCH  21  23
ENDBRANCH  20  21
ENDBRANCH   1  20
TORSDOF 6
ENDMDL
MODEL 6
REMARK VINA RESULT:      -9.3      2.025      2.742
REMARK  Name = 
REMARK  9 active torsions:
REMARK  status: ('A' for Active; 'I' for Inactive)
REMARK    1  A    between atoms: C_1  and  C_2
REMARK    2  A    between atoms: C_5  and  N_6
REMARK    3  A    between atoms: C_7  and  C_9
REMARK    4  A    between atoms: C_9  and  O_10
REMARK    5  A    between atoms: C_9  and  C_20
REMARK    6  A    between atoms: O_10  and  C_11
REMARK    7  A    between atoms: C_11  and  C_13
REMARK    8  A    between atoms: C_14  and  C_15
REMARK    9  A    between atoms: C_18  and  C_19
REMARK                            x       y       z     vdW  Elec       q    Type
REMARK                         _______ _______ _______ _____ _____    ______ ____
ROOT
ATOM      1  C   UNL     1       2.819   6.098  18.128  0.00  0.00    +0.000 C 
ENDROOT
BRANCH   1   2
ATOM      2  C   UNL     1       2.128   4.906  18.771  0.00  0.00    +0.000 A 
ATOM      3  C   UNL     1       2.001   4.828  20.166  0.00  0.00    +0.000 A 
ATOM      4  C   UNL     1       1.390   3.723  20.764  0.00  0.00    +0.000 A 
ATOM      5  C   UNL     1       0.891   2.687  19.978  0.00  0.00    +0.000 A 
ATOM      6  C   UNL     1       0.987   2.762  18.591  0.00  0.00    +0.000 A 
ATOM      7  C   UNL     1       1.597   3.865  17.989  0.00  0.00    +0.000 A 
ENDBRANCH   1   2
BRANCH   1   9
ATOM      8  N   UNL     1       1.914   8.390  17.799  0.00  0.00    +0.000 N 
ATOM      9  C   UNL     1       2.312   7.438  18.732  0.00  0.00    +0.000 C 
ATOM     10  O   UNL     1       2.323   7.601  19.952  0.00  0.00    +0.000 OA
ATOM     11  H   UNL     1       2.133   8.213  16.828  0.00  0.00    +0.000 HD
BRANCH   8  16
ATOM     12  C   UNL     1      -0.279  13.611  18.846  0.00  0.00    +0.000 C 
ATOM     13  C   UNL     1       0.274  12.232  18.617  0.00  0.00    +0.000 A 
ATOM     14  C   UNL     1       1.658  12.062  18.515  0.00  0.00    +0.000 A 
ATOM     15  C   UNL     1       2.211  10.801  18.265  0.00  0.00    +0.000 A 
ATOM     16  C   UNL     1       1.400   9.677  18.104  0.00  0.00    +0.000 A 
ATOM     17  C   UNL     1       0.017   9.831  18.251  0.00  0.00    +0.000 A 
ATOM     18  C   UNL     1      -0.540  11.097  18.494  0.00  0.00    +0.000 A 
ATOM     19 CL   UNL     1      -2.261  11.215  18.621  0.00  0.00    +0.000 Cl
ENDBRANCH   8  16
ENDBRANCH   1   9
BRANCH   1  20
ATOM     20  O   UNL     1       4.231   5.948  18.363  0.00  0.00    +0.000 OA
BRANCH  20  21
ATOM     21  C   UNL     1       5.001   6.246  17.278  0.00  0.00    +0.000 C 
ATOM     22  O   UNL     1       4.710   7.131  16.478  0.00  0.00    +0.000 OA
BRANCH  21  23
ATOM     23  C   UNL     1       6.175   5.409  17.144  0.00  0.00    +0.000 A 
ATOM     24  C   UNL     1       7.205   5.162  18.101  0.00  0.00    +0.000 A 
ATOM     25  C   UNL     1       7.372   5.678  19.481  0.00  0.00    +0.000 C 
ATOM     26  N   UNL     1       8.137   4.333  17.613  0.00  0.00    +0.000 NA
ATOM     27  O   UNL     1       7.725   4.006  16.342  0.00  0.00    +0.000 OA
ATOM     28  C   UNL     1       6.557   4.641  16.060  0.00  0.00    +0.000 A 
ATOM     29  C   UNL     1       5.993   4.361  14.726  0.00  0.00    +0.000 C 
ENDBRANCH  21  23
ENDBRANCH  20  21
ENDBRANCH   1  20
TORSDOF 6
ENDMDL
MODEL 7
REMARK VINA RESULT:      -9.2      1.897      2.009
REMARK  Name = 
REMARK  9 active torsions:
REMARK  status: ('A' for Active; 'I' for Inactive)
REMARK    1  A    between atoms: C_1  and  C_2
REMARK    2  A    between atoms: C_5  and  N_6
REMARK    3  A    between atoms: C_7  and  C_9
REMARK    4  A    between atoms: C_9  and  O_10
REMARK    5  A    between atoms: C_9  and  C_20
REMARK    6  A    between atoms: O_10  and  C_11
REMARK    7  A    between atoms: C_11  and  C_13
REMARK    8  A    between atoms: C_14  and  C_15
REMARK    9  A    between atoms: C_18  and  C_19
REMARK                            x       y       z     vdW  Elec       q    Type
REMARK                         _______ _______ _______ _____ _____    ______ ____
ROOT
ATOM      1  C   UNL     1       3.218   6.076  18.620  0.00  0.00    +0.000 C 
ENDROOT
BRANCH   1   2
ATOM      2  C   UNL     1       2.390   4.850  18.972  0.00  0.00    +0.000 A 
ATOM      3  C   UNL     1       1.971   3.965  17.967  0.00  0.00    +0.000 A 
ATOM      4  C   UNL     1       1.187   2.851  18.281  0.00  0.00    +0.000 A 
ATOM      5  C   UNL     1       0.820   2.603  19.602  0.00  0.00    +0.000 A 
ATOM      6  C   UNL     1       1.250   3.458  20.613  0.00  0.00    +0.000 A 
ATOM      7  C   UNL     1       2.033   4.572  20.303  0.00  0.00    +0.000 A 
ENDBRANCH   1   2
BRANCH   1   9
ATOM      8  N   UNL     1       2.185   8.246  17.988  0.00  0.00    +0.000 N 
ATOM      9  C   UNL     1       2.492   7.386  19.037  0.00  0.00    +0.000 C 
ATOM     10  O   UNL     1       2.268   7.608  20.227  0.00  0.00    +0.000 OA
ATOM     11  H   UNL     1       2.591   8.046  17.084  0.00  0.00    +0.000 HD
BRANCH   8  16
ATOM     12  C   UNL     1      -0.453  13.317  18.692  0.00  0.00    +0.000 C 
ATOM     13  C   UNL     1       0.255  12.011  18.465  0.00  0.00    +0.000 A 
ATOM     14  C   UNL     1      -0.501  10.843  18.323  0.00  0.00    +0.000 A 
ATOM     15  C   UNL     1       0.121   9.602  18.147  0.00  0.00    +0.000 A 
ATOM     16  C   UNL     1       1.512   9.489  18.113  0.00  0.00    +0.000 A 
ATOM     17  C   UNL     1       2.273  10.659  18.207  0.00  0.00    +0.000 A 
ATOM     18  C   UNL     1       1.651  11.905  18.392  0.00  0.00    +0.000 A 
ATOM     19 CL   UNL     1       2.661  13.302  18.543  0.00  0.00    +0.000 Cl
ENDBRANCH   8  16
ENDBRANCH   1   9
BRANCH   1  20
ATOM     20  O   UNL     1       4.471   5.956  19.318  0.00  0.00    +0.000 OA
BRANCH  20  21
ATOM     21  C   UNL     1       5.297   5.002  18.800  0.00  0.00    +0.000 C 
ATOM     22  O   UNL     1       5.409   3.882  19.289  0.00  0.00    +0.000 OA
BRANCH  21  23
ATOM     23  C   UNL     1       6.043   5.440  17.638  0.00  0.00    +0.000 A 
ATOM     24  C   UNL     1       5.806   5.138  16.263  0.00  0.00    +0.000 A 
ATOM     25  C   UNL     1       4.751   4.305  15.635  0.00  0.00    +0.000 C 
ATOM     26  N   UNL     1       6.714   5.722  15.471  0.00  0.00    +0.000 NA
ATOM     27  O   UNL     1       7.546   6.431  16.307  0.00  0.00    +0.000 OA
ATOM     28  C   UNL     1       7.147   6.269  17.596  0.00  0.00    +0.000 A 
ATOM     29  C   UNL     1       7.948   6.997  18.600  0.00  0.00    +0.000 C 
ENDBRANCH  21  23
ENDBRANCH  20  21
ENDBRANCH   1  20
TORSDOF 6
ENDMDL
MODEL 8
REMARK VINA RESULT:      -9.2      1.069      2.043
REMARK  Name = 
REMARK  9 active torsions:
REMARK  status: ('A' for Active; 'I' for Inactive)
REMARK    1  A    between atoms: C_1  and  C_2
REMARK    2  A    between atoms: C_5  and  N_6
REMARK    3  A    between atoms: C_7  and  C_9
REMARK    4  A    between atoms: C_9  and  O_10
REMARK    5  A    between atoms: C_9  and  C_20
REMARK    6  A    between atoms: O_10  and  C_11
REMARK    7  A    between atoms: C_11  and  C_13
REMARK    8  A    between atoms: C_14  and  C_15
REMARK    9  A    between atoms: C_18  and  C_19
REMARK                            x       y       z     vdW  Elec       q    Type
REMARK                         _______ _______ _______ _____ _____    ______ ____
ROOT
ATOM      1  C   UNL     1       3.327   5.858  18.590  0.00  0.00    +0.000 C 
ENDROOT
BRANCH   1   2
ATOM      2  C   UNL     1       2.493   4.669  19.043  0.00  0.00    +0.000 A 
ATOM      3  C   UNL     1       1.886   3.828  18.098  0.00  0.00    +0.000 A 
ATOM      4  C   UNL     1       1.097   2.750  18.507  0.00  0.00    +0.000 A 
ATOM      5  C   UNL     1       0.912   2.493  19.864  0.00  0.00    +0.000 A 
ATOM      6  C   UNL     1       1.529   3.304  20.813  0.00  0.00    +0.000 A 
ATOM      7  C   UNL     1       2.319   4.382  20.408  0.00  0.00    +0.000 A 
ENDBRANCH   1   2
BRANCH   1   9
ATOM      8  N   UNL     1       2.079   7.362  20.125  0.00  0.00    +0.000 N 
ATOM      9  C   UNL     1       2.579   7.198  18.838  0.00  0.00    +0.000 C 
ATOM     10  O   UNL     1       2.437   7.998  17.913  0.00  0.00    +0.000 OA
ATOM     11  H   UNL     1       2.088   6.557  20.737  0.00  0.00    +0.000 HD
BRANCH   8  16
ATOM     12  C   UNL     1      -0.598  12.112  21.979  0.00  0.00    +0.000 C 
ATOM     13  C   UNL     1       0.061  10.862  21.465  0.00  0.00    +0.000 A 
ATOM     14  C   UNL     1       0.368   9.836  22.365  0.00  0.00    +0.000 A 
ATOM     15  C   UNL     1       1.014   8.673  21.934  0.00  0.00    +0.000 A 
ATOM     16  C   UNL     1       1.377   8.502  20.597  0.00  0.00    +0.000 A 
ATOM     17  C   UNL     1       1.032   9.503  19.683  0.00  0.00    +0.000 A 
ATOM     18  C   UNL     1       0.390  10.676  20.115  0.00  0.00    +0.000 A 
ATOM     19 CL   UNL     1       0.033  11.888  18.934  0.00  0.00    +0.000 Cl
ENDBRANCH   8  16
ENDBRANCH   1   9
BRANCH   1  20
ATOM     20  O   UNL     1       4.555   5.825  19.341  0.00  0.00    +0.000 OA
BRANCH  20  21
ATOM     21  C   UNL     1       5.470   4.938  18.855  0.00  0.00    +0.000 C 
ATOM     22  O   UNL     1       5.704   3.861  19.395  0.00  0.00    +0.000 OA
BRANCH  21  23
ATOM     23  C   UNL     1       6.152   5.394  17.662  0.00  0.00    +0.000 A 
ATOM     24  C   UNL     1       7.254   6.294  17.556  0.00  0.00    +0.000 A 
ATOM     25  C   UNL     1       8.008   7.012  18.614  0.00  0.00    +0.000 C 
ATOM     26  N   UNL     1       7.612   6.482  16.279  0.00  0.00    +0.000 NA
ATOM     27  O   UNL     1       6.768   5.695  15.530  0.00  0.00    +0.000 OA
ATOM     28  C   UNL     1       5.901   5.044  16.349  0.00  0.00    +0.000 A 
ATOM     29  C   UNL     1       4.946   4.146  15.669  0.00  0.00    +0.000 C 
ENDBRANCH  21  23
ENDBRANCH  20  21
ENDBRANCH   1  20
TORSDOF 6
ENDMDL
MODEL 9
REMARK VINA RESULT:      -9.2      1.936      2.696
REMARK  Name = 
REMARK  9 active torsions:
REMARK  status: ('A' for Active; 'I' for Inactive)
REMARK    1  A    between atoms: C_1  and  C_2
REMARK    2  A    between atoms: C_5  and  N_6
REMARK    3  A    between atoms: C_7  and  C_9
REMARK    4  A    between atoms: C_9  and  O_10
REMARK    5  A    between atoms: C_9  and  C_20
REMARK    6  A    between atoms: O_10  and  C_11
REMARK    7  A    between atoms: C_11  and  C_13
REMARK    8  A    between atoms: C_14  and  C_15
REMARK    9  A    between atoms: C_18  and  C_19
REMARK                            x       y       z     vdW  Elec       q    Type
REMARK                         _______ _______ _______ _____ _____    ______ ____
ROOT
ATOM      1  C   UNL     1       3.179   6.109  18.644  0.00  0.00    +0.000 C 
ENDROOT
BRANCH   1   2
ATOM      2  C   UNL     1       2.339   4.888  18.988  0.00  0.00    +0.000 A 
ATOM      3  C   UNL     1       1.977   4.629  20.318  0.00  0.00    +0.000 A 
ATOM      4  C   UNL     1       1.228   3.495  20.644  0.00  0.00    +0.000 A 
ATOM      5  C   UNL     1       0.826   2.611  19.645  0.00  0.00    +0.000 A 
ATOM      6  C   UNL     1       1.156   2.869  18.317  0.00  0.00    +0.000 A 
ATOM      7  C   UNL     1       1.903   4.001  17.988  0.00  0.00    +0.000 A 
ENDBRANCH   1   2
BRANCH   1   9
ATOM      8  N   UNL     1       2.184   8.301  18.022  0.00  0.00    +0.000 N 
ATOM      9  C   UNL     1       2.462   7.423  19.065  0.00  0.00    +0.000 C 
ATOM     10  O   UNL     1       2.220   7.633  20.254  0.00  0.00    +0.000 OA
ATOM     11  H   UNL     1       2.603   8.107  17.123  0.00  0.00    +0.000 HD
BRANCH   8  16
ATOM     12  C   UNL     1      -0.390  13.402  18.739  0.00  0.00    +0.000 C 
ATOM     13  C   UNL     1       0.300  12.087  18.508  0.00  0.00    +0.000 A 
ATOM     14  C   UNL     1      -0.469  10.922  18.423  0.00  0.00    +0.000 A 
ATOM     15  C   UNL     1       0.137   9.673  18.244  0.00  0.00    +0.000 A 
ATOM     16  C   UNL     1       1.524   9.550  18.152  0.00  0.00    +0.000 A 
ATOM     17  C   UNL     1       2.296  10.717  18.189  0.00  0.00    +0.000 A 
ATOM     18  C   UNL     1       1.691  11.971  18.376  0.00  0.00    +0.000 A 
ATOM     19 CL   UNL     1       2.714  13.363  18.455  0.00  0.00    +0.000 Cl
ENDBRANCH   8  16
ENDBRANCH   1   9
BRANCH   1  20
ATOM     20  O   UNL     1       4.429   5.976  19.345  0.00  0.00    +0.000 OA
BRANCH  20  21
ATOM     21  C   UNL     1       5.250   5.021  18.821  0.00  0.00    +0.000 C 
ATOM     22  O   UNL     1       5.376   3.907  19.320  0.00  0.00    +0.000 OA
BRANCH  21  23
ATOM     23  C   UNL     1       5.973   5.451  17.643  0.00  0.00    +0.000 A 
ATOM     24  C   UNL     1       7.137   6.274  17.564  0.00  0.00    +0.000 A 
ATOM     25  C   UNL     1       7.930   6.915  18.641  0.00  0.00    +0.000 C 
ATOM     26  N   UNL     1       7.518   6.462  16.294  0.00  0.00    +0.000 NA
ATOM     27  O   UNL     1       6.627   5.752  15.522  0.00  0.00    +0.000 OA
ATOM     28  C   UNL     1       5.709   5.147  16.321  0.00  0.00    +0.000 A 
ATOM     29  C   UNL     1       4.699   4.332  15.616  0.00  0.00    +0.000 C 
ENDBRANCH  21  23
ENDBRANCH  20  21
ENDBRANCH   1  20
TORSDOF 6
ENDMDL
