MODEL 1
REMARK VINA RESULT:      -9.4      0.000      0.000
REMARK  Name = 
REMARK  5 active torsions:
REMARK  status: ('A' for Active; 'I' for Inactive)
REMARK    1  A    between atoms: C_2  and  C_4
REMARK    2  A    between atoms: C_9  and  C_10
REMARK    3  A    between atoms: C_12  and  C_13
REMARK    4  A    between atoms: C_16  and  O_17
REMARK    5  A    between atoms: O_17  and  C_18
REMARK                            x       y       z     vdW  Elec       q    Type
REMARK                         _______ _______ _______ _____ _____    ______ ____
ROOT
ATOM      1  C   UNL     1       4.370   5.453  17.198  0.00  0.00    +0.000 A 
ATOM      2  N   UNL     1       3.806   6.639  17.362  0.00  0.00    +0.000 NA
ATOM      3  C   UNL     1       2.915   6.529  18.406  0.00  0.00    +0.000 A 
ATOM      4  C   UNL     1       2.856   5.217  18.845  0.00  0.00    +0.000 A 
ATOM      5  C   UNL     1       2.092   4.462  19.818  0.00  0.00    +0.000 A 
ATOM      6  N   UNL     1       1.065   4.959  20.566  0.00  0.00    +0.000 N 
ATOM      7  N   UNL     1       2.344   3.190  20.018  0.00  0.00    +0.000 NA
ATOM      8  C   UNL     1       3.311   2.574  19.265  0.00  0.00    +0.000 A 
ATOM      9  C   UNL     1       4.018   3.194  18.308  0.00  0.00    +0.000 A 
ATOM     10  N   UNL     1       3.809   4.546  18.094  0.00  0.00    +0.000 N 
ATOM     11  H   UNL     1       0.481   5.653  20.112  0.00  0.00    +0.000 HD
ATOM     12  H   UNL     1       0.533   4.217  21.004  0.00  0.00    +0.000 HD
ENDROOT
BRANCH   1  18
ATOM     13  C   UNL     1       6.714   5.545  16.221  0.00  0.00    +0.000 A 
ATOM     14  C   UNL     1       7.599   5.184  15.182  0.00  0.00    +0.000 A 
ATOM     15  C   UNL     1       7.160   4.471  14.068  0.00  0.00    +0.000 A 
ATOM     16  C   UNL     1       5.840   4.060  13.998  0.00  0.00    +0.000 A 
ATOM     17  C   UNL     1       4.967   4.354  15.047  0.00  0.00    +0.000 A 
ATOM     18  C   UNL     1       5.361   5.140  16.150  0.00  0.00    +0.000 A 
BRANCH  13  20
ATOM     19  N   UNL     1       7.592   7.690  17.069  0.00  0.00    +0.000 N 
ATOM     20  C   UNL     1       7.348   6.366  17.299  0.00  0.00    +0.000 C 
ATOM     21  O   UNL     1       7.728   5.851  18.343  0.00  0.00    +0.000 OA
ATOM     22  H   UNL     1       7.886   8.199  17.892  0.00  0.00    +0.000 HD
ATOM     23  H   UNL     1       6.975   8.204  16.456  0.00  0.00    +0.000 HD
ENDBRANCH  13  20
ENDBRANCH   1  18
BRANCH   3  24
ATOM     24  C   UNL     1       2.154   7.673  18.882  0.00  0.00    +0.000 A 
ATOM     25  C   UNL     1       1.705   8.659  17.992  0.00  0.00    +0.000 A 
ATOM     26  C   UNL     1       0.918   9.725  18.450  0.00  0.00    +0.000 A 
ATOM     27  C   UNL     1       0.560   9.806  19.797  0.00  0.00    +0.000 A 
ATOM     28  C   UNL     1       1.082   8.883  20.699  0.00  0.00    +0.000 A 
ATOM     29  C   UNL     1       1.884   7.836  20.245  0.00  0.00    +0.000 A 
BRANCH  27  30
ATOM     30  O   UNL     1      -0.251  10.859  20.157  0.00  0.00    +0.000 OA
BRANCH  30  31
ATOM     31  C   UNL     1       0.173  12.153  19.939  0.00  0.00    +0.000 A 
ATOM     32  C   UNL     1      -0.585  12.905  19.038  0.00  0.00    +0.000 A 
ATOM     33  C   UNL     1      -0.234  14.227  18.759  0.00  0.00    +0.000 A 
ATOM     34  C   UNL     1       0.875  14.801  19.380  0.00  0.00    +0.000 A 
ATOM     35  C   UNL     1       1.618  14.063  20.300  0.00  0.00    +0.000 A 
ATOM     36  C   UNL     1       1.250  12.751  20.600  0.00  0.00    +0.000 A 
ENDBRANCH  30  31
ENDBRANCH  27  30
ENDBRANCH   3  24
TORSDOF 5
ENDMDL
MODEL 2
REMARK VINA RESULT:      -9.4      1.582      2.156
REMARK  Name = 
REMARK  5 active torsions:
REMARK  status: ('A' for Active; 'I' for Inactive)
REMARK    1  A    between atoms: C_2  and  C_4
REMARK    2  A    between atoms: C_9  and  C_10
REMARK    3  A    between atoms: C_12  and  C_13
REMARK    4  A    between atoms: C_16  and  O_17
REMARK    5  A    between atoms: O_17  and  C_18
REMARK                            x       y       z     vdW  Elec       q    Type
REMARK                         _______ _______ _______ _____ _____    ______ ____
ROOT
ATOM      1  C   UNL     1       4.448   5.566  17.254  0.00  0.00    +0.000 A 
ATOM      2  N   UNL     1       3.815   6.727  17.310  0.00  0.00    +0.000 NA
ATOM      3  C   UNL     1       2.978   6.686  18.402  0.00  0.00    +0.000 A 
ATOM      4  C   UNL     1       3.025   5.433  18.990  0.00  0.00    +0.000 A 
ATOM      5  C   UNL     1       2.354   4.751  20.080  0.00  0.00    +0.000 A 
ATOM      6  N   UNL     1       1.329   5.269  20.816  0.00  0.00    +0.000 N 
ATOM      7  N   UNL     1       2.698   3.529  20.411  0.00  0.00    +0.000 NA
ATOM      8  C   UNL     1       3.671   2.890  19.687  0.00  0.00    +0.000 A 
ATOM      9  C   UNL     1       4.294   3.435  18.631  0.00  0.00    +0.000 A 
ATOM     10  N   UNL     1       3.988   4.738  18.275  0.00  0.00    +0.000 N 
ATOM     11  H   UNL     1       0.681   5.868  20.316  0.00  0.00    +0.000 HD
ATOM     12  H   UNL     1       0.866   4.552  21.362  0.00  0.00    +0.000 HD
ENDROOT
BRANCH   1  18
ATOM     13  C   UNL     1       6.771   5.590  16.222  0.00  0.00    +0.000 A 
ATOM     14  C   UNL     1       7.630   5.171  15.183  0.00  0.00    +0.000 A 
ATOM     15  C   UNL     1       7.160   4.408  14.115  0.00  0.00    +0.000 A 
ATOM     16  C   UNL     1       5.836   4.005  14.095  0.00  0.00    +0.000 A 
ATOM     17  C   UNL     1       4.989   4.358  15.147  0.00  0.00    +0.000 A 
ATOM     18  C   UNL     1       5.413   5.194  16.201  0.00  0.00    +0.000 A 
BRANCH  13  20
ATOM     19  N   UNL     1       7.763   5.921  18.458  0.00  0.00    +0.000 N 
ATOM     20  C   UNL     1       7.435   6.457  17.245  0.00  0.00    +0.000 C 
ATOM     21  O   UNL     1       7.609   7.652  17.042  0.00  0.00    +0.000 OA
ATOM     22  H   UNL     1       8.333   6.529  19.031  0.00  0.00    +0.000 HD
ATOM     23  H   UNL     1       8.005   4.942  18.514  0.00  0.00    +0.000 HD
ENDBRANCH  13  20
ENDBRANCH   1  18
BRANCH   3  24
ATOM     24  C   UNL     1       2.163   7.829  18.782  0.00  0.00    +0.000 A 
ATOM     25  C   UNL     1       1.768   8.778  17.829  0.00  0.00    +0.000 A 
ATOM     26  C   UNL     1       0.930   9.842  18.191  0.00  0.00    +0.000 A 
ATOM     27  C   UNL     1       0.467   9.958  19.503  0.00  0.00    +0.000 A 
ATOM     28  C   UNL     1       0.934   9.072  20.471  0.00  0.00    +0.000 A 
ATOM     29  C   UNL     1       1.786   8.027  20.114  0.00  0.00    +0.000 A 
BRANCH  27  30
ATOM     30  O   UNL     1      -0.387  11.006  19.766  0.00  0.00    +0.000 OA
BRANCH  30  31
ATOM     31  C   UNL     1      -1.634  11.033  19.179  0.00  0.00    +0.000 A 
ATOM     32  C   UNL     1      -2.489  12.054  19.598  0.00  0.00    +0.000 A 
ATOM     33  C   UNL     1      -3.770  12.165  19.053  0.00  0.00    +0.000 A 
ATOM     34  C   UNL     1      -4.199  11.254  18.088  0.00  0.00    +0.000 A 
ATOM     35  C   UNL     1      -3.339  10.250  17.647  0.00  0.00    +0.000 A 
ATOM     36  C   UNL     1      -2.049  10.157  18.170  0.00  0.00    +0.000 A 
ENDBRANCH  30  31
ENDBRANCH  27  30
ENDBRANCH   3  24
TORSDOF 5
ENDMDL
MODEL 3
REMARK VINA RESULT:      -9.4      0.255      1.224
REMARK  Name = 
REMARK  5 active torsions:
REMARK  status: ('A' for Active; 'I' for Inactive)
REMARK    1  A    between atoms: C_2  and  C_4
REMARK    2  A    between atoms: C_9  and  C_10
REMARK    3  A    between atoms: C_12  and  C_13
REMARK    4  A    between atoms: C_16  and  O_17
REMARK    5  A    between atoms: O_17  and  C_18
REMARK                            x       y       z     vdW  Elec       q    Type
REMARK                         _______ _______ _______ _____ _____    ______ ____
ROOT
ATOM      1  C   UNL     1       4.402   5.523  17.283  0.00  0.00    +0.000 A 
ATOM      2  N   UNL     1       3.784   6.686  17.406  0.00  0.00    +0.000 NA
ATOM      3  C   UNL     1       2.920   6.582  18.473  0.00  0.00    +0.000 A 
ATOM      4  C   UNL     1       2.936   5.291  18.973  0.00  0.00    +0.000 A 
ATOM      5  C   UNL     1       2.229   4.546  19.996  0.00  0.00    +0.000 A 
ATOM      6  N   UNL     1       1.194   5.026  20.744  0.00  0.00    +0.000 N 
ATOM      7  N   UNL     1       2.548   3.298  20.249  0.00  0.00    +0.000 NA
ATOM      8  C   UNL     1       3.529   2.696  19.504  0.00  0.00    +0.000 A 
ATOM      9  C   UNL     1       4.186   3.304  18.504  0.00  0.00    +0.000 A 
ATOM     10  N   UNL     1       3.906   4.633  18.233  0.00  0.00    +0.000 N 
ATOM     11  H   UNL     1       0.567   5.669  20.271  0.00  0.00    +0.000 HD
ATOM     12  H   UNL     1       0.708   4.280  21.227  0.00  0.00    +0.000 HD
ENDROOT
BRANCH   1  18
ATOM     13  C   UNL     1       6.741   5.613  16.293  0.00  0.00    +0.000 A 
ATOM     14  C   UNL     1       7.620   5.251  15.249  0.00  0.00    +0.000 A 
ATOM     15  C   UNL     1       7.173   4.541  14.136  0.00  0.00    +0.000 A 
ATOM     16  C   UNL     1       5.852   4.131  14.073  0.00  0.00    +0.000 A 
ATOM     17  C   UNL     1       4.986   4.425  15.128  0.00  0.00    +0.000 A 
ATOM     18  C   UNL     1       5.387   5.209  16.229  0.00  0.00    +0.000 A 
BRANCH  13  20
ATOM     19  N   UNL     1       7.619   7.758  17.142  0.00  0.00    +0.000 N 
ATOM     20  C   UNL     1       7.383   6.431  17.369  0.00  0.00    +0.000 C 
ATOM     21  O   UNL     1       7.775   5.914  18.406  0.00  0.00    +0.000 OA
ATOM     22  H   UNL     1       7.919   8.264  17.964  0.00  0.00    +0.000 HD
ATOM     23  H   UNL     1       6.994   8.272  16.536  0.00  0.00    +0.000 HD
ENDBRANCH  13  20
ENDBRANCH   1  18
BRANCH   3  24
ATOM     24  C   UNL     1       2.113   7.708  18.913  0.00  0.00    +0.000 A 
ATOM     25  C   UNL     1       1.828   7.901  20.273  0.00  0.00    +0.000 A 
ATOM     26  C   UNL     1       1.103   9.024  20.695  0.00  0.00    +0.000 A 
ATOM     27  C   UNL     1       0.671   9.973  19.765  0.00  0.00    +0.000 A 
ATOM     28  C   UNL     1       0.871   9.736  18.407  0.00  0.00    +0.000 A 
ATOM     29  C   UNL     1       1.572   8.607  17.987  0.00  0.00    +0.000 A 
BRANCH  27  30
ATOM     30  O   UNL     1       0.005  11.069  20.265  0.00  0.00    +0.000 OA
BRANCH  30  31
ATOM     31  C   UNL     1       0.359  12.333  19.846  0.00  0.00    +0.000 A 
ATOM     32  C   UNL     1       1.639  12.763  20.202  0.00  0.00    +0.000 A 
ATOM     33  C   UNL     1       2.087  14.028  19.815  0.00  0.00    +0.000 A 
ATOM     34  C   UNL     1       1.257  14.865  19.071  0.00  0.00    +0.000 A 
ATOM     35  C   UNL     1      -0.011  14.429  18.690  0.00  0.00    +0.000 A 
ATOM     36  C   UNL     1      -0.448  13.155  19.052  0.00  0.00    +0.000 A 
ENDBRANCH  30  31
ENDBRANCH  27  30
ENDBRANCH   3  24
TORSDOF 5
ENDMDL
MODEL 4
REMARK VINA RESULT:      -9.3      1.473      2.089
REMARK  Name = 
REMARK  5 active torsions:
REMARK  status: ('A' for Active; 'I' for Inactive)
REMARK    1  A    between atoms: C_2  and  C_4
REMARK    2  A    between atoms: C_9  and  C_10
REMARK    3  A    between atoms: C_12  and  C_13
REMARK    4  A    between atoms: C_16  and  O_17
REMARK    5  A    between atoms: O_17  and  C_18
REMARK                            x       y       z     vdW  Elec       q    Type
REMARK                         _______ _______ _______ _____ _____    ______ ____
ROOT
ATOM      1  C   UNL     1       4.410   5.628  17.317  0.00  0.00    +0.000 A 
ATOM      2  N   UNL     1       3.794   6.798  17.363  0.00  0.00    +0.000 NA
ATOM      3  C   UNL     1       2.937   6.769  18.440  0.00  0.00    +0.000 A 
ATOM      4  C   UNL     1       2.955   5.516  19.028  0.00  0.00    +0.000 A 
ATOM      5  C   UNL     1       2.255   4.845  20.106  0.00  0.00    +0.000 A 
ATOM      6  N   UNL     1       1.226   5.377  20.825  0.00  0.00    +0.000 N 
ATOM      7  N   UNL     1       2.575   3.617  20.443  0.00  0.00    +0.000 NA
ATOM      8  C   UNL     1       3.551   2.964  19.735  0.00  0.00    +0.000 A 
ATOM      9  C   UNL     1       4.201   3.500  18.691  0.00  0.00    +0.000 A 
ATOM     10  N   UNL     1       3.920   4.807  18.330  0.00  0.00    +0.000 N 
ATOM     11  H   UNL     1       0.596   5.986  20.313  0.00  0.00    +0.000 HD
ATOM     12  H   UNL     1       0.742   4.667  21.362  0.00  0.00    +0.000 HD
ENDROOT
BRANCH   1  18
ATOM     13  C   UNL     1       6.756   5.594  16.339  0.00  0.00    +0.000 A 
ATOM     14  C   UNL     1       7.625   5.164  15.314  0.00  0.00    +0.000 A 
ATOM     15  C   UNL     1       7.158   4.432  14.224  0.00  0.00    +0.000 A 
ATOM     16  C   UNL     1       5.822   4.071  14.167  0.00  0.00    +0.000 A 
ATOM     17  C   UNL     1       4.962   4.434  15.205  0.00  0.00    +0.000 A 
ATOM     18  C   UNL     1       5.387   5.241  16.281  0.00  0.00    +0.000 A 
BRANCH  13  20
ATOM     19  N   UNL     1       7.678   7.743  17.132  0.00  0.00    +0.000 N 
ATOM     20  C   UNL     1       7.423   6.425  17.390  0.00  0.00    +0.000 C 
ATOM     21  O   UNL     1       7.819   5.924  18.434  0.00  0.00    +0.000 OA
ATOM     22  H   UNL     1       7.996   8.261  17.940  0.00  0.00    +0.000 HD
ATOM     23  H   UNL     1       7.054   8.254  16.523  0.00  0.00    +0.000 HD
ENDBRANCH  13  20
ENDBRANCH   1  18
BRANCH   3  24
ATOM     24  C   UNL     1       2.134   7.924  18.806  0.00  0.00    +0.000 A 
ATOM     25  C   UNL     1       1.790   8.893  17.852  0.00  0.00    +0.000 A 
ATOM     26  C   UNL     1       0.962   9.970  18.198  0.00  0.00    +0.000 A 
ATOM     27  C   UNL     1       0.457  10.080  19.495  0.00  0.00    +0.000 A 
ATOM     28  C   UNL     1       0.873   9.174  20.468  0.00  0.00    +0.000 A 
ATOM     29  C   UNL     1       1.715   8.116  20.127  0.00  0.00    +0.000 A 
BRANCH  27  30
ATOM     30  O   UNL     1      -0.384  11.142  19.742  0.00  0.00    +0.000 OA
BRANCH  30  31
ATOM     31  C   UNL     1      -1.640  11.163  19.174  0.00  0.00    +0.000 A 
ATOM     32  C   UNL     1      -1.912  10.157  18.245  0.00  0.00    +0.000 A 
ATOM     33  C   UNL     1      -3.161  10.096  17.623  0.00  0.00    +0.000 A 
ATOM     34  C   UNL     1      -4.141  11.040  17.929  0.00  0.00    +0.000 A 
ATOM     35  C   UNL     1      -3.882  12.030  18.875  0.00  0.00    +0.000 A 
ATOM     36  C   UNL     1      -2.644  12.075  19.518  0.00  0.00    +0.000 A 
ENDBRANCH  30  31
ENDBRANCH  27  30
ENDBRANCH   3  24
TORSDOF 5
ENDMDL
MODEL 5
REMARK VINA RESULT:      -9.3      0.624      1.055
REMARK  Name = 
REMARK  5 active torsions:
REMARK  status: ('A' for Active; 'I' for Inactive)
REMARK    1  A    between atoms: C_2  and  C_4
REMARK    2  A    between atoms: C_9  and  C_10
REMARK    3  A    between atoms: C_12  and  C_13
REMARK    4  A    between atoms: C_16  and  O_17
REMARK    5  A    between atoms: O_17  and  C_18
REMARK                            x       y       z     vdW  Elec       q    Type
REMARK                         _______ _______ _______ _____ _____    ______ ____
ROOT
ATOM      1  C   UNL     1       4.416   5.552  17.263  0.00  0.00    +0.000 A 
ATOM      2  N   UNL     1       3.793   6.714  17.373  0.00  0.00    +0.000 NA
ATOM      3  C   UNL     1       2.945   6.625  18.453  0.00  0.00    +0.000 A 
ATOM      4  C   UNL     1       2.974   5.343  18.976  0.00  0.00    +0.000 A 
ATOM      5  C   UNL     1       2.286   4.613  20.022  0.00  0.00    +0.000 A 
ATOM      6  N   UNL     1       1.258   5.101  20.775  0.00  0.00    +0.000 N 
ATOM      7  N   UNL     1       2.614   3.371  20.293  0.00  0.00    +0.000 NA
ATOM      8  C   UNL     1       3.589   2.761  19.545  0.00  0.00    +0.000 A 
ATOM      9  C   UNL     1       4.228   3.354  18.526  0.00  0.00    +0.000 A 
ATOM     10  N   UNL     1       3.938   4.677  18.235  0.00  0.00    +0.000 N 
ATOM     11  H   UNL     1       0.621   5.732  20.300  0.00  0.00    +0.000 HD
ATOM     12  H   UNL     1       0.783   4.362  21.278  0.00  0.00    +0.000 HD
ENDROOT
BRANCH   1  18
ATOM     13  C   UNL     1       6.736   5.652  16.229  0.00  0.00    +0.000 A 
ATOM     14  C   UNL     1       7.603   5.276  15.181  0.00  0.00    +0.000 A 
ATOM     15  C   UNL     1       7.150   4.526  14.097  0.00  0.00    +0.000 A 
ATOM     16  C   UNL     1       5.835   4.092  14.069  0.00  0.00    +0.000 A 
ATOM     17  C   UNL     1       4.982   4.402  15.130  0.00  0.00    +0.000 A 
ATOM     18  C   UNL     1       5.388   5.225  16.201  0.00  0.00    +0.000 A 
BRANCH  13  20
ATOM     19  N   UNL     1       7.708   5.963  18.477  0.00  0.00    +0.000 N 
ATOM     20  C   UNL     1       7.381   6.513  17.270  0.00  0.00    +0.000 C 
ATOM     21  O   UNL     1       7.540   7.712  17.086  0.00  0.00    +0.000 OA
ATOM     22  H   UNL     1       8.266   6.570  19.063  0.00  0.00    +0.000 HD
ATOM     23  H   UNL     1       7.964   4.986  18.519  0.00  0.00    +0.000 HD
ENDBRANCH  13  20
ENDBRANCH   1  18
BRANCH   3  24
ATOM     24  C   UNL     1       2.138   7.755  18.884  0.00  0.00    +0.000 A 
ATOM     25  C   UNL     1       1.825   7.940  20.239  0.00  0.00    +0.000 A 
ATOM     26  C   UNL     1       1.101   9.067  20.653  0.00  0.00    +0.000 A 
ATOM     27  C   UNL     1       0.697  10.025  19.721  0.00  0.00    +0.000 A 
ATOM     28  C   UNL     1       0.922   9.796  18.366  0.00  0.00    +0.000 A 
ATOM     29  C   UNL     1       1.623   8.663  17.953  0.00  0.00    +0.000 A 
BRANCH  27  30
ATOM     30  O   UNL     1       0.028  11.123  20.215  0.00  0.00    +0.000 OA
BRANCH  30  31
ATOM     31  C   UNL     1       0.443  12.390  19.862  0.00  0.00    +0.000 A 
ATOM     32  C   UNL     1      -0.464  13.150  19.122  0.00  0.00    +0.000 A 
ATOM     33  C   UNL     1      -0.133  14.448  18.725  0.00  0.00    +0.000 A 
ATOM     34  C   UNL     1       1.106  14.987  19.068  0.00  0.00    +0.000 A 
ATOM     35  C   UNL     1       2.004  14.241  19.830  0.00  0.00    +0.000 A 
ATOM     36  C   UNL     1       1.662  12.956  20.251  0.00  0.00    +0.000 A 
ENDBRANCH  30  31
ENDBRANCH  27  30
ENDBRANCH   3  24
TORSDOF 5
ENDMDL
MODEL 6
REMARK VINA RESULT:      -9.2      0.642      1.142
REMARK  Name = 
REMARK  5 active torsions:
REMARK  status: ('A' for Active; 'I' for Inactive)
REMARK    1  A    between atoms: C_2  and  C_4
REMARK    2  A    between atoms: C_9  and  C_10
REMARK    3  A    between atoms: C_12  and  C_13
REMARK    4  A    between atoms: C_16  and  O_17
REMARK    5  A    between atoms: O_17  and  C_18
REMARK                            x       y       z     vdW  Elec       q    Type
REMARK                         _______ _______ _______ _____ _____    ______ ____
ROOT
ATOM      1  C   UNL     1       4.325   5.148  17.114  0.00  0.00    +0.000 A 
ATOM      2  N   UNL     1       3.842   6.325  17.478  0.00  0.00    +0.000 NA
ATOM      3  C   UNL     1       2.921   6.101  18.476  0.00  0.00    +0.000 A 
ATOM      4  C   UNL     1       2.760   4.740  18.677  0.00  0.00    +0.000 A 
ATOM      5  C   UNL     1       1.921   3.885  19.494  0.00  0.00    +0.000 A 
ATOM      6  N   UNL     1       0.914   4.318  20.306  0.00  0.00    +0.000 N 
ATOM      7  N   UNL     1       2.078   2.583  19.471  0.00  0.00    +0.000 NA
ATOM      8  C   UNL     1       3.017   2.038  18.633  0.00  0.00    +0.000 A 
ATOM      9  C   UNL     1       3.789   2.762  17.807  0.00  0.00    +0.000 A 
ATOM     10  N   UNL     1       3.681   4.142  17.832  0.00  0.00    +0.000 N 
ATOM     11  H   UNL     1       0.391   5.122  19.974  0.00  0.00    +0.000 HD
ATOM     12  H   UNL     1       0.320   3.552  20.601  0.00  0.00    +0.000 HD
ENDROOT
BRANCH   1  18
ATOM     13  C   UNL     1       6.658   5.385  16.137  0.00  0.00    +0.000 A 
ATOM     14  C   UNL     1       7.546   5.136  15.068  0.00  0.00    +0.000 A 
ATOM     15  C   UNL     1       7.119   4.506  13.900  0.00  0.00    +0.000 A 
ATOM     16  C   UNL     1       5.810   4.065  13.803  0.00  0.00    +0.000 A 
ATOM     17  C   UNL     1       4.937   4.246  14.877  0.00  0.00    +0.000 A 
ATOM     18  C   UNL     1       5.316   4.950  16.039  0.00  0.00    +0.000 A 
BRANCH  13  20
ATOM     19  N   UNL     1       7.506   7.473  17.146  0.00  0.00    +0.000 N 
ATOM     20  C   UNL     1       7.278   6.132  17.276  0.00  0.00    +0.000 C 
ATOM     21  O   UNL     1       7.659   5.547  18.281  0.00  0.00    +0.000 OA
ATOM     22  H   UNL     1       7.790   7.923  18.006  0.00  0.00    +0.000 HD
ATOM     23  H   UNL     1       6.885   8.023  16.568  0.00  0.00    +0.000 HD
ENDBRANCH  13  20
ENDBRANCH   1  18
BRANCH   3  24
ATOM     24  C   UNL     1       2.231   7.197  19.137  0.00  0.00    +0.000 A 
ATOM     25  C   UNL     1       1.929   7.136  20.505  0.00  0.00    +0.000 A 
ATOM     26  C   UNL     1       1.321   8.223  21.148  0.00  0.00    +0.000 A 
ATOM     27  C   UNL     1       1.024   9.386  20.434  0.00  0.00    +0.000 A 
ATOM     28  C   UNL     1       1.236   9.414  19.057  0.00  0.00    +0.000 A 
ATOM     29  C   UNL     1       1.819   8.323  18.415  0.00  0.00    +0.000 A 
BRANCH  27  30
ATOM     30  O   UNL     1       0.469  10.424  21.148  0.00  0.00    +0.000 OA
BRANCH  30  31
ATOM     31  C   UNL     1       0.230  11.630  20.525  0.00  0.00    +0.000 A 
ATOM     32  C   UNL     1      -1.069  11.832  20.052  0.00  0.00    +0.000 A 
ATOM     33  C   UNL     1      -1.405  13.027  19.413  0.00  0.00    +0.000 A 
ATOM     34  C   UNL     1      -0.443  14.023  19.244  0.00  0.00    +0.000 A 
ATOM     35  C   UNL     1       0.847  13.836  19.738  0.00  0.00    +0.000 A 
ATOM     36  C   UNL     1       1.175  12.654  20.402  0.00  0.00    +0.000 A 
ENDBRANCH  30  31
ENDBRANCH  27  30
ENDBRANCH   3  24
TORSDOF 5
ENDMDL
MODEL 7
REMARK VINA RESULT:      -9.1      4.170     10.289
REMARK  Name = 
REMARK  5 active torsions:
REMARK  status: ('A' for Active; 'I' for Inactive)
REMARK    1  A    between atoms: C_2  and  C_4
REMARK    2  A    between atoms: C_9  and  C_10
REMARK    3  A    between atoms: C_12  and  C_13
REMARK    4  A    between atoms: C_16  and  O_17
REMARK    5  A    between atoms: O_17  and  C_18
REMARK                            x       y       z     vdW  Elec       q    Type
REMARK                         _______ _______ _______ _____ _____    ______ ____
ROOT
ATOM      1  C   UNL     1      -1.872  12.209  19.755  0.00  0.00    +0.000 A 
ATOM      2  N   UNL     1      -1.403  10.973  19.714  0.00  0.00    +0.000 NA
ATOM      3  C   UNL     1      -0.065  11.051  19.398  0.00  0.00    +0.000 A 
ATOM      4  C   UNL     1       0.288  12.366  19.147  0.00  0.00    +0.000 A 
ATOM      5  C   UNL     1       1.474  13.077  18.710  0.00  0.00    +0.000 A 
ATOM      6  N   UNL     1       2.645  12.490  18.332  0.00  0.00    +0.000 N 
ATOM      7  N   UNL     1       1.470  14.386  18.626  0.00  0.00    +0.000 NA
ATOM      8  C   UNL     1       0.318  15.071  18.916  0.00  0.00    +0.000 A 
ATOM      9  C   UNL     1      -0.833  14.478  19.271  0.00  0.00    +0.000 A 
ATOM     10  N   UNL     1      -0.858  13.100  19.410  0.00  0.00    +0.000 N 
ATOM     11  H   UNL     1       2.561  11.602  17.848  0.00  0.00    +0.000 HD
ATOM     12  H   UNL     1       3.252  13.146  17.855  0.00  0.00    +0.000 HD
ENDROOT
BRANCH   1  18
ATOM     13  C   UNL     1      -4.347  12.174  19.178  0.00  0.00    +0.000 A 
ATOM     14  C   UNL     1      -5.668  12.533  19.524  0.00  0.00    +0.000 A 
ATOM     15  C   UNL     1      -5.941  13.292  20.661  0.00  0.00    +0.000 A 
ATOM     16  C   UNL     1      -4.904  13.659  21.501  0.00  0.00    +0.000 A 
ATOM     17  C   UNL     1      -3.599  13.257  21.207  0.00  0.00    +0.000 A 
ATOM     18  C   UNL     1      -3.281  12.558  20.025  0.00  0.00    +0.000 A 
BRANCH  13  20
ATOM     19  N   UNL     1      -4.408  12.092  16.712  0.00  0.00    +0.000 N 
ATOM     20  C   UNL     1      -4.242  11.420  17.890  0.00  0.00    +0.000 C 
ATOM     21  O   UNL     1      -4.097  10.205  17.880  0.00  0.00    +0.000 OA
ATOM     22  H   UNL     1      -4.180  11.542  15.894  0.00  0.00    +0.000 HD
ATOM     23  H   UNL     1      -4.132  13.062  16.656  0.00  0.00    +0.000 HD
ENDBRANCH  13  20
ENDBRANCH   1  18
BRANCH   3  24
ATOM     24  C   UNL     1       0.770   9.863  19.318  0.00  0.00    +0.000 A 
ATOM     25  C   UNL     1       1.094   9.133  20.471  0.00  0.00    +0.000 A 
ATOM     26  C   UNL     1       1.846   7.954  20.377  0.00  0.00    +0.000 A 
ATOM     27  C   UNL     1       2.267   7.485  19.131  0.00  0.00    +0.000 A 
ATOM     28  C   UNL     1       2.028   8.257  17.996  0.00  0.00    +0.000 A 
ATOM     29  C   UNL     1       1.299   9.442  18.094  0.00  0.00    +0.000 A 
BRANCH  27  30
ATOM     30  O   UNL     1       2.963   6.297  19.121  0.00  0.00    +0.000 OA
BRANCH  30  31
ATOM     31  C   UNL     1       2.277   5.104  19.205  0.00  0.00    +0.000 A 
ATOM     32  C   UNL     1       1.887   4.707  20.485  0.00  0.00    +0.000 A 
ATOM     33  C   UNL     1       1.182   3.515  20.667  0.00  0.00    +0.000 A 
ATOM     34  C   UNL     1       0.864   2.718  19.567  0.00  0.00    +0.000 A 
ATOM     35  C   UNL     1       1.228   3.124  18.284  0.00  0.00    +0.000 A 
ATOM     36  C   UNL     1       1.907   4.329  18.100  0.00  0.00    +0.000 A 
ENDBRANCH  30  31
ENDBRANCH  27  30
ENDBRANCH   3  24
TORSDOF 5
ENDMDL
MODEL 8
REMARK VINA RESULT:      -9.1      4.198     10.217
REMARK  Name = 
REMARK  5 active torsions:
REMARK  status: ('A' for Active; 'I' for Inactive)
REMARK    1  A    between atoms: C_2  and  C_4
REMARK    2  A    between atoms: C_9  and  C_10
REMARK    3  A    between atoms: C_12  and  C_13
REMARK    4  A    between atoms: C_16  and  O_17
REMARK    5  A    between atoms: O_17  and  C_18
REMARK                            x       y       z     vdW  Elec       q    Type
REMARK                         _______ _______ _______ _____ _____    ______ ____
ROOT
ATOM      1  C   UNL     1      -1.905  12.128  19.548  0.00  0.00    +0.000 A 
ATOM      2  N   UNL     1      -1.422  10.896  19.523  0.00  0.00    +0.000 NA
ATOM      3  C   UNL     1      -0.070  10.989  19.278  0.00  0.00    +0.000 A 
ATOM      4  C   UNL     1       0.282  12.310  19.055  0.00  0.00    +0.000 A 
ATOM      5  C   UNL     1       1.481  13.036  18.686  0.00  0.00    +0.000 A 
ATOM      6  N   UNL     1       2.677  12.463  18.366  0.00  0.00    +0.000 N 
ATOM      7  N   UNL     1       1.469  14.346  18.612  0.00  0.00    +0.000 NA
ATOM      8  C   UNL     1       0.296  15.017  18.846  0.00  0.00    +0.000 A 
ATOM      9  C   UNL     1      -0.865  14.410  19.136  0.00  0.00    +0.000 A 
ATOM     10  N   UNL     1      -0.884  13.031  19.263  0.00  0.00    +0.000 N 
ATOM     11  H   UNL     1       2.627  11.579  17.871  0.00  0.00    +0.000 HD
ATOM     12  H   UNL     1       3.301  13.130  17.926  0.00  0.00    +0.000 HD
ENDROOT
BRANCH   1  18
ATOM     13  C   UNL     1      -4.352  12.033  18.869  0.00  0.00    +0.000 A 
ATOM     14  C   UNL     1      -5.692  12.379  19.147  0.00  0.00    +0.000 A 
ATOM     15  C   UNL     1      -6.026  13.167  20.246  0.00  0.00    +0.000 A 
ATOM     16  C   UNL     1      -5.032  13.578  21.118  0.00  0.00    +0.000 A 
ATOM     17  C   UNL     1      -3.710  13.190  20.893  0.00  0.00    +0.000 A 
ATOM     18  C   UNL     1      -3.329  12.460  19.747  0.00  0.00    +0.000 A 
BRANCH  13  20
ATOM     19  N   UNL     1      -3.707   9.962  17.690  0.00  0.00    +0.000 N 
ATOM     20  C   UNL     1      -4.180  11.241  17.610  0.00  0.00    +0.000 C 
ATOM     21  O   UNL     1      -4.373  11.750  16.514  0.00  0.00    +0.000 OA
ATOM     22  H   UNL     1      -3.757   9.455  16.816  0.00  0.00    +0.000 HD
ATOM     23  H   UNL     1      -3.917   9.410  18.510  0.00  0.00    +0.000 HD
ENDBRANCH  13  20
ENDBRANCH   1  18
BRANCH   3  24
ATOM     24  C   UNL     1       0.780   9.811  19.233  0.00  0.00    +0.000 A 
ATOM     25  C   UNL     1       1.073   9.091  20.400  0.00  0.00    +0.000 A 
ATOM     26  C   UNL     1       1.841   7.919  20.338  0.00  0.00    +0.000 A 
ATOM     27  C   UNL     1       2.308   7.449  19.109  0.00  0.00    +0.000 A 
ATOM     28  C   UNL     1       2.098   8.211  17.962  0.00  0.00    +0.000 A 
ATOM     29  C   UNL     1       1.354   9.388  18.029  0.00  0.00    +0.000 A 
BRANCH  27  30
ATOM     30  O   UNL     1       3.016   6.268  19.130  0.00  0.00    +0.000 OA
BRANCH  30  31
ATOM     31  C   UNL     1       2.350   5.076  19.317  0.00  0.00    +0.000 A 
ATOM     32  C   UNL     1       1.941   4.411  18.160  0.00  0.00    +0.000 A 
ATOM     33  C   UNL     1       1.264   3.192  18.252  0.00  0.00    +0.000 A 
ATOM     34  C   UNL     1       0.996   2.636  19.502  0.00  0.00    +0.000 A 
ATOM     35  C   UNL     1       1.426   3.284  20.659  0.00  0.00    +0.000 A 
ATOM     36  C   UNL     1       2.127   4.486  20.566  0.00  0.00    +0.000 A 
ENDBRANCH  30  31
ENDBRANCH  27  30
ENDBRANCH   3  24
TORSDOF 5
ENDMDL
MODEL 9
REMARK VINA RESULT:      -9.1      0.954      1.170
REMARK  Name = 
REMARK  5 active torsions:
REMARK  status: ('A' for Active; 'I' for Inactive)
REMARK    1  A    between atoms: C_2  and  C_4
REMARK    2  A    between atoms: C_9  and  C_10
REMARK    3  A    between atoms: C_12  and  C_13
REMARK    4  A    between atoms: C_16  and  O_17
REMARK    5  A    between atoms: O_17  and  C_18
REMARK                            x       y       z     vdW  Elec       q    Type
REMARK                         _______ _______ _______ _____ _____    ______ ____
ROOT
ATOM      1  C   UNL     1       4.416   5.671  17.320  0.00  0.00    +0.000 A 
ATOM      2  N   UNL     1       3.748   6.813  17.352  0.00  0.00    +0.000 NA
ATOM      3  C   UNL     1       2.916   6.771  18.448  0.00  0.00    +0.000 A 
ATOM      4  C   UNL     1       3.003   5.534  19.064  0.00  0.00    +0.000 A 
ATOM      5  C   UNL     1       2.357   4.858  20.172  0.00  0.00    +0.000 A 
ATOM      6  N   UNL     1       1.319   5.361  20.901  0.00  0.00    +0.000 N 
ATOM      7  N   UNL     1       2.739   3.655  20.530  0.00  0.00    +0.000 NA
ATOM      8  C   UNL     1       3.729   3.029  19.817  0.00  0.00    +0.000 A 
ATOM      9  C   UNL     1       4.332   3.569  18.746  0.00  0.00    +0.000 A 
ATOM     10  N   UNL     1       3.984   4.853  18.362  0.00  0.00    +0.000 N 
ATOM     11  H   UNL     1       0.652   5.929  20.389  0.00  0.00    +0.000 HD
ATOM     12  H   UNL     1       0.880   4.644  21.465  0.00  0.00    +0.000 HD
ENDROOT
BRANCH   1  18
ATOM     13  C   UNL     1       6.741   5.713  16.296  0.00  0.00    +0.000 A 
ATOM     14  C   UNL     1       7.608   5.298  15.262  0.00  0.00    +0.000 A 
ATOM     15  C   UNL     1       7.150   4.526  14.195  0.00  0.00    +0.000 A 
ATOM     16  C   UNL     1       5.829   4.110  14.172  0.00  0.00    +0.000 A 
ATOM     17  C   UNL     1       4.975   4.459  15.220  0.00  0.00    +0.000 A 
ATOM     18  C   UNL     1       5.388   5.303  16.272  0.00  0.00    +0.000 A 
BRANCH  13  20
ATOM     19  N   UNL     1       7.741   6.058  18.526  0.00  0.00    +0.000 N 
ATOM     20  C   UNL     1       7.394   6.591  17.317  0.00  0.00    +0.000 C 
ATOM     21  O   UNL     1       7.541   7.789  17.117  0.00  0.00    +0.000 OA
ATOM     22  H   UNL     1       8.302   6.677  19.097  0.00  0.00    +0.000 HD
ATOM     23  H   UNL     1       8.005   5.084  18.577  0.00  0.00    +0.000 HD
ENDBRANCH  13  20
ENDBRANCH   1  18
BRANCH   3  24
ATOM     24  C   UNL     1       2.069   7.898  18.805  0.00  0.00    +0.000 A 
ATOM     25  C   UNL     1       1.526   8.731  17.816  0.00  0.00    +0.000 A 
ATOM     26  C   UNL     1       0.659   9.776  18.164  0.00  0.00    +0.000 A 
ATOM     27  C   UNL     1       0.313   9.987  19.500  0.00  0.00    +0.000 A 
ATOM     28  C   UNL     1       0.924   9.222  20.492  0.00  0.00    +0.000 A 
ATOM     29  C   UNL     1       1.804   8.198  20.145  0.00  0.00    +0.000 A 
BRANCH  27  30
ATOM     30  O   UNL     1      -0.578  11.005  19.753  0.00  0.00    +0.000 OA
BRANCH  30  31
ATOM     31  C   UNL     1      -0.175  12.097  20.492  0.00  0.00    +0.000 A 
ATOM     32  C   UNL     1       0.885  12.838  19.965  0.00  0.00    +0.000 A 
ATOM     33  C   UNL     1       1.358  13.965  20.642  0.00  0.00    +0.000 A 
ATOM     34  C   UNL     1       0.771  14.354  21.846  0.00  0.00    +0.000 A 
ATOM     35  C   UNL     1      -0.304  13.632  22.361  0.00  0.00    +0.000 A 
ATOM     36  C   UNL     1      -0.795  12.523  21.671  0.00  0.00    +0.000 A 
ENDBRANCH  30  31
ENDBRANCH  27  30
ENDBRANCH   3  24
TORSDOF 5
ENDMDL
