MODEL 1
REMARK VINA RESULT:      -7.2      0.000      0.000
REMARK  Name = 
REMARK  7 active torsions:
REMARK  status: ('A' for Active; 'I' for Inactive)
REMARK    1  A    between atoms: C_1  and  S_2
REMARK    2  A    between atoms: S_2  and  C_3
REMARK    3  A    between atoms: C_6  and  C_7
REMARK    4  A    between atoms: C_7  and  N_8
REMARK    5  A    between atoms: C_11  and  N_12
REMARK    6  A    between atoms: C_15  and  C_16
REMARK    7  A    between atoms: N_18  and  C_19
REMARK                            x       y       z     vdW  Elec       q    Type
REMARK                         _______ _______ _______ _____ _____    ______ ____
ROOT
ATOM      1  N   UNL     1       1.492   7.454  20.231  0.00  0.00    +0.000 NA
ATOM      2  C   UNL     1       2.121   8.031  19.035  0.00  0.00    +0.000 C 
ATOM      3  C   UNL     1       2.153   7.092  17.827  0.00  0.00    +0.000 C 
ATOM      4  C   UNL     1       2.754   5.696  18.097  0.00  0.00    +0.000 C 
ATOM      5  C   UNL     1       2.042   5.130  19.335  0.00  0.00    +0.000 C 
ATOM      6  C   UNL     1       1.957   6.085  20.526  0.00  0.00    +0.000 C 
ENDROOT
BRANCH   4   7
ATOM      7  N   UNL     1       4.238   5.537  18.083  0.00  0.00    +0.000 NA
ATOM      8  C   UNL     1       4.626   4.234  17.507  0.00  0.00    +0.000 C 
ATOM      9  C   UNL     1       6.140   4.023  17.356  0.00  0.00    +0.000 C 
ATOM     10  C   UNL     1       6.809   5.194  16.631  0.00  0.00    +0.000 C 
ATOM     11  C   UNL     1       6.493   6.449  17.439  0.00  0.00    +0.000 C 
ATOM     12  C   UNL     1       4.985   6.668  17.540  0.00  0.00    +0.000 C 
BRANCH  10  13
ATOM     13  C   UNL     1       6.360   5.275  15.163  0.00  0.00    +0.000 C 
ATOM     14  O   UNL     1       5.682   6.203  14.728  0.00  0.00    +0.000 OA
ATOM     15  N   UNL     1       6.729   4.199  14.378  0.00  0.00    +0.000 N 
ATOM     16  H   UNL     1       7.156   3.388  14.807  0.00  0.00    +0.000 HD
BRANCH  15  17
ATOM     17  C   UNL     1       6.395   4.137  12.988  0.00  0.00    +0.000 C 
ATOM     18  C   UNL     1       6.347   2.810  12.279  0.00  0.00    +0.000 C 
ATOM     19  C   UNL     1       5.080   3.578  12.523  0.00  0.00    +0.000 C 
ENDBRANCH  15  17
ENDBRANCH  10  13
ENDBRANCH   4   7
BRANCH   1  20
ATOM     20  C   UNL     1       1.764   8.290  21.433  0.00  0.00    +0.000 C 
BRANCH  20  24
ATOM     21  C   UNL     1      -1.150  11.376  22.354  0.00  0.00    +0.000 A 
ATOM     22  C   UNL     1      -0.422  11.440  21.163  0.00  0.00    +0.000 A 
ATOM     23  C   UNL     1       0.533  10.459  20.857  0.00  0.00    +0.000 A 
ATOM     24  C   UNL     1       0.793   9.412  21.749  0.00  0.00    +0.000 A 
ATOM     25  C   UNL     1       0.044   9.350  22.937  0.00  0.00    +0.000 A 
ATOM     26  C   UNL     1      -0.911  10.326  23.240  0.00  0.00    +0.000 A 
BRANCH  21  28
ATOM     27  C   UNL     1      -1.217  13.908  23.424  0.00  0.00    +0.000 C 
ATOM     28  S   UNL     1      -2.337  12.633  22.792  0.00  0.00    +0.000 S 
ENDBRANCH  21  28
ENDBRANCH  20  24
ENDBRANCH   1  20
TORSDOF 6
ENDMDL
MODEL 2
REMARK VINA RESULT:      -7.1      2.243      3.747
REMARK  Name = 
REMARK  7 active torsions:
REMARK  status: ('A' for Active; 'I' for Inactive)
REMARK    1  A    between atoms: C_1  and  S_2
REMARK    2  A    between atoms: S_2  and  C_3
REMARK    3  A    between atoms: C_6  and  C_7
REMARK    4  A    between atoms: C_7  and  N_8
REMARK    5  A    between atoms: C_11  and  N_12
REMARK    6  A    between atoms: C_15  and  C_16
REMARK    7  A    between atoms: N_18  and  C_19
REMARK                            x       y       z     vdW  Elec       q    Type
REMARK                         _______ _______ _______ _____ _____    ______ ____
ROOT
ATOM      1  N   UNL     1       1.870   6.888  19.588  0.00  0.00    +0.000 NA
ATOM      2  C   UNL     1       2.818   7.510  18.653  0.00  0.00    +0.000 C 
ATOM      3  C   UNL     1       3.114   6.671  17.408  0.00  0.00    +0.000 C 
ATOM      4  C   UNL     1       3.551   5.217  17.685  0.00  0.00    +0.000 C 
ATOM      5  C   UNL     1       2.513   4.608  18.642  0.00  0.00    +0.000 C 
ATOM      6  C   UNL     1       2.171   5.469  19.858  0.00  0.00    +0.000 C 
ENDROOT
BRANCH   4   7
ATOM      7  N   UNL     1       4.977   4.949  18.034  0.00  0.00    +0.000 NA
ATOM      8  C   UNL     1       5.844   5.071  16.845  0.00  0.00    +0.000 C 
ATOM      9  C   UNL     1       7.347   4.914  17.127  0.00  0.00    +0.000 C 
ATOM     10  C   UNL     1       7.809   5.819  18.272  0.00  0.00    +0.000 C 
ATOM     11  C   UNL     1       6.967   5.452  19.490  0.00  0.00    +0.000 C 
ATOM     12  C   UNL     1       5.481   5.658  19.206  0.00  0.00    +0.000 C 
BRANCH  10  13
ATOM     13  C   UNL     1       7.720   7.304  17.884  0.00  0.00    +0.000 C 
ATOM     14  O   UNL     1       7.068   7.701  16.921  0.00  0.00    +0.000 OA
ATOM     15  N   UNL     1       8.473   8.159  18.667  0.00  0.00    +0.000 N 
ATOM     16  H   UNL     1       9.112   7.779  19.354  0.00  0.00    +0.000 HD
BRANCH  15  17
ATOM     17  C   UNL     1       8.482   9.571  18.439  0.00  0.00    +0.000 C 
ATOM     18  C   UNL     1       9.145  10.495  19.427  0.00  0.00    +0.000 C 
ATOM     19  C   UNL     1       9.746  10.296  18.065  0.00  0.00    +0.000 C 
ENDBRANCH  15  17
ENDBRANCH  10  13
ENDBRANCH   4   7
BRANCH   1  20
ATOM     20  C   UNL     1       1.863   7.602  20.894  0.00  0.00    +0.000 C 
BRANCH  20  24
ATOM     21  C   UNL     1      -0.793  11.007  21.352  0.00  0.00    +0.000 A 
ATOM     22  C   UNL     1      -0.324  10.656  20.083  0.00  0.00    +0.000 A 
ATOM     23  C   UNL     1       0.545   9.568  19.920  0.00  0.00    +0.000 A 
ATOM     24  C   UNL     1       0.980   8.829  21.026  0.00  0.00    +0.000 A 
ATOM     25  C   UNL     1       0.490   9.182  22.296  0.00  0.00    +0.000 A 
ATOM     26  C   UNL     1      -0.380  10.266  22.458  0.00  0.00    +0.000 A 
BRANCH  21  28
ATOM     27  C   UNL     1      -2.543  12.006  23.223  0.00  0.00    +0.000 C 
ATOM     28  S   UNL     1      -1.862  12.414  21.596  0.00  0.00    +0.000 S 
ENDBRANCH  21  28
ENDBRANCH  20  24
ENDBRANCH   1  20
TORSDOF 6
ENDMDL
MODEL 3
REMARK VINA RESULT:      -7.0      2.170      3.784
REMARK  Name = 
REMARK  7 active torsions:
REMARK  status: ('A' for Active; 'I' for Inactive)
REMARK    1  A    between atoms: C_1  and  S_2
REMARK    2  A    between atoms: S_2  and  C_3
REMARK    3  A    between atoms: C_6  and  C_7
REMARK    4  A    between atoms: C_7  and  N_8
REMARK    5  A    between atoms: C_11  and  N_12
REMARK    6  A    between atoms: C_15  and  C_16
REMARK    7  A    between atoms: N_18  and  C_19
REMARK                            x       y       z     vdW  Elec       q    Type
REMARK                         _______ _______ _______ _____ _____    ______ ____
ROOT
ATOM      1  N   UNL     1       1.877   7.004  19.743  0.00  0.00    +0.000 NA
ATOM      2  C   UNL     1       2.796   7.599  18.762  0.00  0.00    +0.000 C 
ATOM      3  C   UNL     1       3.018   6.743  17.512  0.00  0.00    +0.000 C 
ATOM      4  C   UNL     1       3.435   5.282  17.782  0.00  0.00    +0.000 C 
ATOM      5  C   UNL     1       2.428   4.704  18.789  0.00  0.00    +0.000 C 
ATOM      6  C   UNL     1       2.159   5.581  20.012  0.00  0.00    +0.000 C 
ENDROOT
BRANCH   4   7
ATOM      7  N   UNL     1       4.870   4.986  18.070  0.00  0.00    +0.000 NA
ATOM      8  C   UNL     1       5.692   5.120  16.851  0.00  0.00    +0.000 C 
ATOM      9  C   UNL     1       7.202   4.935  17.071  0.00  0.00    +0.000 C 
ATOM     10  C   UNL     1       7.722   5.808  18.216  0.00  0.00    +0.000 C 
ATOM     11  C   UNL     1       6.921   5.428  19.458  0.00  0.00    +0.000 C 
ATOM     12  C   UNL     1       5.429   5.662  19.236  0.00  0.00    +0.000 C 
BRANCH  10  13
ATOM     13  C   UNL     1       7.642   7.302  17.863  0.00  0.00    +0.000 C 
ATOM     14  O   UNL     1       6.951   7.730  16.941  0.00  0.00    +0.000 OA
ATOM     15  N   UNL     1       8.447   8.127  18.625  0.00  0.00    +0.000 N 
ATOM     16  H   UNL     1       9.111   7.722  19.273  0.00  0.00    +0.000 HD
BRANCH  15  17
ATOM     17  C   UNL     1       8.471   9.543  18.425  0.00  0.00    +0.000 C 
ATOM     18  C   UNL     1       9.152  10.439  19.426  0.00  0.00    +0.000 C 
ATOM     19  C   UNL     1       9.740  10.261  18.056  0.00  0.00    +0.000 C 
ENDBRANCH  15  17
ENDBRANCH  10  13
ENDBRANCH   4   7
BRANCH   1  20
ATOM     20  C   UNL     1       1.944   7.728  21.042  0.00  0.00    +0.000 C 
BRANCH  20  24
ATOM     21  C   UNL     1      -0.839  10.996  21.706  0.00  0.00    +0.000 A 
ATOM     22  C   UNL     1      -0.511  10.136  22.758  0.00  0.00    +0.000 A 
ATOM     23  C   UNL     1       0.375   9.068  22.557  0.00  0.00    +0.000 A 
ATOM     24  C   UNL     1       0.927   8.826  21.294  0.00  0.00    +0.000 A 
ATOM     25  C   UNL     1       0.602   9.706  20.247  0.00  0.00    +0.000 A 
ATOM     26  C   UNL     1      -0.279  10.774  20.449  0.00  0.00    +0.000 A 
BRANCH  21  28
ATOM     27  C   UNL     1      -0.925  13.545  22.732  0.00  0.00    +0.000 C 
ATOM     28  S   UNL     1      -1.999  12.334  21.920  0.00  0.00    +0.000 S 
ENDBRANCH  21  28
ENDBRANCH  20  24
ENDBRANCH   1  20
TORSDOF 6
ENDMDL
MODEL 4
REMARK VINA RESULT:      -7.0      0.533      1.097
REMARK  Name = 
REMARK  7 active torsions:
REMARK  status: ('A' for Active; 'I' for Inactive)
REMARK    1  A    between atoms: C_1  and  S_2
REMARK    2  A    between atoms: S_2  and  C_3
REMARK    3  A    between atoms: C_6  and  C_7
REMARK    4  A    between atoms: C_7  and  N_8
REMARK    5  A    between atoms: C_11  and  N_12
REMARK    6  A    between atoms: C_15  and  C_16
REMARK    7  A    between atoms: N_18  and  C_19
REMARK                            x       y       z     vdW  Elec       q    Type
REMARK                         _______ _______ _______ _____ _____    ______ ____
ROOT
ATOM      1  N   UNL     1       1.464   7.612  20.186  0.00  0.00    +0.000 NA
ATOM      2  C   UNL     1       2.080   8.124  18.953  0.00  0.00    +0.000 C 
ATOM      3  C   UNL     1       2.078   7.128  17.791  0.00  0.00    +0.000 C 
ATOM      4  C   UNL     1       2.664   5.738  18.116  0.00  0.00    +0.000 C 
ATOM      5  C   UNL     1       1.968   5.241  19.391  0.00  0.00    +0.000 C 
ATOM      6  C   UNL     1       1.916   6.252  20.537  0.00  0.00    +0.000 C 
ENDROOT
BRANCH   4   7
ATOM      7  N   UNL     1       4.146   5.558  18.084  0.00  0.00    +0.000 NA
ATOM      8  C   UNL     1       4.507   4.247  17.508  0.00  0.00    +0.000 C 
ATOM      9  C   UNL     1       6.017   4.014  17.339  0.00  0.00    +0.000 C 
ATOM     10  C   UNL     1       6.693   5.172  16.601  0.00  0.00    +0.000 C 
ATOM     11  C   UNL     1       6.405   6.435  17.408  0.00  0.00    +0.000 C 
ATOM     12  C   UNL     1       4.902   6.675  17.526  0.00  0.00    +0.000 C 
BRANCH  10  13
ATOM     13  C   UNL     1       6.227   5.255  15.139  0.00  0.00    +0.000 C 
ATOM     14  O   UNL     1       5.740   6.274  14.654  0.00  0.00    +0.000 OA
ATOM     15  N   UNL     1       6.344   4.080  14.420  0.00  0.00    +0.000 N 
ATOM     16  H   UNL     1       6.609   3.226  14.894  0.00  0.00    +0.000 HD
BRANCH  15  17
ATOM     17  C   UNL     1       5.964   4.003  13.043  0.00  0.00    +0.000 C 
ATOM     18  C   UNL     1       7.016   3.892  11.971  0.00  0.00    +0.000 C 
ATOM     19  C   UNL     1       6.113   2.728  12.260  0.00  0.00    +0.000 C 
ENDBRANCH  15  17
ENDBRANCH  10  13
ENDBRANCH   4   7
BRANCH   1  20
ATOM     20  C   UNL     1       1.769   8.500  21.342  0.00  0.00    +0.000 C 
BRANCH  20  24
ATOM     21  C   UNL     1      -1.083  11.562  22.504  0.00  0.00    +0.000 A 
ATOM     22  C   UNL     1      -1.005  10.372  23.232  0.00  0.00    +0.000 A 
ATOM     23  C   UNL     1      -0.099   9.368  22.862  0.00  0.00    +0.000 A 
ATOM     24  C   UNL     1       0.724   9.526  21.741  0.00  0.00    +0.000 A 
ATOM     25  C   UNL     1       0.647  10.733  21.025  0.00  0.00    +0.000 A 
ATOM     26  C   UNL     1      -0.254  11.737  21.397  0.00  0.00    +0.000 A 
BRANCH  21  28
ATOM     27  C   UNL     1      -2.191  13.828  21.409  0.00  0.00    +0.000 C 
ATOM     28  S   UNL     1      -2.257  12.838  22.923  0.00  0.00    +0.000 S 
ENDBRANCH  21  28
ENDBRANCH  20  24
ENDBRANCH   1  20
TORSDOF 6
ENDMDL
MODEL 5
REMARK VINA RESULT:      -6.9      4.665      8.117
REMARK  Name = 
REMARK  7 active torsions:
REMARK  status: ('A' for Active; 'I' for Inactive)
REMARK    1  A    between atoms: C_1  and  S_2
REMARK    2  A    between atoms: S_2  and  C_3
REMARK    3  A    between atoms: C_6  and  C_7
REMARK    4  A    between atoms: C_7  and  N_8
REMARK    5  A    between atoms: C_11  and  N_12
REMARK    6  A    between atoms: C_15  and  C_16
REMARK    7  A    between atoms: N_18  and  C_19
REMARK                            x       y       z     vdW  Elec       q    Type
REMARK                         _______ _______ _______ _____ _____    ______ ____
ROOT
ATOM      1  N   UNL     1       7.985   7.553  17.650  0.00  0.00    +0.000 NA
ATOM      2  C   UNL     1       7.935   6.701  18.846  0.00  0.00    +0.000 C 
ATOM      3  C   UNL     1       7.956   5.200  18.548  0.00  0.00    +0.000 C 
ATOM      4  C   UNL     1       6.898   4.717  17.533  0.00  0.00    +0.000 C 
ATOM      5  C   UNL     1       7.014   5.621  16.296  0.00  0.00    +0.000 C 
ATOM      6  C   UNL     1       7.051   7.121  16.592  0.00  0.00    +0.000 C 
ENDROOT
BRANCH   4   7
ATOM      7  N   UNL     1       5.507   4.461  18.011  0.00  0.00    +0.000 NA
ATOM      8  C   UNL     1       5.227   5.213  19.251  0.00  0.00    +0.000 C 
ATOM      9  C   UNL     1       3.783   5.093  19.763  0.00  0.00    +0.000 C 
ATOM     10  C   UNL     1       2.762   5.396  18.663  0.00  0.00    +0.000 C 
ATOM     11  C   UNL     1       3.039   4.418  17.524  0.00  0.00    +0.000 C 
ATOM     12  C   UNL     1       4.463   4.584  16.998  0.00  0.00    +0.000 C 
BRANCH  10  13
ATOM     13  C   UNL     1       2.818   6.872  18.237  0.00  0.00    +0.000 C 
ATOM     14  O   UNL     1       3.587   7.284  17.371  0.00  0.00    +0.000 OA
ATOM     15  N   UNL     1       1.977   7.715  18.938  0.00  0.00    +0.000 N 
ATOM     16  H   UNL     1       1.471   7.365  19.741  0.00  0.00    +0.000 HD
BRANCH  15  17
ATOM     17  C   UNL     1       1.907   9.114  18.647  0.00  0.00    +0.000 C 
ATOM     18  C   UNL     1       0.687   9.688  17.975  0.00  0.00    +0.000 C 
ATOM     19  C   UNL     1       0.985  10.027  19.407  0.00  0.00    +0.000 C 
ENDBRANCH  15  17
ENDBRANCH  10  13
ENDBRANCH   4   7
BRANCH   1  20
ATOM     20  C   UNL     1       7.658   8.966  17.988  0.00  0.00    +0.000 C 
BRANCH  20  24
ATOM     21  C   UNL     1      10.820  11.701  19.162  0.00  0.00    +0.000 A 
ATOM     22  C   UNL     1      10.496  11.551  17.811  0.00  0.00    +0.000 A 
ATOM     23  C   UNL     1       9.487  10.661  17.414  0.00  0.00    +0.000 A 
ATOM     24  C   UNL     1       8.804   9.888  18.360  0.00  0.00    +0.000 A 
ATOM     25  C   UNL     1       9.128  10.059  19.717  0.00  0.00    +0.000 A 
ATOM     26  C   UNL     1      10.132  10.949  20.113  0.00  0.00    +0.000 A 
BRANCH  21  28
ATOM     27  C   UNL     1      11.243  14.368  19.682  0.00  0.00    +0.000 C 
ATOM     28  S   UNL     1      12.130  12.790  19.693  0.00  0.00    +0.000 S 
ENDBRANCH  21  28
ENDBRANCH  20  24
ENDBRANCH   1  20
TORSDOF 6
ENDMDL
MODEL 6
REMARK VINA RESULT:      -6.8      1.031      1.159
REMARK  Name = 
REMARK  7 active torsions:
REMARK  status: ('A' for Active; 'I' for Inactive)
REMARK    1  A    between atoms: C_1  and  S_2
REMARK    2  A    between atoms: S_2  and  C_3
REMARK    3  A    between atoms: C_6  and  C_7
REMARK    4  A    between atoms: C_7  and  N_8
REMARK    5  A    between atoms: C_11  and  N_12
REMARK    6  A    between atoms: C_15  and  C_16
REMARK    7  A    between atoms: N_18  and  C_19
REMARK                            x       y       z     vdW  Elec       q    Type
REMARK                         _______ _______ _______ _____ _____    ______ ____
ROOT
ATOM      1  N   UNL     1       1.472   7.899  20.286  0.00  0.00    +0.000 NA
ATOM      2  C   UNL     1       2.113   8.533  19.126  0.00  0.00    +0.000 C 
ATOM      3  C   UNL     1       2.212   7.631  17.893  0.00  0.00    +0.000 C 
ATOM      4  C   UNL     1       2.854   6.249  18.140  0.00  0.00    +0.000 C 
ATOM      5  C   UNL     1       2.130   5.622  19.341  0.00  0.00    +0.000 C 
ATOM      6  C   UNL     1       1.978   6.539  20.556  0.00  0.00    +0.000 C 
ENDROOT
BRANCH   4   7
ATOM      7  N   UNL     1       4.343   6.143  18.164  0.00  0.00    +0.000 NA
ATOM      8  C   UNL     1       4.771   4.736  18.295  0.00  0.00    +0.000 C 
ATOM      9  C   UNL     1       6.291   4.517  18.225  0.00  0.00    +0.000 C 
ATOM     10  C   UNL     1       6.907   5.194  16.998  0.00  0.00    +0.000 C 
ATOM     11  C   UNL     1       6.555   6.676  17.090  0.00  0.00    +0.000 C 
ATOM     12  C   UNL     1       5.042   6.876  17.113  0.00  0.00    +0.000 C 
BRANCH  10  13
ATOM     13  C   UNL     1       6.438   4.528  15.694  0.00  0.00    +0.000 C 
ATOM     14  O   UNL     1       5.892   3.427  15.671  0.00  0.00    +0.000 OA
ATOM     15  N   UNL     1       6.723   5.234  14.541  0.00  0.00    +0.000 N 
ATOM     16  H   UNL     1       7.304   6.061  14.590  0.00  0.00    +0.000 HD
BRANCH  15  17
ATOM     17  C   UNL     1       6.337   4.750  13.251  0.00  0.00    +0.000 C 
ATOM     18  C   UNL     1       7.321   4.763  12.111  0.00  0.00    +0.000 C 
ATOM     19  C   UNL     1       6.878   3.457  12.706  0.00  0.00    +0.000 C 
ENDBRANCH  15  17
ENDBRANCH  10  13
ENDBRANCH   4   7
BRANCH   1  20
ATOM     20  C   UNL     1       1.681   8.708  21.518  0.00  0.00    +0.000 C 
BRANCH  20  24
ATOM     21  C   UNL     1      -1.358  11.677  22.416  0.00  0.00    +0.000 A 
ATOM     22  C   UNL     1      -0.521  11.852  21.311  0.00  0.00    +0.000 A 
ATOM     23  C   UNL     1       0.475  10.909  21.016  0.00  0.00    +0.000 A 
ATOM     24  C   UNL     1       0.666   9.791  21.835  0.00  0.00    +0.000 A 
ATOM     25  C   UNL     1      -0.192   9.619  22.936  0.00  0.00    +0.000 A 
ATOM     26  C   UNL     1      -1.188  10.557  23.228  0.00  0.00    +0.000 A 
BRANCH  21  28
ATOM     27  C   UNL     1      -3.664  12.762  21.383  0.00  0.00    +0.000 C 
ATOM     28  S   UNL     1      -2.602  12.882  22.845  0.00  0.00    +0.000 S 
ENDBRANCH  21  28
ENDBRANCH  20  24
ENDBRANCH   1  20
TORSDOF 6
ENDMDL
MODEL 7
REMARK VINA RESULT:      -6.8      2.941      4.512
REMARK  Name = 
REMARK  7 active torsions:
REMARK  status: ('A' for Active; 'I' for Inactive)
REMARK    1  A    between atoms: C_1  and  S_2
REMARK    2  A    between atoms: S_2  and  C_3
REMARK    3  A    between atoms: C_6  and  C_7
REMARK    4  A    between atoms: C_7  and  N_8
REMARK    5  A    between atoms: C_11  and  N_12
REMARK    6  A    between atoms: C_15  and  C_16
REMARK    7  A    between atoms: N_18  and  C_19
REMARK                            x       y       z     vdW  Elec       q    Type
REMARK                         _______ _______ _______ _____ _____    ______ ____
ROOT
ATOM      1  N   UNL     1       0.381   9.886  18.621  0.00  0.00    +0.000 NA
ATOM      2  C   UNL     1       0.119   9.108  19.839  0.00  0.00    +0.000 C 
ATOM      3  C   UNL     1       1.374   8.538  20.504  0.00  0.00    +0.000 C 
ATOM      4  C   UNL     1       2.301   7.729  19.571  0.00  0.00    +0.000 C 
ATOM      5  C   UNL     1       2.565   8.598  18.332  0.00  0.00    +0.000 C 
ATOM      6  C   UNL     1       1.318   9.217  17.698  0.00  0.00    +0.000 C 
ENDROOT
BRANCH   4   7
ATOM      7  N   UNL     1       1.970   6.300  19.292  0.00  0.00    +0.000 NA
ATOM      8  C   UNL     1       2.567   5.859  18.015  0.00  0.00    +0.000 C 
ATOM      9  C   UNL     1       2.366   4.369  17.693  0.00  0.00    +0.000 C 
ATOM     10  C   UNL     1       2.781   3.473  18.863  0.00  0.00    +0.000 C 
ATOM     11  C   UNL     1       1.948   3.907  20.066  0.00  0.00    +0.000 C 
ATOM     12  C   UNL     1       2.195   5.376  20.399  0.00  0.00    +0.000 C 
BRANCH  10  13
ATOM     13  C   UNL     1       4.297   3.536  19.108  0.00  0.00    +0.000 C 
ATOM     14  O   UNL     1       4.875   2.786  19.891  0.00  0.00    +0.000 OA
ATOM     15  N   UNL     1       4.960   4.535  18.421  0.00  0.00    +0.000 N 
ATOM     16  H   UNL     1       4.430   5.225  17.902  0.00  0.00    +0.000 HD
BRANCH  15  17
ATOM     17  C   UNL     1       6.375   4.712  18.535  0.00  0.00    +0.000 C 
ATOM     18  C   UNL     1       7.251   4.616  17.314  0.00  0.00    +0.000 C 
ATOM     19  C   UNL     1       7.057   5.939  17.997  0.00  0.00    +0.000 C 
ENDBRANCH  15  17
ENDBRANCH  10  13
ENDBRANCH   4   7
BRANCH   1  20
ATOM     20  C   UNL     1      -0.879  10.146  17.873  0.00  0.00    +0.000 C 
BRANCH  20  24
ATOM     21  C   UNL     1      -4.032  12.505  19.704  0.00  0.00    +0.000 A 
ATOM     22  C   UNL     1      -2.718  12.622  20.165  0.00  0.00    +0.000 A 
ATOM     23  C   UNL     1      -1.691  11.857  19.594  0.00  0.00    +0.000 A 
ATOM     24  C   UNL     1      -1.965  10.944  18.570  0.00  0.00    +0.000 A 
ATOM     25  C   UNL     1      -3.288  10.845  18.104  0.00  0.00    +0.000 A 
ATOM     26  C   UNL     1      -4.312  11.612  18.671  0.00  0.00    +0.000 A 
BRANCH  21  28
ATOM     27  C   UNL     1      -6.512  12.077  20.812  0.00  0.00    +0.000 C 
ATOM     28  S   UNL     1      -5.367  13.430  20.441  0.00  0.00    +0.000 S 
ENDBRANCH  21  28
ENDBRANCH  20  24
ENDBRANCH   1  20
TORSDOF 6
ENDMDL
MODEL 8
REMARK VINA RESULT:      -6.7      1.484      2.038
REMARK  Name = 
REMARK  7 active torsions:
REMARK  status: ('A' for Active; 'I' for Inactive)
REMARK    1  A    between atoms: C_1  and  S_2
REMARK    2  A    between atoms: S_2  and  C_3
REMARK    3  A    between atoms: C_6  and  C_7
REMARK    4  A    between atoms: C_7  and  N_8
REMARK    5  A    between atoms: C_11  and  N_12
REMARK    6  A    between atoms: C_15  and  C_16
REMARK    7  A    between atoms: N_18  and  C_19
REMARK                            x       y       z     vdW  Elec       q    Type
REMARK                         _______ _______ _______ _____ _____    ______ ____
ROOT
ATOM      1  N   UNL     1       1.010   9.072  19.755  0.00  0.00    +0.000 NA
ATOM      2  C   UNL     1       1.569   9.095  18.397  0.00  0.00    +0.000 C 
ATOM      3  C   UNL     1       1.728   7.712  17.760  0.00  0.00    +0.000 C 
ATOM      4  C   UNL     1       2.499   6.682  18.612  0.00  0.00    +0.000 C 
ATOM      5  C   UNL     1       1.857   6.679  20.008  0.00  0.00    +0.000 C 
ATOM      6  C   UNL     1       1.642   8.061  20.625  0.00  0.00    +0.000 C 
ENDROOT
BRANCH   4   7
ATOM      7  N   UNL     1       3.992   6.707  18.594  0.00  0.00    +0.000 NA
ATOM      8  C   UNL     1       4.549   5.464  19.164  0.00  0.00    +0.000 C 
ATOM      9  C   UNL     1       6.080   5.355  19.093  0.00  0.00    +0.000 C 
ATOM     10  C   UNL     1       6.606   5.627  17.681  0.00  0.00    +0.000 C 
ATOM     11  C   UNL     1       6.122   7.021  17.294  0.00  0.00    +0.000 C 
ATOM     12  C   UNL     1       4.597   7.098  17.325  0.00  0.00    +0.000 C 
BRANCH  10  13
ATOM     13  C   UNL     1       6.171   4.527  16.699  0.00  0.00    +0.000 C 
ATOM     14  O   UNL     1       5.495   3.561  17.043  0.00  0.00    +0.000 OA
ATOM     15  N   UNL     1       6.642   4.676  15.408  0.00  0.00    +0.000 N 
ATOM     16  H   UNL     1       7.317   5.402  15.201  0.00  0.00    +0.000 HD
BRANCH  15  17
ATOM     17  C   UNL     1       6.312   3.741  14.378  0.00  0.00    +0.000 C 
ATOM     18  C   UNL     1       5.212   4.051  13.397  0.00  0.00    +0.000 C 
ATOM     19  C   UNL     1       6.641   4.015  12.937  0.00  0.00    +0.000 C 
ENDBRANCH  15  17
ENDBRANCH  10  13
ENDBRANCH   4   7
BRANCH   1  20
ATOM     20  C   UNL     1       1.165  10.396  20.418  0.00  0.00    +0.000 C 
BRANCH  20  24
ATOM     21  C   UNL     1      -2.307  12.407  22.079  0.00  0.00    +0.000 A 
ATOM     22  C   UNL     1      -1.568  11.525  22.872  0.00  0.00    +0.000 A 
ATOM     23  C   UNL     1      -0.453  10.857  22.347  0.00  0.00    +0.000 A 
ATOM     24  C   UNL     1      -0.073  11.040  21.012  0.00  0.00    +0.000 A 
ATOM     25  C   UNL     1      -0.815  11.942  20.228  0.00  0.00    +0.000 A 
ATOM     26  C   UNL     1      -1.925  12.611  20.754  0.00  0.00    +0.000 A 
BRANCH  21  28
ATOM     27  C   UNL     1      -3.936  12.386  24.294  0.00  0.00    +0.000 C 
ATOM     28  S   UNL     1      -3.757  13.236  22.706  0.00  0.00    +0.000 S 
ENDBRANCH  21  28
ENDBRANCH  20  24
ENDBRANCH   1  20
TORSDOF 6
ENDMDL
MODEL 9
REMARK VINA RESULT:      -6.7      4.098      8.133
REMARK  Name = 
REMARK  7 active torsions:
REMARK  status: ('A' for Active; 'I' for Inactive)
REMARK    1  A    between atoms: C_1  and  S_2
REMARK    2  A    between atoms: S_2  and  C_3
REMARK    3  A    between atoms: C_6  and  C_7
REMARK    4  A    between atoms: C_7  and  N_8
REMARK    5  A    between atoms: C_11  and  N_12
REMARK    6  A    between atoms: C_15  and  C_16
REMARK    7  A    between atoms: N_18  and  C_19
REMARK                            x       y       z     vdW  Elec       q    Type
REMARK                         _______ _______ _______ _____ _____    ______ ____
ROOT
ATOM      1  N   UNL     1       4.344   4.414  18.438  0.00  0.00    +0.000 NA
ATOM      2  C   UNL     1       4.286   4.997  19.786  0.00  0.00    +0.000 C 
ATOM      3  C   UNL     1       2.869   5.299  20.278  0.00  0.00    +0.000 C 
ATOM      4  C   UNL     1       2.006   6.144  19.318  0.00  0.00    +0.000 C 
ATOM      5  C   UNL     1       2.080   5.476  17.937  0.00  0.00    +0.000 C 
ATOM      6  C   UNL     1       3.490   5.120  17.464  0.00  0.00    +0.000 C 
ENDROOT
BRANCH   4   7
ATOM      7  N   UNL     1       2.172   7.628  19.320  0.00  0.00    +0.000 NA
ATOM      8  C   UNL     1       1.919   8.191  17.979  0.00  0.00    +0.000 C 
ATOM      9  C   UNL     1       1.965   9.725  17.907  0.00  0.00    +0.000 C 
ATOM     10  C   UNL     1       1.084  10.373  18.978  0.00  0.00    +0.000 C 
ATOM     11  C   UNL     1       1.580   9.857  20.326  0.00  0.00    +0.000 C 
ATOM     12  C   UNL     1       1.483   8.335  20.396  0.00  0.00    +0.000 C 
BRANCH  10  13
ATOM     13  C   UNL     1      -0.407  10.095  18.722  0.00  0.00    +0.000 C 
ATOM     14  O   UNL     1      -1.204   9.862  19.628  0.00  0.00    +0.000 OA
ATOM     15  N   UNL     1      -0.777  10.073  17.390  0.00  0.00    +0.000 N 
ATOM     16  H   UNL     1      -0.067  10.122  16.671  0.00  0.00    +0.000 HD
BRANCH  15  17
ATOM     17  C   UNL     1      -2.131   9.842  16.993  0.00  0.00    +0.000 C 
ATOM     18  C   UNL     1      -3.001  10.991  16.556  0.00  0.00    +0.000 C 
ATOM     19  C   UNL     1      -2.558   9.962  15.557  0.00  0.00    +0.000 C 
ENDBRANCH  15  17
ENDBRANCH  10  13
ENDBRANCH   4   7
BRANCH   1  20
ATOM     20  C   UNL     1       5.736   4.430  17.910  0.00  0.00    +0.000 C 
BRANCH  20  24
ATOM     21  C   UNL     1       7.745   8.280  17.831  0.00  0.00    +0.000 A 
ATOM     22  C   UNL     1       6.577   8.089  17.086  0.00  0.00    +0.000 A 
ATOM     23  C   UNL     1       5.925   6.848  17.090  0.00  0.00    +0.000 A 
ATOM     24  C   UNL     1       6.443   5.770  17.818  0.00  0.00    +0.000 A 
ATOM     25  C   UNL     1       7.609   5.978  18.574  0.00  0.00    +0.000 A 
ATOM     26  C   UNL     1       8.258   7.218  18.573  0.00  0.00    +0.000 A 
BRANCH  21  28
ATOM     27  C   UNL     1       9.117   9.933  19.547  0.00  0.00    +0.000 C 
ATOM     28  S   UNL     1       8.623   9.833  17.808  0.00  0.00    +0.000 S 
ENDBRANCH  21  28
ENDBRANCH  20  24
ENDBRANCH   1  20
TORSDOF 6
ENDMDL
