MODEL 1
REMARK VINA RESULT:      -7.8      0.000      0.000
REMARK  Name = 
REMARK  4 active torsions:
REMARK  status: ('A' for Active; 'I' for Inactive)
REMARK    1  A    between atoms: C_4  and  C_5
REMARK    2  A    between atoms: C_5  and  N_6
REMARK    3  A    between atoms: N_16  and  C_17
REMARK    4  A    between atoms: C_17  and  C_18
REMARK                            x       y       z     vdW  Elec       q    Type
REMARK                         _______ _______ _______ _____ _____    ______ ____
ROOT
ATOM      1  N   UNL     1       0.458  10.719  19.452  0.00  0.00    +0.000 N 
ATOM      2  C   UNL     1       1.040   9.494  19.186  0.00  0.00    +0.000 A 
ATOM      3  C   UNL     1       1.408   8.869  17.992  0.00  0.00    +0.000 A 
ATOM      4  C   UNL     1       2.172   7.700  18.093  0.00  0.00    +0.000 A 
ATOM      5  C   UNL     1       2.515   7.165  19.333  0.00  0.00    +0.000 A 
ATOM      6  C   UNL     1       1.972   7.695  20.512  0.00  0.00    +0.000 A 
ATOM      7  C   UNL     1       1.189   8.865  20.425  0.00  0.00    +0.000 A 
ATOM      8  C   UNL     1       0.351   9.617  21.292  0.00  0.00    +0.000 A 
ATOM      9  C   UNL     1      -0.535   9.443  22.356  0.00  0.00    +0.000 A 
ATOM     10  C   UNL     1      -1.145  10.603  22.852  0.00  0.00    +0.000 A 
ATOM     11  N   UNL     1      -0.657  11.841  22.551  0.00  0.00    +0.000 N 
ATOM     12  C   UNL     1       0.252  12.020  21.585  0.00  0.00    +0.000 A 
ATOM     13  C   UNL     1       0.493  10.908  20.815  0.00  0.00    +0.000 A 
ENDROOT
BRANCH   1  14
ATOM     14  C   UNL     1      -0.243  11.618  18.537  0.00  0.00    +0.000 C 
BRANCH  14  18
ATOM     15  C   UNL     1      -4.270  10.720  17.228  0.00  0.00    +0.000 A 
ATOM     16  C   UNL     1      -4.071  11.586  18.301  0.00  0.00    +0.000 A 
ATOM     17  C   UNL     1      -2.783  11.801  18.804  0.00  0.00    +0.000 A 
ATOM     18  C   UNL     1      -1.666  11.159  18.230  0.00  0.00    +0.000 A 
ATOM     19  C   UNL     1      -1.895  10.239  17.197  0.00  0.00    +0.000 A 
ATOM     20  C   UNL     1      -3.186  10.033  16.693  0.00  0.00    +0.000 A 
ENDBRANCH  14  18
ENDBRANCH   1  14
BRANCH  11  21
ATOM     21  C   UNL     1      -1.258  13.051  23.162  0.00  0.00    +0.000 C 
BRANCH  21  22
ATOM     22  C   UNL     1      -2.763  13.001  23.075  0.00  0.00    +0.000 A 
ATOM     23  C   UNL     1      -3.558  12.782  24.195  0.00  0.00    +0.000 A 
ATOM     24  C   UNL     1      -4.953  12.777  24.100  0.00  0.00    +0.000 A 
ATOM     25  C   UNL     1      -5.570  12.967  22.861  0.00  0.00    +0.000 A 
ATOM     26  C   UNL     1      -4.767  13.175  21.730  0.00  0.00    +0.000 A 
ATOM     27  C   UNL     1      -3.385  13.194  21.842  0.00  0.00    +0.000 A 
ENDBRANCH  21  22
ENDBRANCH  11  21
TORSDOF 4
ENDMDL
MODEL 2
REMARK VINA RESULT:      -7.7      0.639      1.124
REMARK  Name = 
REMARK  4 active torsions:
REMARK  status: ('A' for Active; 'I' for Inactive)
REMARK    1  A    between atoms: C_4  and  C_5
REMARK    2  A    between atoms: C_5  and  N_6
REMARK    3  A    between atoms: N_16  and  C_17
REMARK    4  A    between atoms: C_17  and  C_18
REMARK                            x       y       z     vdW  Elec       q    Type
REMARK                         _______ _______ _______ _____ _____    ______ ____
ROOT
ATOM      1  N   UNL     1       0.543  10.609  19.428  0.00  0.00    +0.000 N 
ATOM      2  C   UNL     1       1.128   9.389  19.146  0.00  0.00    +0.000 A 
ATOM      3  C   UNL     1       1.501   8.781  17.944  0.00  0.00    +0.000 A 
ATOM      4  C   UNL     1       2.267   7.613  18.032  0.00  0.00    +0.000 A 
ATOM      5  C   UNL     1       2.607   7.061  19.265  0.00  0.00    +0.000 A 
ATOM      6  C   UNL     1       2.059   7.573  20.450  0.00  0.00    +0.000 A 
ATOM      7  C   UNL     1       1.274   8.743  20.377  0.00  0.00    +0.000 A 
ATOM      8  C   UNL     1       0.432   9.481  21.251  0.00  0.00    +0.000 A 
ATOM      9  C   UNL     1      -0.457   9.290  22.311  0.00  0.00    +0.000 A 
ATOM     10  C   UNL     1      -1.072  10.442  22.820  0.00  0.00    +0.000 A 
ATOM     11  N   UNL     1      -0.585  11.685  22.538  0.00  0.00    +0.000 N 
ATOM     12  C   UNL     1       0.327  11.879  21.579  0.00  0.00    +0.000 A 
ATOM     13  C   UNL     1       0.572  10.778  20.793  0.00  0.00    +0.000 A 
ENDROOT
BRANCH   1  14
ATOM     14  C   UNL     1      -0.157  11.520  18.523  0.00  0.00    +0.000 C 
BRANCH  14  18
ATOM     15  C   UNL     1      -4.238  10.718  17.324  0.00  0.00    +0.000 A 
ATOM     16  C   UNL     1      -3.988  11.607  18.368  0.00  0.00    +0.000 A 
ATOM     17  C   UNL     1      -2.684  11.793  18.838  0.00  0.00    +0.000 A 
ATOM     18  C   UNL     1      -1.601  11.099  18.259  0.00  0.00    +0.000 A 
ATOM     19  C   UNL     1      -1.881  10.159  17.258  0.00  0.00    +0.000 A 
ATOM     20  C   UNL     1      -3.188   9.981  16.787  0.00  0.00    +0.000 A 
ENDBRANCH  14  18
ENDBRANCH   1  14
BRANCH  11  21
ATOM     21  C   UNL     1      -1.190  12.885  23.165  0.00  0.00    +0.000 C 
BRANCH  21  22
ATOM     22  C   UNL     1      -2.432  13.307  22.419  0.00  0.00    +0.000 A 
ATOM     23  C   UNL     1      -2.452  14.434  21.605  0.00  0.00    +0.000 A 
ATOM     24  C   UNL     1      -3.602  14.788  20.891  0.00  0.00    +0.000 A 
ATOM     25  C   UNL     1      -4.763  14.019  21.011  0.00  0.00    +0.000 A 
ATOM     26  C   UNL     1      -4.744  12.890  21.843  0.00  0.00    +0.000 A 
ATOM     27  C   UNL     1      -3.592  12.542  22.532  0.00  0.00    +0.000 A 
ENDBRANCH  21  22
ENDBRANCH  11  21
TORSDOF 4
ENDMDL
MODEL 3
REMARK VINA RESULT:      -7.6      0.284      1.334
REMARK  Name = 
REMARK  4 active torsions:
REMARK  status: ('A' for Active; 'I' for Inactive)
REMARK    1  A    between atoms: C_4  and  C_5
REMARK    2  A    between atoms: C_5  and  N_6
REMARK    3  A    between atoms: N_16  and  C_17
REMARK    4  A    between atoms: C_17  and  C_18
REMARK                            x       y       z     vdW  Elec       q    Type
REMARK                         _______ _______ _______ _____ _____    ______ ____
ROOT
ATOM      1  N   UNL     1       0.658  10.735  19.453  0.00  0.00    +0.000 N 
ATOM      2  C   UNL     1       1.182   9.482  19.198  0.00  0.00    +0.000 A 
ATOM      3  C   UNL     1       1.595   8.859  18.017  0.00  0.00    +0.000 A 
ATOM      4  C   UNL     1       2.276   7.643  18.143  0.00  0.00    +0.000 A 
ATOM      5  C   UNL     1       2.495   7.061  19.390  0.00  0.00    +0.000 A 
ATOM      6  C   UNL     1       1.902   7.600  20.540  0.00  0.00    +0.000 A 
ATOM      7  C   UNL     1       1.201   8.819  20.428  0.00  0.00    +0.000 A 
ATOM      8  C   UNL     1       0.351   9.604  21.252  0.00  0.00    +0.000 A 
ATOM      9  C   UNL     1      -0.619   9.465  22.247  0.00  0.00    +0.000 A 
ATOM     10  C   UNL     1      -1.191  10.651  22.726  0.00  0.00    +0.000 A 
ATOM     11  N   UNL     1      -0.607  11.861  22.492  0.00  0.00    +0.000 N 
ATOM     12  C   UNL     1       0.379  12.002  21.599  0.00  0.00    +0.000 A 
ATOM     13  C   UNL     1       0.606  10.893  20.819  0.00  0.00    +0.000 A 
ENDROOT
BRANCH   1  14
ATOM     14  C   UNL     1       0.082  11.696  18.514  0.00  0.00    +0.000 C 
BRANCH  14  18
ATOM     15  C   UNL     1      -3.998  10.391  17.891  0.00  0.00    +0.000 A 
ATOM     16  C   UNL     1      -2.955   9.719  17.257  0.00  0.00    +0.000 A 
ATOM     17  C   UNL     1      -1.643  10.195  17.361  0.00  0.00    +0.000 A 
ATOM     18  C   UNL     1      -1.351  11.350  18.117  0.00  0.00    +0.000 A 
ATOM     19  C   UNL     1      -2.422  12.050  18.690  0.00  0.00    +0.000 A 
ATOM     20  C   UNL     1      -3.732  11.565  18.587  0.00  0.00    +0.000 A 
ENDBRANCH  14  18
ENDBRANCH   1  14
BRANCH  11  21
ATOM     21  C   UNL     1      -1.174  13.094  23.091  0.00  0.00    +0.000 C 
BRANCH  21  22
ATOM     22  C   UNL     1      -2.681  13.072  23.027  0.00  0.00    +0.000 A 
ATOM     23  C   UNL     1      -3.370  13.297  21.841  0.00  0.00    +0.000 A 
ATOM     24  C   UNL     1      -4.767  13.235  21.794  0.00  0.00    +0.000 A 
ATOM     25  C   UNL     1      -5.493  12.969  22.958  0.00  0.00    +0.000 A 
ATOM     26  C   UNL     1      -4.797  12.755  24.156  0.00  0.00    +0.000 A 
ATOM     27  C   UNL     1      -3.412  12.804  24.184  0.00  0.00    +0.000 A 
ENDBRANCH  21  22
ENDBRANCH  11  21
TORSDOF 4
ENDMDL
MODEL 4
REMARK VINA RESULT:      -7.4      4.212      9.981
REMARK  Name = 
REMARK  4 active torsions:
REMARK  status: ('A' for Active; 'I' for Inactive)
REMARK    1  A    between atoms: C_4  and  C_5
REMARK    2  A    between atoms: C_5  and  N_6
REMARK    3  A    between atoms: N_16  and  C_17
REMARK    4  A    between atoms: C_17  and  C_18
REMARK                            x       y       z     vdW  Elec       q    Type
REMARK                         _______ _______ _______ _____ _____    ______ ____
ROOT
ATOM      1  N   UNL     1       2.155   6.155  20.490  0.00  0.00    +0.000 N 
ATOM      2  C   UNL     1       1.372   7.292  20.544  0.00  0.00    +0.000 A 
ATOM      3  C   UNL     1       0.243   7.620  21.299  0.00  0.00    +0.000 A 
ATOM      4  C   UNL     1      -0.188   8.951  21.257  0.00  0.00    +0.000 A 
ATOM      5  C   UNL     1       0.461   9.897  20.465  0.00  0.00    +0.000 A 
ATOM      6  C   UNL     1       1.464   9.506  19.568  0.00  0.00    +0.000 A 
ATOM      7  C   UNL     1       1.900   8.165  19.588  0.00  0.00    +0.000 A 
ATOM      8  C   UNL     1       2.732   7.334  18.790  0.00  0.00    +0.000 A 
ATOM      9  C   UNL     1       3.103   7.138  17.459  0.00  0.00    +0.000 A 
ATOM     10  C   UNL     1       3.999   6.089  17.213  0.00  0.00    +0.000 A 
ATOM     11  N   UNL     1       4.720   5.524  18.224  0.00  0.00    +0.000 N 
ATOM     12  C   UNL     1       4.429   5.761  19.509  0.00  0.00    +0.000 A 
ATOM     13  C   UNL     1       3.253   6.443  19.711  0.00  0.00    +0.000 A 
ENDROOT
BRANCH   1  14
ATOM     14  C   UNL     1       1.857   4.813  20.988  0.00  0.00    +0.000 C 
BRANCH  14  18
ATOM     15  C   UNL     1       2.780   2.072  17.767  0.00  0.00    +0.000 A 
ATOM     16  C   UNL     1       1.811   3.056  17.579  0.00  0.00    +0.000 A 
ATOM     17  C   UNL     1       1.425   3.878  18.643  0.00  0.00    +0.000 A 
ATOM     18  C   UNL     1       2.015   3.736  19.917  0.00  0.00    +0.000 A 
ATOM     19  C   UNL     1       2.937   2.697  20.103  0.00  0.00    +0.000 A 
ATOM     20  C   UNL     1       3.324   1.881  19.032  0.00  0.00    +0.000 A 
ENDBRANCH  14  18
ENDBRANCH   1  14
BRANCH  11  21
ATOM     21  C   UNL     1       5.733   4.482  17.930  0.00  0.00    +0.000 C 
BRANCH  21  22
ATOM     22  C   UNL     1       6.051   4.450  16.456  0.00  0.00    +0.000 A 
ATOM     23  C   UNL     1       5.292   3.710  15.556  0.00  0.00    +0.000 A 
ATOM     24  C   UNL     1       5.580   3.724  14.187  0.00  0.00    +0.000 A 
ATOM     25  C   UNL     1       6.662   4.468  13.708  0.00  0.00    +0.000 A 
ATOM     26  C   UNL     1       7.434   5.203  14.619  0.00  0.00    +0.000 A 
ATOM     27  C   UNL     1       7.127   5.193  15.971  0.00  0.00    +0.000 A 
ENDBRANCH  21  22
ENDBRANCH  11  21
TORSDOF 4
ENDMDL
MODEL 5
REMARK VINA RESULT:      -7.1      2.883      6.902
REMARK  Name = 
REMARK  4 active torsions:
REMARK  status: ('A' for Active; 'I' for Inactive)
REMARK    1  A    between atoms: C_4  and  C_5
REMARK    2  A    between atoms: C_5  and  N_6
REMARK    3  A    between atoms: N_16  and  C_17
REMARK    4  A    between atoms: C_17  and  C_18
REMARK                            x       y       z     vdW  Elec       q    Type
REMARK                         _______ _______ _______ _____ _____    ______ ____
ROOT
ATOM      1  N   UNL     1      -0.032  10.840  19.460  0.00  0.00    +0.000 N 
ATOM      2  C   UNL     1       0.379  12.065  18.969  0.00  0.00    +0.000 A 
ATOM      3  C   UNL     1      -0.290  13.280  18.795  0.00  0.00    +0.000 A 
ATOM      4  C   UNL     1       0.488  14.393  18.458  0.00  0.00    +0.000 A 
ATOM      5  C   UNL     1       1.864  14.284  18.266  0.00  0.00    +0.000 A 
ATOM      6  C   UNL     1       2.482  13.026  18.251  0.00  0.00    +0.000 A 
ATOM      7  C   UNL     1       1.709  11.891  18.575  0.00  0.00    +0.000 A 
ATOM      8  C   UNL     1       1.870  10.481  18.530  0.00  0.00    +0.000 A 
ATOM      9  C   UNL     1       2.491   9.489  17.769  0.00  0.00    +0.000 A 
ATOM     10  C   UNL     1       2.287   8.167  18.188  0.00  0.00    +0.000 A 
ATOM     11  N   UNL     1       1.808   7.887  19.434  0.00  0.00    +0.000 N 
ATOM     12  C   UNL     1       1.279   8.839  20.211  0.00  0.00    +0.000 A 
ATOM     13  C   UNL     1       1.086  10.047  19.584  0.00  0.00    +0.000 A 
ENDROOT
BRANCH   1  14
ATOM     14  C   UNL     1      -1.392  10.345  19.666  0.00  0.00    +0.000 C 
BRANCH  14  18
ATOM     15  C   UNL     1      -3.447  10.951  15.904  0.00  0.00    +0.000 A 
ATOM     16  C   UNL     1      -3.967  11.505  17.071  0.00  0.00    +0.000 A 
ATOM     17  C   UNL     1      -3.376  11.228  18.309  0.00  0.00    +0.000 A 
ATOM     18  C   UNL     1      -2.239  10.397  18.396  0.00  0.00    +0.000 A 
ATOM     19  C   UNL     1      -1.772   9.795  17.221  0.00  0.00    +0.000 A 
ATOM     20  C   UNL     1      -2.365  10.081  15.984  0.00  0.00    +0.000 A 
ENDBRANCH  14  18
ENDBRANCH   1  14
BRANCH  11  21
ATOM     21  C   UNL     1       1.691   6.481  19.892  0.00  0.00    +0.000 C 
BRANCH  21  22
ATOM     22  C   UNL     1       2.582   5.579  19.076  0.00  0.00    +0.000 A 
ATOM     23  C   UNL     1       3.957   5.530  19.273  0.00  0.00    +0.000 A 
ATOM     24  C   UNL     1       4.762   4.658  18.532  0.00  0.00    +0.000 A 
ATOM     25  C   UNL     1       4.190   3.838  17.557  0.00  0.00    +0.000 A 
ATOM     26  C   UNL     1       2.804   3.898  17.350  0.00  0.00    +0.000 A 
ATOM     27  C   UNL     1       2.016   4.755  18.103  0.00  0.00    +0.000 A 
ENDBRANCH  21  22
ENDBRANCH  11  21
TORSDOF 4
ENDMDL
MODEL 6
REMARK VINA RESULT:      -6.9      5.372     10.830
REMARK  Name = 
REMARK  4 active torsions:
REMARK  status: ('A' for Active; 'I' for Inactive)
REMARK    1  A    between atoms: C_4  and  C_5
REMARK    2  A    between atoms: C_5  and  N_6
REMARK    3  A    between atoms: N_16  and  C_17
REMARK    4  A    between atoms: C_17  and  C_18
REMARK                            x       y       z     vdW  Elec       q    Type
REMARK                         _______ _______ _______ _____ _____    ______ ____
ROOT
ATOM      1  N   UNL     1       4.165   5.710  19.095  0.00  0.00    +0.000 N 
ATOM      2  C   UNL     1       3.102   6.542  19.386  0.00  0.00    +0.000 A 
ATOM      3  C   UNL     1       2.116   6.496  20.376  0.00  0.00    +0.000 A 
ATOM      4  C   UNL     1       1.299   7.624  20.515  0.00  0.00    +0.000 A 
ATOM      5  C   UNL     1       1.439   8.727  19.676  0.00  0.00    +0.000 A 
ATOM      6  C   UNL     1       2.296   8.674  18.568  0.00  0.00    +0.000 A 
ATOM      7  C   UNL     1       3.117   7.538  18.406  0.00  0.00    +0.000 A 
ATOM      8  C   UNL     1       3.972   7.013  17.400  0.00  0.00    +0.000 A 
ATOM      9  C   UNL     1       4.090   6.946  16.010  0.00  0.00    +0.000 A 
ATOM     10  C   UNL     1       5.190   6.233  15.515  0.00  0.00    +0.000 A 
ATOM     11  N   UNL     1       6.249   5.923  16.317  0.00  0.00    +0.000 N 
ATOM     12  C   UNL     1       6.183   6.054  17.647  0.00  0.00    +0.000 A 
ATOM     13  C   UNL     1       4.927   6.331  18.131  0.00  0.00    +0.000 A 
ENDROOT
BRANCH   1  14
ATOM     14  C   UNL     1       4.409   4.341  19.549  0.00  0.00    +0.000 C 
BRANCH  14  18
ATOM     15  C   UNL     1       0.520   2.441  19.623  0.00  0.00    +0.000 A 
ATOM     16  C   UNL     1       1.251   2.562  20.803  0.00  0.00    +0.000 A 
ATOM     17  C   UNL     1       2.553   3.075  20.777  0.00  0.00    +0.000 A 
ATOM     18  C   UNL     1       3.142   3.489  19.564  0.00  0.00    +0.000 A 
ATOM     19  C   UNL     1       2.418   3.295  18.380  0.00  0.00    +0.000 A 
ATOM     20  C   UNL     1       1.113   2.787  18.414  0.00  0.00    +0.000 A 
ENDBRANCH  14  18
ENDBRANCH   1  14
BRANCH  11  21
ATOM     21  C   UNL     1       7.445   5.254  15.751  0.00  0.00    +0.000 C 
BRANCH  21  22
ATOM     22  C   UNL     1       7.157   4.730  14.365  0.00  0.00    +0.000 A 
ATOM     23  C   UNL     1       6.229   3.720  14.140  0.00  0.00    +0.000 A 
ATOM     24  C   UNL     1       5.948   3.275  12.844  0.00  0.00    +0.000 A 
ATOM     25  C   UNL     1       6.624   3.827  11.753  0.00  0.00    +0.000 A 
ATOM     26  C   UNL     1       7.570   4.836  11.984  0.00  0.00    +0.000 A 
ATOM     27  C   UNL     1       7.827   5.279  13.272  0.00  0.00    +0.000 A 
ENDBRANCH  21  22
ENDBRANCH  11  21
TORSDOF 4
ENDMDL
MODEL 7
REMARK VINA RESULT:      -6.9      1.580      2.856
REMARK  Name = 
REMARK  4 active torsions:
REMARK  status: ('A' for Active; 'I' for Inactive)
REMARK    1  A    between atoms: C_4  and  C_5
REMARK    2  A    between atoms: C_5  and  N_6
REMARK    3  A    between atoms: N_16  and  C_17
REMARK    4  A    between atoms: C_17  and  C_18
REMARK                            x       y       z     vdW  Elec       q    Type
REMARK                         _______ _______ _______ _____ _____    ______ ____
ROOT
ATOM      1  N   UNL     1       0.358  10.854  19.513  0.00  0.00    +0.000 N 
ATOM      2  C   UNL     1       0.962   9.659  19.173  0.00  0.00    +0.000 A 
ATOM      3  C   UNL     1       1.336   9.112  17.942  0.00  0.00    +0.000 A 
ATOM      4  C   UNL     1       2.122   7.955  17.972  0.00  0.00    +0.000 A 
ATOM      5  C   UNL     1       2.483   7.355  19.176  0.00  0.00    +0.000 A 
ATOM      6  C   UNL     1       1.935   7.804  20.386  0.00  0.00    +0.000 A 
ATOM      7  C   UNL     1       1.129   8.962  20.372  0.00  0.00    +0.000 A 
ATOM      8  C   UNL     1       0.282   9.644  21.285  0.00  0.00    +0.000 A 
ATOM      9  C   UNL     1      -0.595   9.391  22.341  0.00  0.00    +0.000 A 
ATOM     10  C   UNL     1      -1.225  10.507  22.907  0.00  0.00    +0.000 A 
ATOM     11  N   UNL     1      -0.763  11.770  22.677  0.00  0.00    +0.000 N 
ATOM     12  C   UNL     1       0.138  12.024  21.720  0.00  0.00    +0.000 A 
ATOM     13  C   UNL     1       0.396  10.963  20.885  0.00  0.00    +0.000 A 
ENDROOT
BRANCH   1  14
ATOM     14  C   UNL     1      -0.365  11.792  18.656  0.00  0.00    +0.000 C 
BRANCH  14  18
ATOM     15  C   UNL     1       1.890  15.487  18.704  0.00  0.00    +0.000 A 
ATOM     16  C   UNL     1       0.509  15.520  18.884  0.00  0.00    +0.000 A 
ATOM     17  C   UNL     1      -0.246  14.348  18.762  0.00  0.00    +0.000 A 
ATOM     18  C   UNL     1       0.374  13.115  18.471  0.00  0.00    +0.000 A 
ATOM     19  C   UNL     1       1.754  13.115  18.226  0.00  0.00    +0.000 A 
ATOM     20  C   UNL     1       2.506  14.290  18.356  0.00  0.00    +0.000 A 
ENDBRANCH  14  18
ENDBRANCH   1  14
BRANCH  11  21
ATOM     21  C   UNL     1      -1.383  12.930  23.362  0.00  0.00    +0.000 C 
BRANCH  21  22
ATOM     22  C   UNL     1      -2.873  12.955  23.123  0.00  0.00    +0.000 A 
ATOM     23  C   UNL     1      -3.411  13.002  21.842  0.00  0.00    +0.000 A 
ATOM     24  C   UNL     1      -4.795  12.986  21.640  0.00  0.00    +0.000 A 
ATOM     25  C   UNL     1      -5.661  12.949  22.737  0.00  0.00    +0.000 A 
ATOM     26  C   UNL     1      -5.116  12.915  24.028  0.00  0.00    +0.000 A 
ATOM     27  C   UNL     1      -3.742  12.915  24.213  0.00  0.00    +0.000 A 
ENDBRANCH  21  22
ENDBRANCH  11  21
TORSDOF 4
ENDMDL
MODEL 8
REMARK VINA RESULT:      -6.9      5.029     10.339
REMARK  Name = 
REMARK  4 active torsions:
REMARK  status: ('A' for Active; 'I' for Inactive)
REMARK    1  A    between atoms: C_4  and  C_5
REMARK    2  A    between atoms: C_5  and  N_6
REMARK    3  A    between atoms: N_16  and  C_17
REMARK    4  A    between atoms: C_17  and  C_18
REMARK                            x       y       z     vdW  Elec       q    Type
REMARK                         _______ _______ _______ _____ _____    ______ ____
ROOT
ATOM      1  N   UNL     1       3.165   5.612  18.807  0.00  0.00    +0.000 N 
ATOM      2  C   UNL     1       2.414   4.663  19.474  0.00  0.00    +0.000 A 
ATOM      3  C   UNL     1       1.483   4.761  20.512  0.00  0.00    +0.000 A 
ATOM      4  C   UNL     1       0.746   3.612  20.818  0.00  0.00    +0.000 A 
ATOM      5  C   UNL     1       0.961   2.412  20.143  0.00  0.00    +0.000 A 
ATOM      6  C   UNL     1       2.031   2.283  19.246  0.00  0.00    +0.000 A 
ATOM      7  C   UNL     1       2.793   3.429  18.937  0.00  0.00    +0.000 A 
ATOM      8  C   UNL     1       4.000   3.715  18.246  0.00  0.00    +0.000 A 
ATOM      9  C   UNL     1       5.255   3.159  17.990  0.00  0.00    +0.000 A 
ATOM     10  C   UNL     1       6.130   3.933  17.215  0.00  0.00    +0.000 A 
ATOM     11  N   UNL     1       5.676   4.989  16.480  0.00  0.00    +0.000 N 
ATOM     12  C   UNL     1       4.447   5.488  16.655  0.00  0.00    +0.000 A 
ATOM     13  C   UNL     1       3.777   4.985  17.745  0.00  0.00    +0.000 A 
ENDROOT
BRANCH   1  14
ATOM     14  C   UNL     1       3.448   6.993  19.193  0.00  0.00    +0.000 C 
BRANCH  14  18
ATOM     15  C   UNL     1       0.337   9.999  19.040  0.00  0.00    +0.000 A 
ATOM     16  C   UNL     1       0.621   9.361  20.246  0.00  0.00    +0.000 A 
ATOM     17  C   UNL     1       1.546   8.312  20.288  0.00  0.00    +0.000 A 
ATOM     18  C   UNL     1       2.217   7.892  19.120  0.00  0.00    +0.000 A 
ATOM     19  C   UNL     1       1.867   8.500  17.906  0.00  0.00    +0.000 A 
ATOM     20  C   UNL     1       0.945   9.553  17.871  0.00  0.00    +0.000 A 
ENDBRANCH  14  18
ENDBRANCH   1  14
BRANCH  11  21
ATOM     21  C   UNL     1       6.600   5.735  15.592  0.00  0.00    +0.000 C 
BRANCH  21  22
ATOM     22  C   UNL     1       6.701   5.065  14.245  0.00  0.00    +0.000 A 
ATOM     23  C   UNL     1       7.678   5.417  13.320  0.00  0.00    +0.000 A 
ATOM     24  C   UNL     1       7.778   4.757  12.090  0.00  0.00    +0.000 A 
ATOM     25  C   UNL     1       6.872   3.745  11.764  0.00  0.00    +0.000 A 
ATOM     26  C   UNL     1       5.879   3.401  12.693  0.00  0.00    +0.000 A 
ATOM     27  C   UNL     1       5.801   4.052  13.914  0.00  0.00    +0.000 A 
ENDBRANCH  21  22
ENDBRANCH  11  21
TORSDOF 4
ENDMDL
MODEL 9
REMARK VINA RESULT:      -6.8      4.256      8.112
REMARK  Name = 
REMARK  4 active torsions:
REMARK  status: ('A' for Active; 'I' for Inactive)
REMARK    1  A    between atoms: C_4  and  C_5
REMARK    2  A    between atoms: C_5  and  N_6
REMARK    3  A    between atoms: N_16  and  C_17
REMARK    4  A    between atoms: C_17  and  C_18
REMARK                            x       y       z     vdW  Elec       q    Type
REMARK                         _______ _______ _______ _____ _____    ______ ____
ROOT
ATOM      1  N   UNL     1       3.634   4.103  16.773  0.00  0.00    +0.000 N 
ATOM      2  C   UNL     1       4.792   4.132  16.020  0.00  0.00    +0.000 A 
ATOM      3  C   UNL     1       5.285   3.288  15.021  0.00  0.00    +0.000 A 
ATOM      4  C   UNL     1       6.410   3.727  14.314  0.00  0.00    +0.000 A 
ATOM      5  C   UNL     1       7.034   4.934  14.621  0.00  0.00    +0.000 A 
ATOM      6  C   UNL     1       6.645   5.667  15.752  0.00  0.00    +0.000 A 
ATOM      7  C   UNL     1       5.521   5.231  16.483  0.00  0.00    +0.000 A 
ATOM      8  C   UNL     1       4.902   5.554  17.720  0.00  0.00    +0.000 A 
ATOM      9  C   UNL     1       5.224   5.977  19.011  0.00  0.00    +0.000 A 
ATOM     10  C   UNL     1       4.151   6.124  19.901  0.00  0.00    +0.000 A 
ATOM     11  N   UNL     1       2.864   6.184  19.453  0.00  0.00    +0.000 N 
ATOM     12  C   UNL     1       2.545   5.858  18.195  0.00  0.00    +0.000 A 
ATOM     13  C   UNL     1       3.567   5.283  17.477  0.00  0.00    +0.000 A 
ENDROOT
BRANCH   1  14
ATOM     14  C   UNL     1       2.699   2.997  16.973  0.00  0.00    +0.000 C 
BRANCH  14  18
ATOM     15  C   UNL     1       2.060   2.702  21.244  0.00  0.00    +0.000 A 
ATOM     16  C   UNL     1       3.334   2.489  20.722  0.00  0.00    +0.000 A 
ATOM     17  C   UNL     1       3.534   2.473  19.337  0.00  0.00    +0.000 A 
ATOM     18  C   UNL     1       2.459   2.685  18.449  0.00  0.00    +0.000 A 
ATOM     19  C   UNL     1       1.175   2.830  18.992  0.00  0.00    +0.000 A 
ATOM     20  C   UNL     1       0.982   2.851  20.379  0.00  0.00    +0.000 A 
ENDBRANCH  14  18
ENDBRANCH   1  14
BRANCH  11  21
ATOM     21  C   UNL     1       1.752   6.437  20.401  0.00  0.00    +0.000 C 
BRANCH  21  22
ATOM     22  C   UNL     1       1.425   7.908  20.458  0.00  0.00    +0.000 A 
ATOM     23  C   UNL     1       1.498   8.722  19.332  0.00  0.00    +0.000 A 
ATOM     24  C   UNL     1       1.154  10.076  19.397  0.00  0.00    +0.000 A 
ATOM     25  C   UNL     1       0.755  10.638  20.612  0.00  0.00    +0.000 A 
ATOM     26  C   UNL     1       0.694   9.819  21.749  0.00  0.00    +0.000 A 
ATOM     27  C   UNL     1       1.023   8.475  21.667  0.00  0.00    +0.000 A 
ENDBRANCH  21  22
ENDBRANCH  11  21
TORSDOF 4
ENDMDL
