MODEL 1
REMARK VINA RESULT:      -8.0      0.000      0.000
REMARK  Name = 
REMARK  3 active torsions:
REMARK  status: ('A' for Active; 'I' for Inactive)
REMARK    1  A    between atoms: C_2  and  C_4
REMARK    2  A    between atoms: C_5  and  C_6
REMARK    3  A    between atoms: N_20  and  C_21
REMARK                            x       y       z     vdW  Elec       q    Type
REMARK                         _______ _______ _______ _____ _____    ______ ____
ROOT
ATOM      1  C   UNL     1       0.689   9.979  21.298  0.00  0.00    +0.000 A 
ATOM      2  C   UNL     1       0.630  11.376  20.864  0.00  0.00    +0.000 A 
ATOM      3  C   UNL     1       1.053  11.371  19.546  0.00  0.00    +0.000 A 
ATOM      4 CL   UNL     1       1.197  12.616  18.372  0.00  0.00    +0.000 Cl
ATOM      5  N   UNL     1       1.384  10.108  19.166  0.00  0.00    +0.000 N 
ATOM      6  C   UNL     1       1.193   9.229  20.221  0.00  0.00    +0.000 A 
ATOM      7  C   UNL     1       1.536   7.769  20.094  0.00  0.00    +0.000 C 
ATOM      8  N   UNL     1       2.266   7.503  18.852  0.00  0.00    +0.000 N 
ATOM      9  C   UNL     1       3.260   6.541  18.869  0.00  0.00    +0.000 C 
ATOM     10  O   UNL     1       3.538   5.899  19.878  0.00  0.00    +0.000 OA
ATOM     11  N   UNL     1       3.901   6.326  17.677  0.00  0.00    +0.000 N 
ATOM     12  C   UNL     1       1.739   8.194  17.678  0.00  0.00    +0.000 C 
ATOM     13  C   UNL     1       1.916   9.689  17.874  0.00  0.00    +0.000 C 
ATOM     14  H   UNL     1       3.923   7.088  17.024  0.00  0.00    +0.000 HD
ENDROOT
BRANCH   2  15
ATOM     15  C   UNL     1       0.163  12.590  21.561  0.00  0.00    +0.000 A 
ATOM     16  C   UNL     1      -1.022  12.590  22.319  0.00  0.00    +0.000 A 
ATOM     17  C   UNL     1      -1.419  13.704  23.067  0.00  0.00    +0.000 A 
ATOM     18  C   UNL     1      -0.668  14.871  23.026  0.00  0.00    +0.000 A 
ATOM     19  C   UNL     1       0.482  14.915  22.241  0.00  0.00    +0.000 A 
ATOM     20  C   UNL     1       0.902  13.781  21.531  0.00  0.00    +0.000 A 
ENDBRANCH   2  15
BRANCH  11  21
ATOM     21  C   UNL     1       5.008   5.373  17.553  0.00  0.00    +0.000 C 
ATOM     22  C   UNL     1       6.326   6.003  18.018  0.00  0.00    +0.000 C 
ATOM     23  C   UNL     1       7.507   5.097  17.691  0.00  0.00    +0.000 C 
ATOM     24  O   UNL     1       7.524   4.775  16.302  0.00  0.00    +0.000 OA
ATOM     25  C   UNL     1       6.364   4.043  15.912  0.00  0.00    +0.000 C 
ATOM     26  C   UNL     1       5.116   4.889  16.105  0.00  0.00    +0.000 C 
ENDBRANCH  11  21
BRANCH   1  28
ATOM     27  N   UNL     1      -0.809   8.731  22.719  0.00  0.00    +0.000 N 
ATOM     28  C   UNL     1       0.356   9.441  22.622  0.00  0.00    +0.000 C 
ATOM     29  O   UNL     1       1.033   9.617  23.631  0.00  0.00    +0.000 OA
ATOM     30  H   UNL     1      -1.069   8.410  23.642  0.00  0.00    +0.000 HD
ATOM     31  H   UNL     1      -1.509   8.709  21.997  0.00  0.00    +0.000 HD
ENDBRANCH   1  28
TORSDOF 3
ENDMDL
MODEL 2
REMARK VINA RESULT:      -7.6      3.057      4.368
REMARK  Name = 
REMARK  3 active torsions:
REMARK  status: ('A' for Active; 'I' for Inactive)
REMARK    1  A    between atoms: C_2  and  C_4
REMARK    2  A    between atoms: C_5  and  C_6
REMARK    3  A    between atoms: N_20  and  C_21
REMARK                            x       y       z     vdW  Elec       q    Type
REMARK                         _______ _______ _______ _____ _____    ______ ____
ROOT
ATOM      1  C   UNL     1      -0.780  12.124  19.755  0.00  0.00    +0.000 A 
ATOM      2  C   UNL     1      -1.775  12.435  20.783  0.00  0.00    +0.000 A 
ATOM      3  C   UNL     1      -1.522  11.553  21.820  0.00  0.00    +0.000 A 
ATOM      4 CL   UNL     1      -2.235  11.354  23.369  0.00  0.00    +0.000 Cl
ATOM      5  N   UNL     1      -0.491  10.731  21.493  0.00  0.00    +0.000 N 
ATOM      6  C   UNL     1      -0.022  11.037  20.224  0.00  0.00    +0.000 A 
ATOM      7  C   UNL     1       1.084  10.241  19.586  0.00  0.00    +0.000 C 
ATOM      8  N   UNL     1       1.393   9.042  20.369  0.00  0.00    +0.000 N 
ATOM      9  C   UNL     1       1.749   7.890  19.691  0.00  0.00    +0.000 C 
ATOM     10  O   UNL     1       1.827   7.844  18.466  0.00  0.00    +0.000 OA
ATOM     11  N   UNL     1       2.039   6.803  20.474  0.00  0.00    +0.000 N 
ATOM     12  C   UNL     1       1.439   9.255  21.814  0.00  0.00    +0.000 C 
ATOM     13  C   UNL     1       0.050   9.637  22.293  0.00  0.00    +0.000 C 
ATOM     14  H   UNL     1       1.610   6.764  21.381  0.00  0.00    +0.000 HD
ENDROOT
BRANCH   2  15
ATOM     15  C   UNL     1      -2.811  13.485  20.847  0.00  0.00    +0.000 A 
ATOM     16  C   UNL     1      -2.471  14.840  21.009  0.00  0.00    +0.000 A 
ATOM     17  C   UNL     1      -3.436  15.853  20.967  0.00  0.00    +0.000 A 
ATOM     18  C   UNL     1      -4.778  15.527  20.820  0.00  0.00    +0.000 A 
ATOM     19  C   UNL     1      -5.146  14.188  20.709  0.00  0.00    +0.000 A 
ATOM     20  C   UNL     1      -4.171  13.180  20.705  0.00  0.00    +0.000 A 
ENDBRANCH   2  15
BRANCH  11  21
ATOM     21  C   UNL     1       2.383   5.501  19.897  0.00  0.00    +0.000 C 
ATOM     22  C   UNL     1       1.849   4.358  20.768  0.00  0.00    +0.000 C 
ATOM     23  C   UNL     1       2.386   3.014  20.291  0.00  0.00    +0.000 C 
ATOM     24  O   UNL     1       3.811   3.032  20.238  0.00  0.00    +0.000 OA
ATOM     25  C   UNL     1       4.296   3.989  19.299  0.00  0.00    +0.000 C 
ATOM     26  C   UNL     1       3.900   5.393  19.725  0.00  0.00    +0.000 C 
ENDBRANCH  11  21
BRANCH   1  28
ATOM     27  N   UNL     1      -1.458  12.334  17.449  0.00  0.00    +0.000 N 
ATOM     28  C   UNL     1      -0.623  12.763  18.444  0.00  0.00    +0.000 C 
ATOM     29  O   UNL     1       0.219  13.618  18.188  0.00  0.00    +0.000 OA
ATOM     30  H   UNL     1      -1.311  12.731  16.531  0.00  0.00    +0.000 HD
ATOM     31  H   UNL     1      -2.033  11.512  17.522  0.00  0.00    +0.000 HD
ENDBRANCH   1  28
TORSDOF 3
ENDMDL
MODEL 3
REMARK VINA RESULT:      -7.3      3.110      4.209
REMARK  Name = 
REMARK  3 active torsions:
REMARK  status: ('A' for Active; 'I' for Inactive)
REMARK    1  A    between atoms: C_2  and  C_4
REMARK    2  A    between atoms: C_5  and  C_6
REMARK    3  A    between atoms: N_20  and  C_21
REMARK                            x       y       z     vdW  Elec       q    Type
REMARK                         _______ _______ _______ _____ _____    ______ ____
ROOT
ATOM      1  C   UNL     1      -1.083  11.669  19.437  0.00  0.00    +0.000 A 
ATOM      2  C   UNL     1      -1.914  12.001  20.595  0.00  0.00    +0.000 A 
ATOM      3  C   UNL     1      -1.388  11.275  21.648  0.00  0.00    +0.000 A 
ATOM      4 CL   UNL     1      -1.796  11.190  23.315  0.00  0.00    +0.000 Cl
ATOM      5  N   UNL     1      -0.341  10.521  21.220  0.00  0.00    +0.000 N 
ATOM      6  C   UNL     1      -0.136  10.721  19.863  0.00  0.00    +0.000 A 
ATOM      7  C   UNL     1       0.928   9.966  19.113  0.00  0.00    +0.000 C 
ATOM      8  N   UNL     1       1.502   8.901  19.939  0.00  0.00    +0.000 N 
ATOM      9  C   UNL     1       1.866   7.717  19.323  0.00  0.00    +0.000 C 
ATOM     10  O   UNL     1       1.737   7.536  18.115  0.00  0.00    +0.000 OA
ATOM     11  N   UNL     1       2.409   6.761  20.142  0.00  0.00    +0.000 N 
ATOM     12  C   UNL     1       1.772   9.284  21.323  0.00  0.00    +0.000 C 
ATOM     13  C   UNL     1       0.452   9.585  22.010  0.00  0.00    +0.000 C 
ATOM     14  H   UNL     1       2.150   6.787  21.112  0.00  0.00    +0.000 HD
ENDROOT
BRANCH   2  15
ATOM     15  C   UNL     1      -3.038  12.948  20.745  0.00  0.00    +0.000 A 
ATOM     16  C   UNL     1      -4.291  12.696  20.156  0.00  0.00    +0.000 A 
ATOM     17  C   UNL     1      -5.391  13.533  20.377  0.00  0.00    +0.000 A 
ATOM     18  C   UNL     1      -5.247  14.680  21.146  0.00  0.00    +0.000 A 
ATOM     19  C   UNL     1      -4.003  14.980  21.697  0.00  0.00    +0.000 A 
ATOM     20  C   UNL     1      -2.916  14.114  21.513  0.00  0.00    +0.000 A 
ENDBRANCH   2  15
BRANCH  11  21
ATOM     21  C   UNL     1       2.796   5.439  19.641  0.00  0.00    +0.000 C 
ATOM     22  C   UNL     1       2.348   4.336  20.606  0.00  0.00    +0.000 C 
ATOM     23  C   UNL     1       2.932   2.988  20.201  0.00  0.00    +0.000 C 
ATOM     24  O   UNL     1       4.351   3.068  20.095  0.00  0.00    +0.000 OA
ATOM     25  C   UNL     1       4.758   3.979  19.076  0.00  0.00    +0.000 C 
ATOM     26  C   UNL     1       4.310   5.390  19.421  0.00  0.00    +0.000 C 
ENDBRANCH  11  21
BRANCH   1  28
ATOM     27  N   UNL     1      -0.622  13.355  17.774  0.00  0.00    +0.000 N 
ATOM     28  C   UNL     1      -1.228  12.163  18.063  0.00  0.00    +0.000 C 
ATOM     29  O   UNL     1      -1.874  11.595  17.188  0.00  0.00    +0.000 OA
ATOM     30  H   UNL     1      -0.771  13.726  16.845  0.00  0.00    +0.000 HD
ATOM     31  H   UNL     1      -0.246  13.972  18.474  0.00  0.00    +0.000 HD
ENDBRANCH   1  28
TORSDOF 3
ENDMDL
MODEL 4
REMARK VINA RESULT:      -7.1      1.461      1.984
REMARK  Name = 
REMARK  3 active torsions:
REMARK  status: ('A' for Active; 'I' for Inactive)
REMARK    1  A    between atoms: C_2  and  C_4
REMARK    2  A    between atoms: C_5  and  C_6
REMARK    3  A    between atoms: N_20  and  C_21
REMARK                            x       y       z     vdW  Elec       q    Type
REMARK                         _______ _______ _______ _____ _____    ______ ____
ROOT
ATOM      1  C   UNL     1       0.152  11.519  21.345  0.00  0.00    +0.000 A 
ATOM      2  C   UNL     1       0.515  12.886  20.968  0.00  0.00    +0.000 A 
ATOM      3  C   UNL     1       1.165  12.773  19.752  0.00  0.00    +0.000 A 
ATOM      4 CL   UNL     1       1.825  13.941  18.679  0.00  0.00    +0.000 Cl
ATOM      5  N   UNL     1       1.247  11.467  19.385  0.00  0.00    +0.000 N 
ATOM      6  C   UNL     1       0.654  10.665  20.348  0.00  0.00    +0.000 A 
ATOM      7  C   UNL     1       0.652   9.165  20.223  0.00  0.00    +0.000 C 
ATOM      8  N   UNL     1       1.517   8.724  19.126  0.00  0.00    +0.000 N 
ATOM      9  C   UNL     1       2.227   7.548  19.284  0.00  0.00    +0.000 C 
ATOM     10  O   UNL     1       2.146   6.860  20.299  0.00  0.00    +0.000 OA
ATOM     11  N   UNL     1       3.010   7.177  18.222  0.00  0.00    +0.000 N 
ATOM     12  C   UNL     1       1.403   9.519  17.906  0.00  0.00    +0.000 C 
ATOM     13  C   UNL     1       1.896  10.926  18.195  0.00  0.00    +0.000 C 
ATOM     14  H   UNL     1       3.339   7.909  17.617  0.00  0.00    +0.000 HD
ENDROOT
BRANCH   2  15
ATOM     15  C   UNL     1       0.233  14.181  21.619  0.00  0.00    +0.000 A 
ATOM     16  C   UNL     1       1.267  14.978  22.142  0.00  0.00    +0.000 A 
ATOM     17  C   UNL     1       1.022  16.252  22.668  0.00  0.00    +0.000 A 
ATOM     18  C   UNL     1      -0.277  16.736  22.738  0.00  0.00    +0.000 A 
ATOM     19  C   UNL     1      -1.325  15.945  22.274  0.00  0.00    +0.000 A 
ATOM     20  C   UNL     1      -1.071  14.688  21.705  0.00  0.00    +0.000 A 
ENDBRANCH   2  15
BRANCH  11  21
ATOM     21  C   UNL     1       3.858   5.982  18.262  0.00  0.00    +0.000 C 
ATOM     22  C   UNL     1       5.167   6.213  17.499  0.00  0.00    +0.000 C 
ATOM     23  C   UNL     1       5.949   4.915  17.355  0.00  0.00    +0.000 C 
ATOM     24  O   UNL     1       5.143   3.906  16.750  0.00  0.00    +0.000 OA
ATOM     25  C   UNL     1       4.010   3.579  17.552  0.00  0.00    +0.000 C 
ATOM     26  C   UNL     1       3.095   4.785  17.688  0.00  0.00    +0.000 C 
ENDBRANCH  11  21
BRANCH   1  28
ATOM     27  N   UNL     1      -1.824  11.537  22.729  0.00  0.00    +0.000 N 
ATOM     28  C   UNL     1      -0.544  11.084  22.561  0.00  0.00    +0.000 C 
ATOM     29  O   UNL     1      -0.042  10.379  23.431  0.00  0.00    +0.000 OA
ATOM     30  H   UNL     1      -2.284  11.287  23.594  0.00  0.00    +0.000 HD
ATOM     31  H   UNL     1      -2.234  12.266  22.170  0.00  0.00    +0.000 HD
ENDBRANCH   1  28
TORSDOF 3
ENDMDL
MODEL 5
REMARK VINA RESULT:      -7.0      2.889      4.005
REMARK  Name = 
REMARK  3 active torsions:
REMARK  status: ('A' for Active; 'I' for Inactive)
REMARK    1  A    between atoms: C_2  and  C_4
REMARK    2  A    between atoms: C_5  and  C_6
REMARK    3  A    between atoms: N_20  and  C_21
REMARK                            x       y       z     vdW  Elec       q    Type
REMARK                         _______ _______ _______ _____ _____    ______ ____
ROOT
ATOM      1  C   UNL     1      -0.656  12.333  19.707  0.00  0.00    +0.000 A 
ATOM      2  C   UNL     1      -1.573  12.479  20.839  0.00  0.00    +0.000 A 
ATOM      3  C   UNL     1      -1.241  11.463  21.717  0.00  0.00    +0.000 A 
ATOM      4 CL   UNL     1      -1.837  11.034  23.270  0.00  0.00    +0.000 Cl
ATOM      5  N   UNL     1      -0.232  10.712  21.203  0.00  0.00    +0.000 N 
ATOM      6  C   UNL     1       0.141  11.203  19.961  0.00  0.00    +0.000 A 
ATOM      7  C   UNL     1       1.202  10.523  19.138  0.00  0.00    +0.000 C 
ATOM      8  N   UNL     1       1.574   9.230  19.717  0.00  0.00    +0.000 N 
ATOM      9  C   UNL     1       1.886   8.193  18.857  0.00  0.00    +0.000 C 
ATOM     10  O   UNL     1       1.874   8.322  17.636  0.00  0.00    +0.000 OA
ATOM     11  N   UNL     1       2.239   7.010  19.454  0.00  0.00    +0.000 N 
ATOM     12  C   UNL     1       1.725   9.236  21.170  0.00  0.00    +0.000 C 
ATOM     13  C   UNL     1       0.373   9.524  21.798  0.00  0.00    +0.000 C 
ATOM     14  H   UNL     1       1.878   6.835  20.375  0.00  0.00    +0.000 HD
ENDROOT
BRANCH   2  15
ATOM     15  C   UNL     1      -2.608  13.492  21.125  0.00  0.00    +0.000 A 
ATOM     16  C   UNL     1      -3.940  13.317  20.708  0.00  0.00    +0.000 A 
ATOM     17  C   UNL     1      -4.949  14.220  21.063  0.00  0.00    +0.000 A 
ATOM     18  C   UNL     1      -4.636  15.357  21.796  0.00  0.00    +0.000 A 
ATOM     19  C   UNL     1      -3.316  15.580  22.178  0.00  0.00    +0.000 A 
ATOM     20  C   UNL     1      -2.316  14.649  21.860  0.00  0.00    +0.000 A 
ENDBRANCH   2  15
BRANCH  11  21
ATOM     21  C   UNL     1       2.547   5.808  18.674  0.00  0.00    +0.000 C 
ATOM     22  C   UNL     1       1.837   4.581  19.256  0.00  0.00    +0.000 C 
ATOM     23  C   UNL     1       2.322   3.303  18.583  0.00  0.00    +0.000 C 
ATOM     24  O   UNL     1       3.741   3.196  18.669  0.00  0.00    +0.000 OA
ATOM     25  C   UNL     1       4.397   4.259  17.981  0.00  0.00    +0.000 C 
ATOM     26  C   UNL     1       4.062   5.593  18.628  0.00  0.00    +0.000 C 
ENDBRANCH  11  21
BRANCH   1  28
ATOM     27  N   UNL     1      -1.270  12.680  17.400  0.00  0.00    +0.000 N 
ATOM     28  C   UNL     1      -0.598  13.154  18.493  0.00  0.00    +0.000 C 
ATOM     29  O   UNL     1       0.031  14.204  18.396  0.00  0.00    +0.000 OA
ATOM     30  H   UNL     1      -1.183  13.214  16.546  0.00  0.00    +0.000 HD
ATOM     31  H   UNL     1      -1.641  11.746  17.337  0.00  0.00    +0.000 HD
ENDBRANCH   1  28
TORSDOF 3
ENDMDL
MODEL 6
REMARK VINA RESULT:      -7.0      4.395     10.611
REMARK  Name = 
REMARK  3 active torsions:
REMARK  status: ('A' for Active; 'I' for Inactive)
REMARK    1  A    between atoms: C_2  and  C_4
REMARK    2  A    between atoms: C_5  and  C_6
REMARK    3  A    between atoms: N_20  and  C_21
REMARK                            x       y       z     vdW  Elec       q    Type
REMARK                         _______ _______ _______ _____ _____    ______ ____
ROOT
ATOM      1  C   UNL     1      -1.074  11.161  19.598  0.00  0.00    +0.000 A 
ATOM      2  C   UNL     1      -0.048  10.296  20.183  0.00  0.00    +0.000 A 
ATOM      3  C   UNL     1      -0.211  10.404  21.553  0.00  0.00    +0.000 A 
ATOM      4 CL   UNL     1       0.583   9.649  22.875  0.00  0.00    +0.000 Cl
ATOM      5  N   UNL     1      -1.218  11.271  21.837  0.00  0.00    +0.000 N 
ATOM      6  C   UNL     1      -1.759  11.772  20.663  0.00  0.00    +0.000 A 
ATOM      7  C   UNL     1      -2.858  12.801  20.686  0.00  0.00    +0.000 C 
ATOM      8  N   UNL     1      -3.074  13.314  22.041  0.00  0.00    +0.000 N 
ATOM      9  C   UNL     1      -3.409  14.648  22.190  0.00  0.00    +0.000 C 
ATOM     10  O   UNL     1      -3.544  15.405  21.233  0.00  0.00    +0.000 OA
ATOM     11  N   UNL     1      -3.612  15.071  23.478  0.00  0.00    +0.000 N 
ATOM     12  C   UNL     1      -3.062  12.294  23.086  0.00  0.00    +0.000 C 
ATOM     13  C   UNL     1      -1.670  11.691  23.160  0.00  0.00    +0.000 C 
ATOM     14  H   UNL     1      -3.140  14.565  24.207  0.00  0.00    +0.000 HD
ENDROOT
BRANCH   2  15
ATOM     15  C   UNL     1       0.941   9.401  19.552  0.00  0.00    +0.000 A 
ATOM     16  C   UNL     1       1.394   8.237  20.200  0.00  0.00    +0.000 A 
ATOM     17  C   UNL     1       2.251   7.327  19.570  0.00  0.00    +0.000 A 
ATOM     18  C   UNL     1       2.727   7.593  18.293  0.00  0.00    +0.000 A 
ATOM     19  C   UNL     1       2.336   8.764  17.649  0.00  0.00    +0.000 A 
ATOM     20  C   UNL     1       1.439   9.649  18.265  0.00  0.00    +0.000 A 
ENDBRANCH   2  15
BRANCH  11  21
ATOM     21  C   UNL     1      -3.924  16.466  23.797  0.00  0.00    +0.000 C 
ATOM     22  C   UNL     1      -3.063  16.967  24.962  0.00  0.00    +0.000 C 
ATOM     23  C   UNL     1      -3.531  18.338  25.435  0.00  0.00    +0.000 C 
ATOM     24  O   UNL     1      -4.919  18.310  25.762  0.00  0.00    +0.000 OA
ATOM     25  C   UNL     1      -5.727  18.003  24.628  0.00  0.00    +0.000 C 
ATOM     26  C   UNL     1      -5.414  16.605  24.120  0.00  0.00    +0.000 C 
ENDBRANCH  11  21
BRANCH   1  28
ATOM     27  N   UNL     1      -1.021  12.668  17.715  0.00  0.00    +0.000 N 
ATOM     28  C   UNL     1      -1.323  11.415  18.175  0.00  0.00    +0.000 C 
ATOM     29  O   UNL     1      -1.805  10.595  17.400  0.00  0.00    +0.000 OA
ATOM     30  H   UNL     1      -1.248  12.863  16.749  0.00  0.00    +0.000 HD
ATOM     31  H   UNL     1      -0.812  13.446  18.317  0.00  0.00    +0.000 HD
ENDBRANCH   1  28
TORSDOF 3
ENDMDL
MODEL 7
REMARK VINA RESULT:      -7.0      3.005      4.320
REMARK  Name = 
REMARK  3 active torsions:
REMARK  status: ('A' for Active; 'I' for Inactive)
REMARK    1  A    between atoms: C_2  and  C_4
REMARK    2  A    between atoms: C_5  and  C_6
REMARK    3  A    between atoms: N_20  and  C_21
REMARK                            x       y       z     vdW  Elec       q    Type
REMARK                         _______ _______ _______ _____ _____    ______ ____
ROOT
ATOM      1  C   UNL     1      -0.474  12.271  19.963  0.00  0.00    +0.000 A 
ATOM      2  C   UNL     1      -1.524  12.616  20.924  0.00  0.00    +0.000 A 
ATOM      3  C   UNL     1      -1.425  11.675  21.933  0.00  0.00    +0.000 A 
ATOM      4 CL   UNL     1      -2.277  11.468  23.410  0.00  0.00    +0.000 Cl
ATOM      5  N   UNL     1      -0.436  10.787  21.649  0.00  0.00    +0.000 N 
ATOM      6  C   UNL     1       0.158  11.109  20.438  0.00  0.00    +0.000 A 
ATOM      7  C   UNL     1       1.250  10.255  19.852  0.00  0.00    +0.000 C 
ATOM      8  N   UNL     1       1.401   9.003  20.598  0.00  0.00    +0.000 N 
ATOM      9  C   UNL     1       1.724   7.857  19.896  0.00  0.00    +0.000 C 
ATOM     10  O   UNL     1       1.900   7.856  18.680  0.00  0.00    +0.000 OA
ATOM     11  N   UNL     1       1.865   6.718  20.645  0.00  0.00    +0.000 N 
ATOM     12  C   UNL     1       1.344   9.151  22.051  0.00  0.00    +0.000 C 
ATOM     13  C   UNL     1      -0.047   9.621  22.436  0.00  0.00    +0.000 C 
ATOM     14  H   UNL     1       1.361   6.675  21.513  0.00  0.00    +0.000 HD
ENDROOT
BRANCH   2  15
ATOM     15  C   UNL     1      -2.479  13.741  20.955  0.00  0.00    +0.000 A 
ATOM     16  C   UNL     1      -3.863  13.531  20.814  0.00  0.00    +0.000 A 
ATOM     17  C   UNL     1      -4.785  14.576  20.945  0.00  0.00    +0.000 A 
ATOM     18  C   UNL     1      -4.338  15.872  21.162  0.00  0.00    +0.000 A 
ATOM     19  C   UNL     1      -2.970  16.116  21.254  0.00  0.00    +0.000 A 
ATOM     20  C   UNL     1      -2.052  15.059  21.169  0.00  0.00    +0.000 A 
ENDBRANCH   2  15
BRANCH  11  21
ATOM     21  C   UNL     1       2.157   5.418  20.035  0.00  0.00    +0.000 C 
ATOM     22  C   UNL     1       1.610   4.274  20.897  0.00  0.00    +0.000 C 
ATOM     23  C   UNL     1       2.094   2.925  20.381  0.00  0.00    +0.000 C 
ATOM     24  O   UNL     1       3.517   2.901  20.294  0.00  0.00    +0.000 OA
ATOM     25  C   UNL     1       4.009   3.862  19.362  0.00  0.00    +0.000 C 
ATOM     26  C   UNL     1       3.666   5.269  19.825  0.00  0.00    +0.000 C 
ENDBRANCH  11  21
BRANCH   1  28
ATOM     27  N   UNL     1       0.977  13.709  18.681  0.00  0.00    +0.000 N 
ATOM     28  C   UNL     1      -0.161  12.950  18.701  0.00  0.00    +0.000 C 
ATOM     29  O   UNL     1      -0.864  12.902  17.696  0.00  0.00    +0.000 OA
ATOM     30  H   UNL     1       1.163  14.225  17.831  0.00  0.00    +0.000 HD
ATOM     31  H   UNL     1       1.495  13.957  19.506  0.00  0.00    +0.000 HD
ENDBRANCH   1  28
TORSDOF 3
ENDMDL
MODEL 8
REMARK VINA RESULT:      -6.9      3.082      4.431
REMARK  Name = 
REMARK  3 active torsions:
REMARK  status: ('A' for Active; 'I' for Inactive)
REMARK    1  A    between atoms: C_2  and  C_4
REMARK    2  A    between atoms: C_5  and  C_6
REMARK    3  A    between atoms: N_20  and  C_21
REMARK                            x       y       z     vdW  Elec       q    Type
REMARK                         _______ _______ _______ _____ _____    ______ ____
ROOT
ATOM      1  C   UNL     1      -0.735  12.189  19.845  0.00  0.00    +0.000 A 
ATOM      2  C   UNL     1      -1.788  12.566  20.790  0.00  0.00    +0.000 A 
ATOM      3  C   UNL     1      -1.627  11.725  21.877  0.00  0.00    +0.000 A 
ATOM      4 CL   UNL     1      -2.448  11.609  23.381  0.00  0.00    +0.000 Cl
ATOM      5  N   UNL     1      -0.596  10.868  21.656  0.00  0.00    +0.000 N 
ATOM      6  C   UNL     1      -0.036  11.108  20.411  0.00  0.00    +0.000 A 
ATOM      7  C   UNL     1       1.091  10.262  19.884  0.00  0.00    +0.000 C 
ATOM      8  N   UNL     1       1.318   9.092  20.736  0.00  0.00    +0.000 N 
ATOM      9  C   UNL     1       1.691   7.905  20.133  0.00  0.00    +0.000 C 
ATOM     10  O   UNL     1       1.850   7.803  18.919  0.00  0.00    +0.000 OA
ATOM     11  N   UNL     1       1.901   6.847  20.979  0.00  0.00    +0.000 N 
ATOM     12  C   UNL     1       1.272   9.367  22.170  0.00  0.00    +0.000 C 
ATOM     13  C   UNL     1      -0.137   9.798  22.537  0.00  0.00    +0.000 C 
ATOM     14  H   UNL     1       1.412   6.856  21.856  0.00  0.00    +0.000 HD
ENDROOT
BRANCH   2  15
ATOM     15  C   UNL     1      -2.801  13.639  20.737  0.00  0.00    +0.000 A 
ATOM     16  C   UNL     1      -4.155  13.356  20.481  0.00  0.00    +0.000 A 
ATOM     17  C   UNL     1      -5.139  14.350  20.532  0.00  0.00    +0.000 A 
ATOM     18  C   UNL     1      -4.781  15.669  20.781  0.00  0.00    +0.000 A 
ATOM     19  C   UNL     1      -3.440  15.984  20.987  0.00  0.00    +0.000 A 
ATOM     20  C   UNL     1      -2.463  14.977  20.983  0.00  0.00    +0.000 A 
ENDBRANCH   2  15
BRANCH  11  21
ATOM     21  C   UNL     1       2.253   5.514  20.482  0.00  0.00    +0.000 C 
ATOM     22  C   UNL     1       2.959   5.604  19.125  0.00  0.00    +0.000 C 
ATOM     23  C   UNL     1       3.132   4.221  18.508  0.00  0.00    +0.000 C 
ATOM     24  O   UNL     1       1.877   3.550  18.420  0.00  0.00    +0.000 OA
ATOM     25  C   UNL     1       1.303   3.323  19.706  0.00  0.00    +0.000 C 
ATOM     26  C   UNL     1       0.995   4.647  20.386  0.00  0.00    +0.000 C 
ENDBRANCH  11  21
BRANCH   1  28
ATOM     27  N   UNL     1      -1.389  12.492  17.543  0.00  0.00    +0.000 N 
ATOM     28  C   UNL     1      -0.474  12.767  18.522  0.00  0.00    +0.000 C 
ATOM     29  O   UNL     1       0.513  13.441  18.244  0.00  0.00    +0.000 OA
ATOM     30  H   UNL     1      -1.180  12.839  16.616  0.00  0.00    +0.000 HD
ATOM     31  H   UNL     1      -2.110  11.796  17.635  0.00  0.00    +0.000 HD
ENDBRANCH   1  28
TORSDOF 3
ENDMDL
MODEL 9
REMARK VINA RESULT:      -6.9      1.926      2.674
REMARK  Name = 
REMARK  3 active torsions:
REMARK  status: ('A' for Active; 'I' for Inactive)
REMARK    1  A    between atoms: C_2  and  C_4
REMARK    2  A    between atoms: C_5  and  C_6
REMARK    3  A    between atoms: N_20  and  C_21
REMARK                            x       y       z     vdW  Elec       q    Type
REMARK                         _______ _______ _______ _____ _____    ______ ____
ROOT
ATOM      1  C   UNL     1       0.156  12.149  20.881  0.00  0.00    +0.000 A 
ATOM      2  C   UNL     1       0.759  13.381  20.368  0.00  0.00    +0.000 A 
ATOM      3  C   UNL     1       1.531  12.992  19.288  0.00  0.00    +0.000 A 
ATOM      4 CL   UNL     1       2.482  13.879  18.166  0.00  0.00    +0.000 Cl
ATOM      5  N   UNL     1       1.467  11.644  19.128  0.00  0.00    +0.000 N 
ATOM      6  C   UNL     1       0.648  11.089  20.099  0.00  0.00    +0.000 A 
ATOM      7  C   UNL     1       0.444   9.600  20.192  0.00  0.00    +0.000 C 
ATOM      8  N   UNL     1       1.366   8.884  19.308  0.00  0.00    +0.000 N 
ATOM      9  C   UNL     1       1.872   7.669  19.734  0.00  0.00    +0.000 C 
ATOM     10  O   UNL     1       1.566   7.170  20.814  0.00  0.00    +0.000 OA
ATOM     11  N   UNL     1       2.719   7.037  18.862  0.00  0.00    +0.000 N 
ATOM     12  C   UNL     1       1.521   9.478  17.982  0.00  0.00    +0.000 C 
ATOM     13  C   UNL     1       2.174  10.840  18.135  0.00  0.00    +0.000 C 
ATOM     14  H   UNL     1       3.223   7.614  18.212  0.00  0.00    +0.000 HD
ENDROOT
BRANCH   2  15
ATOM     15  C   UNL     1       0.589  14.789  20.778  0.00  0.00    +0.000 A 
ATOM     16  C   UNL     1       1.265  15.312  21.896  0.00  0.00    +0.000 A 
ATOM     17  C   UNL     1       1.192  16.669  22.232  0.00  0.00    +0.000 A 
ATOM     18  C   UNL     1       0.390  17.526  21.491  0.00  0.00    +0.000 A 
ATOM     19  C   UNL     1      -0.331  17.022  20.412  0.00  0.00    +0.000 A 
ATOM     20  C   UNL     1      -0.219  15.672  20.049  0.00  0.00    +0.000 A 
ENDBRANCH   2  15
BRANCH  11  21
ATOM     21  C   UNL     1       3.372   5.768  19.195  0.00  0.00    +0.000 C 
ATOM     22  C   UNL     1       4.773   5.694  18.578  0.00  0.00    +0.000 C 
ATOM     23  C   UNL     1       5.366   4.301  18.740  0.00  0.00    +0.000 C 
ATOM     24  O   UNL     1       4.487   3.315  18.202  0.00  0.00    +0.000 OA
ATOM     25  C   UNL     1       3.241   3.279  18.895  0.00  0.00    +0.000 C 
ATOM     26  C   UNL     1       2.505   4.598  18.723  0.00  0.00    +0.000 C 
ENDBRANCH  11  21
BRANCH   1  28
ATOM     27  N   UNL     1      -1.984  12.567  21.913  0.00  0.00    +0.000 N 
ATOM     28  C   UNL     1      -0.742  12.007  22.032  0.00  0.00    +0.000 C 
ATOM     29  O   UNL     1      -0.436  11.453  23.084  0.00  0.00    +0.000 OA
ATOM     30  H   UNL     1      -2.582  12.521  22.727  0.00  0.00    +0.000 HD
ATOM     31  H   UNL     1      -2.240  13.199  21.173  0.00  0.00    +0.000 HD
ENDBRANCH   1  28
TORSDOF 3
ENDMDL
