MODEL 1
REMARK VINA RESULT:      -7.3      0.000      0.000
REMARK  Name = 
REMARK  7 active torsions:
REMARK  status: ('A' for Active; 'I' for Inactive)
REMARK    1  A    between atoms: C_1  and  C_2
REMARK    2  A    between atoms: C_3  and  N_4
REMARK    3  A    between atoms: C_5  and  C_7
REMARK    4  A    between atoms: C_7  and  S_8
REMARK    5  A    between atoms: S_8  and  C_9
REMARK    6  A    between atoms: N_18  and  C_19
REMARK    7  A    between atoms: N_25  and  C_26
REMARK                            x       y       z     vdW  Elec       q    Type
REMARK                         _______ _______ _______ _____ _____    ______ ____
ROOT
ATOM      1  C   UNL     1       3.165   7.521  17.751  0.00  0.00    +0.000 C 
ATOM      2  C   UNL     1       2.243   7.927  18.861  0.00  0.00    +0.000 A 
ATOM      3  C   UNL     1       2.032   7.382  20.075  0.00  0.00    +0.000 A 
ATOM      4  C   UNL     1       1.227   8.412  20.842  0.00  0.00    +0.000 A 
ATOM      5  O   UNL     1       0.832   8.239  21.982  0.00  0.00    +0.000 OA
ATOM      6  N   UNL     1       1.027   9.485  19.961  0.00  0.00    +0.000 N 
ATOM      7  N   UNL     1       1.535   9.132  18.700  0.00  0.00    +0.000 N 
ATOM      8  C   UNL     1       1.988  10.189  17.796  0.00  0.00    +0.000 C 
ENDROOT
BRANCH   6   9
ATOM      9  C   UNL     1       0.129  10.556  20.138  0.00  0.00    +0.000 A 
ATOM     10  C   UNL     1       0.486  11.646  20.937  0.00  0.00    +0.000 A 
ATOM     11  C   UNL     1      -0.314  12.796  20.955  0.00  0.00    +0.000 A 
ATOM     12  C   UNL     1      -1.492  12.849  20.211  0.00  0.00    +0.000 A 
ATOM     13  C   UNL     1      -1.882  11.749  19.452  0.00  0.00    +0.000 A 
ATOM     14  C   UNL     1      -1.076  10.611  19.417  0.00  0.00    +0.000 A 
ENDBRANCH   6   9
BRANCH   3  15
ATOM     15  N   UNL     1       2.405   6.204  20.689  0.00  0.00    +0.000 N 
ATOM     16  C   UNL     1       1.870   4.956  20.442  0.00  0.00    +0.000 C 
ATOM     17  O   UNL     1       1.071   4.703  19.540  0.00  0.00    +0.000 OA
ATOM     18  H   UNL     1       2.837   6.325  21.603  0.00  0.00    +0.000 HD
BRANCH  16  19
ATOM     19  C   UNL     1       2.335   3.821  21.349  0.00  0.00    +0.000 C 
BRANCH  19  20
ATOM     20  S   UNL     1       3.429   2.592  20.573  0.00  0.00    +0.000 S 
BRANCH  20  21
ATOM     21  C   UNL     1       4.174   3.457  19.181  0.00  0.00    +0.000 A 
ATOM     22  C   UNL     1       5.267   4.323  19.350  0.00  0.00    +0.000 A 
ATOM     23  C   UNL     1       5.853   4.964  18.251  0.00  0.00    +0.000 A 
ATOM     24  C   UNL     1       5.365   4.746  16.965  0.00  0.00    +0.000 A 
ATOM     25  C   UNL     1       4.294   3.878  16.775  0.00  0.00    +0.000 A 
ATOM     26  C   UNL     1       3.706   3.232  17.869  0.00  0.00    +0.000 A 
ATOM     27 CL   UNL     1       2.392   2.156  17.520  0.00  0.00    +0.000 Cl
ENDBRANCH  20  21
ENDBRANCH  19  20
ENDBRANCH  16  19
ENDBRANCH   3  15
TORSDOF 5
ENDMDL
MODEL 2
REMARK VINA RESULT:      -7.2      6.112      8.734
REMARK  Name = 
REMARK  7 active torsions:
REMARK  status: ('A' for Active; 'I' for Inactive)
REMARK    1  A    between atoms: C_1  and  C_2
REMARK    2  A    between atoms: C_3  and  N_4
REMARK    3  A    between atoms: C_5  and  C_7
REMARK    4  A    between atoms: C_7  and  S_8
REMARK    5  A    between atoms: S_8  and  C_9
REMARK    6  A    between atoms: N_18  and  C_19
REMARK    7  A    between atoms: N_25  and  C_26
REMARK                            x       y       z     vdW  Elec       q    Type
REMARK                         _______ _______ _______ _____ _____    ______ ____
ROOT
ATOM      1  C   UNL     1       7.433   5.042  14.883  0.00  0.00    +0.000 C 
ATOM      2  C   UNL     1       6.490   5.268  16.027  0.00  0.00    +0.000 A 
ATOM      3  C   UNL     1       6.246   6.370  16.761  0.00  0.00    +0.000 A 
ATOM      4  C   UNL     1       4.986   6.057  17.545  0.00  0.00    +0.000 A 
ATOM      5  O   UNL     1       4.484   6.830  18.342  0.00  0.00    +0.000 OA
ATOM      6  N   UNL     1       4.621   4.750  17.190  0.00  0.00    +0.000 N 
ATOM      7  N   UNL     1       5.619   4.214  16.358  0.00  0.00    +0.000 N 
ATOM      8  C   UNL     1       5.261   3.166  15.403  0.00  0.00    +0.000 C 
ENDROOT
BRANCH   6   9
ATOM      9  C   UNL     1       3.671   3.940  17.842  0.00  0.00    +0.000 A 
ATOM     10  C   UNL     1       4.064   3.101  18.888  0.00  0.00    +0.000 A 
ATOM     11  C   UNL     1       3.100   2.448  19.666  0.00  0.00    +0.000 A 
ATOM     12  C   UNL     1       1.743   2.594  19.378  0.00  0.00    +0.000 A 
ATOM     13  C   UNL     1       1.344   3.386  18.305  0.00  0.00    +0.000 A 
ATOM     14  C   UNL     1       2.303   4.053  17.543  0.00  0.00    +0.000 A 
ENDBRANCH   6   9
BRANCH   3  15
ATOM     15  N   UNL     1       6.844   7.607  16.888  0.00  0.00    +0.000 N 
ATOM     16  C   UNL     1       7.781   7.960  17.837  0.00  0.00    +0.000 C 
ATOM     17  O   UNL     1       8.309   7.176  18.625  0.00  0.00    +0.000 OA
ATOM     18  H   UNL     1       6.309   8.376  16.489  0.00  0.00    +0.000 HD
BRANCH  16  19
ATOM     19  C   UNL     1       8.192   9.429  17.878  0.00  0.00    +0.000 C 
BRANCH  19  20
ATOM     20  S   UNL     1       9.133   9.941  19.348  0.00  0.00    +0.000 S 
BRANCH  20  21
ATOM     21  C   UNL     1       9.948  11.471  18.861  0.00  0.00    +0.000 A 
ATOM     22  C   UNL     1      10.571  11.609  17.610  0.00  0.00    +0.000 A 
ATOM     23  C   UNL     1      11.174  12.817  17.236  0.00  0.00    +0.000 A 
ATOM     24  C   UNL     1      11.157  13.910  18.100  0.00  0.00    +0.000 A 
ATOM     25  C   UNL     1      10.529  13.799  19.336  0.00  0.00    +0.000 A 
ATOM     26  C   UNL     1       9.923  12.595  19.714  0.00  0.00    +0.000 A 
ATOM     27 CL   UNL     1       9.150  12.569  21.267  0.00  0.00    +0.000 Cl
ENDBRANCH  20  21
ENDBRANCH  19  20
ENDBRANCH  16  19
ENDBRANCH   3  15
TORSDOF 5
ENDMDL
MODEL 3
REMARK VINA RESULT:      -7.1      3.417      8.280
REMARK  Name = 
REMARK  7 active torsions:
REMARK  status: ('A' for Active; 'I' for Inactive)
REMARK    1  A    between atoms: C_1  and  C_2
REMARK    2  A    between atoms: C_3  and  N_4
REMARK    3  A    between atoms: C_5  and  C_7
REMARK    4  A    between atoms: C_7  and  S_8
REMARK    5  A    between atoms: S_8  and  C_9
REMARK    6  A    between atoms: N_18  and  C_19
REMARK    7  A    between atoms: N_25  and  C_26
REMARK                            x       y       z     vdW  Elec       q    Type
REMARK                         _______ _______ _______ _____ _____    ______ ____
ROOT
ATOM      1  C   UNL     1       1.407   4.888  20.724  0.00  0.00    +0.000 C 
ATOM      2  C   UNL     1       2.241   5.471  19.623  0.00  0.00    +0.000 A 
ATOM      3  C   UNL     1       2.308   6.727  19.141  0.00  0.00    +0.000 A 
ATOM      4  C   UNL     1       3.542   6.751  18.260  0.00  0.00    +0.000 A 
ATOM      5  O   UNL     1       3.898   7.734  17.634  0.00  0.00    +0.000 OA
ATOM      6  N   UNL     1       4.078   5.455  18.304  0.00  0.00    +0.000 N 
ATOM      7  N   UNL     1       3.204   4.632  19.034  0.00  0.00    +0.000 N 
ATOM      8  C   UNL     1       3.742   3.458  19.720  0.00  0.00    +0.000 C 
ENDROOT
BRANCH   6   9
ATOM      9  C   UNL     1       5.070   4.931  17.453  0.00  0.00    +0.000 A 
ATOM     10  C   UNL     1       4.732   4.479  16.175  0.00  0.00    +0.000 A 
ATOM     11  C   UNL     1       5.737   4.145  15.258  0.00  0.00    +0.000 A 
ATOM     12  C   UNL     1       7.080   4.219  15.625  0.00  0.00    +0.000 A 
ATOM     13  C   UNL     1       7.426   4.619  16.913  0.00  0.00    +0.000 A 
ATOM     14  C   UNL     1       6.426   4.972  17.819  0.00  0.00    +0.000 A 
ENDBRANCH   6   9
BRANCH   3  15
ATOM     15  N   UNL     1       1.564   7.875  19.313  0.00  0.00    +0.000 N 
ATOM     16  C   UNL     1       1.293   8.493  20.518  0.00  0.00    +0.000 C 
ATOM     17  O   UNL     1       1.791   8.172  21.596  0.00  0.00    +0.000 OA
ATOM     18  H   UNL     1       0.903   8.064  18.562  0.00  0.00    +0.000 HD
BRANCH  16  19
ATOM     19  C   UNL     1       0.322   9.670  20.479  0.00  0.00    +0.000 C 
BRANCH  19  20
ATOM     20  S   UNL     1       0.427  10.725  19.001  0.00  0.00    +0.000 S 
BRANCH  20  21
ATOM     21  C   UNL     1      -1.241  10.729  18.322  0.00  0.00    +0.000 A 
ATOM     22  C   UNL     1      -1.615   9.864  17.281  0.00  0.00    +0.000 A 
ATOM     23  C   UNL     1      -2.926   9.860  16.785  0.00  0.00    +0.000 A 
ATOM     24  C   UNL     1      -3.886  10.712  17.326  0.00  0.00    +0.000 A 
ATOM     25  C   UNL     1      -3.539  11.563  18.371  0.00  0.00    +0.000 A 
ATOM     26  C   UNL     1      -2.232  11.570  18.871  0.00  0.00    +0.000 A 
ATOM     27 CL   UNL     1      -1.911  12.654  20.186  0.00  0.00    +0.000 Cl
ENDBRANCH  20  21
ENDBRANCH  19  20
ENDBRANCH  16  19
ENDBRANCH   3  15
TORSDOF 5
ENDMDL
MODEL 4
REMARK VINA RESULT:      -7.1      5.956      8.493
REMARK  Name = 
REMARK  7 active torsions:
REMARK  status: ('A' for Active; 'I' for Inactive)
REMARK    1  A    between atoms: C_1  and  C_2
REMARK    2  A    between atoms: C_3  and  N_4
REMARK    3  A    between atoms: C_5  and  C_7
REMARK    4  A    between atoms: C_7  and  S_8
REMARK    5  A    between atoms: S_8  and  C_9
REMARK    6  A    between atoms: N_18  and  C_19
REMARK    7  A    between atoms: N_25  and  C_26
REMARK                            x       y       z     vdW  Elec       q    Type
REMARK                         _______ _______ _______ _____ _____    ______ ____
ROOT
ATOM      1  C   UNL     1       7.143   4.709  15.808  0.00  0.00    +0.000 C 
ATOM      2  C   UNL     1       6.108   5.283  16.728  0.00  0.00    +0.000 A 
ATOM      3  C   UNL     1       5.902   6.549  17.140  0.00  0.00    +0.000 A 
ATOM      4  C   UNL     1       4.536   6.538  17.799  0.00  0.00    +0.000 A 
ATOM      5  O   UNL     1       4.034   7.521  18.315  0.00  0.00    +0.000 OA
ATOM      6  N   UNL     1       4.075   5.216  17.718  0.00  0.00    +0.000 N 
ATOM      7  N   UNL     1       5.097   4.415  17.180  0.00  0.00    +0.000 N 
ATOM      8  C   UNL     1       4.738   3.193  16.461  0.00  0.00    +0.000 C 
ENDROOT
BRANCH   6   9
ATOM      9  C   UNL     1       2.977   4.668  18.410  0.00  0.00    +0.000 A 
ATOM     10  C   UNL     1       1.922   4.087  17.702  0.00  0.00    +0.000 A 
ATOM     11  C   UNL     1       0.930   3.368  18.382  0.00  0.00    +0.000 A 
ATOM     12  C   UNL     1       0.962   3.263  19.772  0.00  0.00    +0.000 A 
ATOM     13  C   UNL     1       1.981   3.883  20.490  0.00  0.00    +0.000 A 
ATOM     14  C   UNL     1       2.980   4.581  19.812  0.00  0.00    +0.000 A 
ENDBRANCH   6   9
BRANCH   3  15
ATOM     15  N   UNL     1       6.612   7.728  17.050  0.00  0.00    +0.000 N 
ATOM     16  C   UNL     1       7.705   8.078  17.817  0.00  0.00    +0.000 C 
ATOM     17  O   UNL     1       8.278   7.323  18.602  0.00  0.00    +0.000 OA
ATOM     18  H   UNL     1       6.088   8.505  16.650  0.00  0.00    +0.000 HD
BRANCH  16  19
ATOM     19  C   UNL     1       8.237   9.497  17.642  0.00  0.00    +0.000 C 
BRANCH  19  20
ATOM     20  S   UNL     1       9.237  10.136  19.021  0.00  0.00    +0.000 S 
BRANCH  20  21
ATOM     21  C   UNL     1       9.476  11.881  18.643  0.00  0.00    +0.000 A 
ATOM     22  C   UNL     1       8.540  12.606  17.889  0.00  0.00    +0.000 A 
ATOM     23  C   UNL     1       8.728  13.971  17.630  0.00  0.00    +0.000 A 
ATOM     24  C   UNL     1       9.847  14.634  18.127  0.00  0.00    +0.000 A 
ATOM     25  C   UNL     1      10.777  13.936  18.892  0.00  0.00    +0.000 A 
ATOM     26  C   UNL     1      10.593  12.574  19.156  0.00  0.00    +0.000 A 
ATOM     27 CL   UNL     1      11.799  11.804  20.135  0.00  0.00    +0.000 Cl
ENDBRANCH  20  21
ENDBRANCH  19  20
ENDBRANCH  16  19
ENDBRANCH   3  15
TORSDOF 5
ENDMDL
MODEL 5
REMARK VINA RESULT:      -7.0      6.074      8.440
REMARK  Name = 
REMARK  7 active torsions:
REMARK  status: ('A' for Active; 'I' for Inactive)
REMARK    1  A    between atoms: C_1  and  C_2
REMARK    2  A    between atoms: C_3  and  N_4
REMARK    3  A    between atoms: C_5  and  C_7
REMARK    4  A    between atoms: C_7  and  S_8
REMARK    5  A    between atoms: S_8  and  C_9
REMARK    6  A    between atoms: N_18  and  C_19
REMARK    7  A    between atoms: N_25  and  C_26
REMARK                            x       y       z     vdW  Elec       q    Type
REMARK                         _______ _______ _______ _____ _____    ______ ____
ROOT
ATOM      1  C   UNL     1       7.395   4.646  16.387  0.00  0.00    +0.000 C 
ATOM      2  C   UNL     1       6.248   5.291  17.105  0.00  0.00    +0.000 A 
ATOM      3  C   UNL     1       5.984   6.589  17.353  0.00  0.00    +0.000 A 
ATOM      4  C   UNL     1       4.546   6.618  17.835  0.00  0.00    +0.000 A 
ATOM      5  O   UNL     1       3.977   7.639  18.178  0.00  0.00    +0.000 OA
ATOM      6  N   UNL     1       4.108   5.286  17.837  0.00  0.00    +0.000 N 
ATOM      7  N   UNL     1       5.195   4.455  17.517  0.00  0.00    +0.000 N 
ATOM      8  C   UNL     1       4.937   3.158  16.892  0.00  0.00    +0.000 C 
ENDROOT
BRANCH   6   9
ATOM      9  C   UNL     1       2.935   4.792  18.441  0.00  0.00    +0.000 A 
ATOM     10  C   UNL     1       1.983   4.117  17.673  0.00  0.00    +0.000 A 
ATOM     11  C   UNL     1       0.918   3.453  18.297  0.00  0.00    +0.000 A 
ATOM     12  C   UNL     1       0.776   3.495  19.684  0.00  0.00    +0.000 A 
ATOM     13  C   UNL     1       1.691   4.209  20.453  0.00  0.00    +0.000 A 
ATOM     14  C   UNL     1       2.763   4.852  19.834  0.00  0.00    +0.000 A 
ENDBRANCH   6   9
BRANCH   3  15
ATOM     15  N   UNL     1       6.691   7.766  17.228  0.00  0.00    +0.000 N 
ATOM     16  C   UNL     1       7.814   8.118  17.949  0.00  0.00    +0.000 C 
ATOM     17  O   UNL     1       8.416   7.368  18.716  0.00  0.00    +0.000 OA
ATOM     18  H   UNL     1       6.153   8.541  16.844  0.00  0.00    +0.000 HD
BRANCH  16  19
ATOM     19  C   UNL     1       8.341   9.536  17.745  0.00  0.00    +0.000 C 
BRANCH  19  20
ATOM     20  S   UNL     1       9.247  10.247  19.153  0.00  0.00    +0.000 S 
BRANCH  20  21
ATOM     21  C   UNL     1       9.941  11.784  18.522  0.00  0.00    +0.000 A 
ATOM     22  C   UNL     1      10.749  11.811  17.374  0.00  0.00    +0.000 A 
ATOM     23  C   UNL     1      11.256  13.020  16.880  0.00  0.00    +0.000 A 
ATOM     24  C   UNL     1      10.958  14.222  17.517  0.00  0.00    +0.000 A 
ATOM     25  C   UNL     1      10.145  14.218  18.646  0.00  0.00    +0.000 A 
ATOM     26  C   UNL     1       9.633  13.013  19.143  0.00  0.00    +0.000 A 
ATOM     27 CL   UNL     1       8.614  13.121  20.541  0.00  0.00    +0.000 Cl
ENDBRANCH  20  21
ENDBRANCH  19  20
ENDBRANCH  16  19
ENDBRANCH   3  15
TORSDOF 5
ENDMDL
MODEL 6
REMARK VINA RESULT:      -6.9      2.650      3.945
REMARK  Name = 
REMARK  7 active torsions:
REMARK  status: ('A' for Active; 'I' for Inactive)
REMARK    1  A    between atoms: C_1  and  C_2
REMARK    2  A    between atoms: C_3  and  N_4
REMARK    3  A    between atoms: C_5  and  C_7
REMARK    4  A    between atoms: C_7  and  S_8
REMARK    5  A    between atoms: S_8  and  C_9
REMARK    6  A    between atoms: N_18  and  C_19
REMARK    7  A    between atoms: N_25  and  C_26
REMARK                            x       y       z     vdW  Elec       q    Type
REMARK                         _______ _______ _______ _____ _____    ______ ____
ROOT
ATOM      1  C   UNL     1      -0.894  10.399  18.481  0.00  0.00    +0.000 C 
ATOM      2  C   UNL     1      -0.827  10.487  19.976  0.00  0.00    +0.000 A 
ATOM      3  C   UNL     1      -0.088   9.796  20.866  0.00  0.00    +0.000 A 
ATOM      4  C   UNL     1      -0.231  10.548  22.175  0.00  0.00    +0.000 A 
ATOM      5  O   UNL     1       0.289  10.186  23.215  0.00  0.00    +0.000 OA
ATOM      6  N   UNL     1      -1.084  11.630  21.911  0.00  0.00    +0.000 N 
ATOM      7  N   UNL     1      -1.558  11.519  20.593  0.00  0.00    +0.000 N 
ATOM      8  C   UNL     1      -1.957  12.730  19.877  0.00  0.00    +0.000 C 
ENDROOT
BRANCH   6   9
ATOM      9  C   UNL     1      -1.706  12.458  22.866  0.00  0.00    +0.000 A 
ATOM     10  C   UNL     1      -1.101  13.656  23.256  0.00  0.00    +0.000 A 
ATOM     11  C   UNL     1      -1.803  14.573  24.049  0.00  0.00    +0.000 A 
ATOM     12  C   UNL     1      -3.094  14.281  24.491  0.00  0.00    +0.000 A 
ATOM     13  C   UNL     1      -3.685  13.068  24.150  0.00  0.00    +0.000 A 
ATOM     14  C   UNL     1      -2.994  12.164  23.344  0.00  0.00    +0.000 A 
ENDBRANCH   6   9
BRANCH   3  15
ATOM     15  N   UNL     1       0.713   8.675  20.802  0.00  0.00    +0.000 N 
ATOM     16  C   UNL     1       1.651   8.404  19.826  0.00  0.00    +0.000 C 
ATOM     17  O   UNL     1       1.993   9.193  18.945  0.00  0.00    +0.000 OA
ATOM     18  H   UNL     1       0.343   7.865  21.295  0.00  0.00    +0.000 HD
BRANCH  16  19
ATOM     19  C   UNL     1       2.315   7.031  19.878  0.00  0.00    +0.000 C 
BRANCH  19  20
ATOM     20  S   UNL     1       2.700   6.282  18.266  0.00  0.00    +0.000 S 
BRANCH  20  21
ATOM     21  C   UNL     1       2.305   4.537  18.465  0.00  0.00    +0.000 A 
ATOM     22  C   UNL     1       1.274   4.107  19.315  0.00  0.00    +0.000 A 
ATOM     23  C   UNL     1       0.961   2.746  19.435  0.00  0.00    +0.000 A 
ATOM     24  C   UNL     1       1.666   1.794  18.702  0.00  0.00    +0.000 A 
ATOM     25  C   UNL     1       2.680   2.202  17.840  0.00  0.00    +0.000 A 
ATOM     26  C   UNL     1       2.995   3.561  17.715  0.00  0.00    +0.000 A 
ATOM     27 CL   UNL     1       4.260   3.963  16.600  0.00  0.00    +0.000 Cl
ENDBRANCH  20  21
ENDBRANCH  19  20
ENDBRANCH  16  19
ENDBRANCH   3  15
TORSDOF 5
ENDMDL
MODEL 7
REMARK VINA RESULT:      -6.9      2.430      3.792
REMARK  Name = 
REMARK  7 active torsions:
REMARK  status: ('A' for Active; 'I' for Inactive)
REMARK    1  A    between atoms: C_1  and  C_2
REMARK    2  A    between atoms: C_3  and  N_4
REMARK    3  A    between atoms: C_5  and  C_7
REMARK    4  A    between atoms: C_7  and  S_8
REMARK    5  A    between atoms: S_8  and  C_9
REMARK    6  A    between atoms: N_18  and  C_19
REMARK    7  A    between atoms: N_25  and  C_26
REMARK                            x       y       z     vdW  Elec       q    Type
REMARK                         _______ _______ _______ _____ _____    ______ ____
ROOT
ATOM      1  C   UNL     1      -1.480  10.115  17.762  0.00  0.00    +0.000 C 
ATOM      2  C   UNL     1      -0.914  10.379  19.125  0.00  0.00    +0.000 A 
ATOM      3  C   UNL     1       0.189   9.894  19.729  0.00  0.00    +0.000 A 
ATOM      4  C   UNL     1       0.388  10.763  20.955  0.00  0.00    +0.000 A 
ATOM      5  O   UNL     1       1.288  10.591  21.758  0.00  0.00    +0.000 OA
ATOM      6  N   UNL     1      -0.666  11.689  20.952  0.00  0.00    +0.000 N 
ATOM      7  N   UNL     1      -1.543  11.369  19.902  0.00  0.00    +0.000 N 
ATOM      8  C   UNL     1      -2.355  12.430  19.307  0.00  0.00    +0.000 C 
ENDROOT
BRANCH   6   9
ATOM      9  C   UNL     1      -1.043  12.530  22.017  0.00  0.00    +0.000 A 
ATOM     10  C   UNL     1      -0.375  13.740  22.226  0.00  0.00    +0.000 A 
ATOM     11  C   UNL     1      -0.871  14.667  23.151  0.00  0.00    +0.000 A 
ATOM     12  C   UNL     1      -2.009  14.375  23.902  0.00  0.00    +0.000 A 
ATOM     13  C   UNL     1      -2.652  13.151  23.738  0.00  0.00    +0.000 A 
ATOM     14  C   UNL     1      -2.170  12.236  22.802  0.00  0.00    +0.000 A 
ENDBRANCH   6   9
BRANCH   3  15
ATOM     15  N   UNL     1       1.088   8.887  19.446  0.00  0.00    +0.000 N 
ATOM     16  C   UNL     1       1.909   8.820  18.339  0.00  0.00    +0.000 C 
ATOM     17  O   UNL     1       2.043   9.722  17.512  0.00  0.00    +0.000 OA
ATOM     18  H   UNL     1       0.876   7.996  19.892  0.00  0.00    +0.000 HD
BRANCH  16  19
ATOM     19  C   UNL     1       2.715   7.536  18.162  0.00  0.00    +0.000 C 
BRANCH  19  20
ATOM     20  S   UNL     1       2.819   6.466  19.629  0.00  0.00    +0.000 S 
BRANCH  20  21
ATOM     21  C   UNL     1       2.762   4.788  18.977  0.00  0.00    +0.000 A 
ATOM     22  C   UNL     1       1.551   4.183  18.604  0.00  0.00    +0.000 A 
ATOM     23  C   UNL     1       1.529   2.888  18.070  0.00  0.00    +0.000 A 
ATOM     24  C   UNL     1       2.715   2.179  17.892  0.00  0.00    +0.000 A 
ATOM     25  C   UNL     1       3.927   2.769  18.239  0.00  0.00    +0.000 A 
ATOM     26  C   UNL     1       3.955   4.064  18.771  0.00  0.00    +0.000 A 
ATOM     27 CL   UNL     1       5.517   4.712  19.150  0.00  0.00    +0.000 Cl
ENDBRANCH  20  21
ENDBRANCH  19  20
ENDBRANCH  16  19
ENDBRANCH   3  15
TORSDOF 5
ENDMDL
MODEL 8
REMARK VINA RESULT:      -6.9      2.216      3.362
REMARK  Name = 
REMARK  7 active torsions:
REMARK  status: ('A' for Active; 'I' for Inactive)
REMARK    1  A    between atoms: C_1  and  C_2
REMARK    2  A    between atoms: C_3  and  N_4
REMARK    3  A    between atoms: C_5  and  C_7
REMARK    4  A    between atoms: C_7  and  S_8
REMARK    5  A    between atoms: S_8  and  C_9
REMARK    6  A    between atoms: N_18  and  C_19
REMARK    7  A    between atoms: N_25  and  C_26
REMARK                            x       y       z     vdW  Elec       q    Type
REMARK                         _______ _______ _______ _____ _____    ______ ____
ROOT
ATOM      1  C   UNL     1       1.513   6.632  21.128  0.00  0.00    +0.000 C 
ATOM      2  C   UNL     1       1.692   7.688  20.079  0.00  0.00    +0.000 A 
ATOM      3  C   UNL     1       2.164   7.606  18.820  0.00  0.00    +0.000 A 
ATOM      4  C   UNL     1       1.807   8.931  18.173  0.00  0.00    +0.000 A 
ATOM      5  O   UNL     1       2.108   9.218  17.028  0.00  0.00    +0.000 OA
ATOM      6  N   UNL     1       1.157   9.685  19.160  0.00  0.00    +0.000 N 
ATOM      7  N   UNL     1       1.204   8.975  20.372  0.00  0.00    +0.000 N 
ATOM      8  C   UNL     1       0.161   9.206  21.371  0.00  0.00    +0.000 C 
ENDROOT
BRANCH   6   9
ATOM      9  C   UNL     1       0.868  11.062  19.107  0.00  0.00    +0.000 A 
ATOM     10  C   UNL     1       1.869  12.000  19.373  0.00  0.00    +0.000 A 
ATOM     11  C   UNL     1       1.642  13.360  19.128  0.00  0.00    +0.000 A 
ATOM     12  C   UNL     1       0.403  13.796  18.658  0.00  0.00    +0.000 A 
ATOM     13  C   UNL     1      -0.617  12.875  18.438  0.00  0.00    +0.000 A 
ATOM     14  C   UNL     1      -0.385  11.518  18.663  0.00  0.00    +0.000 A 
ENDBRANCH   6   9
BRANCH   3  15
ATOM     15  N   UNL     1       2.807   6.633  18.084  0.00  0.00    +0.000 N 
ATOM     16  C   UNL     1       3.925   5.925  18.478  0.00  0.00    +0.000 C 
ATOM     17  O   UNL     1       4.426   5.977  19.600  0.00  0.00    +0.000 OA
ATOM     18  H   UNL     1       2.658   6.698  17.079  0.00  0.00    +0.000 HD
BRANCH  16  19
ATOM     19  C   UNL     1       4.552   5.003  17.436  0.00  0.00    +0.000 C 
BRANCH  19  20
ATOM     20  S   UNL     1       3.819   3.343  17.315  0.00  0.00    +0.000 S 
BRANCH  20  21
ATOM     21  C   UNL     1       2.767   3.199  18.770  0.00  0.00    +0.000 A 
ATOM     22  C   UNL     1       1.399   3.509  18.723  0.00  0.00    +0.000 A 
ATOM     23  C   UNL     1       0.589   3.362  19.857  0.00  0.00    +0.000 A 
ATOM     24  C   UNL     1       1.130   2.896  21.053  0.00  0.00    +0.000 A 
ATOM     25  C   UNL     1       2.481   2.566  21.114  0.00  0.00    +0.000 A 
ATOM     26  C   UNL     1       3.294   2.708  19.983  0.00  0.00    +0.000 A 
ATOM     27 CL   UNL     1       4.957   2.251  20.161  0.00  0.00    +0.000 Cl
ENDBRANCH  20  21
ENDBRANCH  19  20
ENDBRANCH  16  19
ENDBRANCH   3  15
TORSDOF 5
ENDMDL
MODEL 9
REMARK VINA RESULT:      -6.8      2.056      3.148
REMARK  Name = 
REMARK  7 active torsions:
REMARK  status: ('A' for Active; 'I' for Inactive)
REMARK    1  A    between atoms: C_1  and  C_2
REMARK    2  A    between atoms: C_3  and  N_4
REMARK    3  A    between atoms: C_5  and  C_7
REMARK    4  A    between atoms: C_7  and  S_8
REMARK    5  A    between atoms: S_8  and  C_9
REMARK    6  A    between atoms: N_18  and  C_19
REMARK    7  A    between atoms: N_25  and  C_26
REMARK                            x       y       z     vdW  Elec       q    Type
REMARK                         _______ _______ _______ _____ _____    ______ ____
ROOT
ATOM      1  C   UNL     1       1.569   6.621  21.170  0.00  0.00    +0.000 C 
ATOM      2  C   UNL     1       1.709   7.694  20.133  0.00  0.00    +0.000 A 
ATOM      3  C   UNL     1       2.174   7.641  18.869  0.00  0.00    +0.000 A 
ATOM      4  C   UNL     1       1.774   8.962  18.241  0.00  0.00    +0.000 A 
ATOM      5  O   UNL     1       2.058   9.272  17.098  0.00  0.00    +0.000 OA
ATOM      6  N   UNL     1       1.110   9.685  19.243  0.00  0.00    +0.000 N 
ATOM      7  N   UNL     1       1.187   8.962  20.446  0.00  0.00    +0.000 N 
ATOM      8  C   UNL     1       0.146   9.151  21.455  0.00  0.00    +0.000 C 
ENDROOT
BRANCH   6   9
ATOM      9  C   UNL     1       0.781  11.054  19.209  0.00  0.00    +0.000 A 
ATOM     10  C   UNL     1       1.736  12.014  19.555  0.00  0.00    +0.000 A 
ATOM     11  C   UNL     1       1.480  13.373  19.332  0.00  0.00    +0.000 A 
ATOM     12  C   UNL     1       0.256  13.784  18.804  0.00  0.00    +0.000 A 
ATOM     13  C   UNL     1      -0.721  12.838  18.504  0.00  0.00    +0.000 A 
ATOM     14  C   UNL     1      -0.459  11.484  18.706  0.00  0.00    +0.000 A 
ENDBRANCH   6   9
BRANCH   3  15
ATOM     15  N   UNL     1       2.839   6.695  18.117  0.00  0.00    +0.000 N 
ATOM     16  C   UNL     1       3.924   5.949  18.529  0.00  0.00    +0.000 C 
ATOM     17  O   UNL     1       4.368   5.933  19.677  0.00  0.00    +0.000 OA
ATOM     18  H   UNL     1       2.743   6.816  17.110  0.00  0.00    +0.000 HD
BRANCH  16  19
ATOM     19  C   UNL     1       4.590   5.071  17.473  0.00  0.00    +0.000 C 
BRANCH  19  20
ATOM     20  S   UNL     1       4.259   3.287  17.613  0.00  0.00    +0.000 S 
BRANCH  20  21
ATOM     21  C   UNL     1       3.128   3.139  19.006  0.00  0.00    +0.000 A 
ATOM     22  C   UNL     1       3.575   2.748  20.279  0.00  0.00    +0.000 A 
ATOM     23  C   UNL     1       2.686   2.666  21.359  0.00  0.00    +0.000 A 
ATOM     24  C   UNL     1       1.340   2.982  21.188  0.00  0.00    +0.000 A 
ATOM     25  C   UNL     1       0.882   3.389  19.939  0.00  0.00    +0.000 A 
ATOM     26  C   UNL     1       1.766   3.474  18.857  0.00  0.00    +0.000 A 
ATOM     27 CL   UNL     1       1.098   4.010  17.350  0.00  0.00    +0.000 Cl
ENDBRANCH  20  21
ENDBRANCH  19  20
ENDBRANCH  16  19
ENDBRANCH   3  15
TORSDOF 5
ENDMDL
