MODEL 1
REMARK VINA RESULT:      -7.4      0.000      0.000
REMARK  Name = 
REMARK  10 active torsions:
REMARK  status: ('A' for Active; 'I' for Inactive)
REMARK    1  A    between atoms: C_1  and  O_2
REMARK    2  A    between atoms: O_2  and  C_3
REMARK    3  A    between atoms: C_4  and  C_5
REMARK    4  A    between atoms: C_6  and  O_7
REMARK    5  A    between atoms: C_8  and  C_9
REMARK    6  A    between atoms: C_9  and  C_11
REMARK    7  A    between atoms: C_12  and  O_13
REMARK    8  A    between atoms: C_12  and  C_14
REMARK    9  A    between atoms: C_20  and  O_21
REMARK   10  A    between atoms: C_22  and  C_23
REMARK                            x       y       z     vdW  Elec       q    Type
REMARK                         _______ _______ _______ _____ _____    ______ ____
ROOT
ATOM      1  C   UNL     1       2.898   4.371  20.344  0.00  0.00    +0.000 A 
ATOM      2  C   UNL     1       2.610   5.697  19.885  0.00  0.00    +0.000 A 
ATOM      3  C   UNL     1       1.444   6.480  20.457  0.00  0.00    +0.000 C 
ATOM      4  C   UNL     1       3.402   6.296  18.886  0.00  0.00    +0.000 A 
ATOM      5  C   UNL     1       4.534   5.653  18.383  0.00  0.00    +0.000 A 
ATOM      6  C   UNL     1       4.792   4.336  18.809  0.00  0.00    +0.000 A 
ATOM      7  C   UNL     1       4.000   3.681  19.794  0.00  0.00    +0.000 A 
ENDROOT
BRANCH   1   9
ATOM      8  C   UNL     1       1.316   2.762  21.337  0.00  0.00    +0.000 C 
ATOM      9  O   UNL     1       1.984   4.002  21.286  0.00  0.00    +0.000 OA
ENDBRANCH   1   9
BRANCH   4  10
ATOM     10  O   UNL     1       3.049   7.510  18.359  0.00  0.00    +0.000 OA
ATOM     11  H   UNL     1       3.831   8.057  18.182  0.00  0.00    +0.000 HD
ENDBRANCH   4  10
BRANCH   5  12
ATOM     12  C   UNL     1       5.435   6.310  17.386  0.00  0.00    +0.000 C 
ATOM     13  O   UNL     1       6.055   7.327  17.707  0.00  0.00    +0.000 OA
BRANCH  12  14
ATOM     14  C   UNL     1       5.509   5.770  15.991  0.00  0.00    +0.000 C 
ATOM     15  C   UNL     1       6.561   5.101  15.504  0.00  0.00    +0.000 C 
BRANCH  15  16
ATOM     16  C   UNL     1       6.554   4.578  14.126  0.00  0.00    +0.000 A 
ATOM     17  C   UNL     1       7.523   5.005  13.207  0.00  0.00    +0.000 A 
ATOM     18  C   UNL     1       7.504   4.536  11.889  0.00  0.00    +0.000 A 
ATOM     19  C   UNL     1       6.523   3.638  11.478  0.00  0.00    +0.000 A 
ATOM     20  C   UNL     1       5.558   3.201  12.386  0.00  0.00    +0.000 A 
ATOM     21  C   UNL     1       5.576   3.671  13.708  0.00  0.00    +0.000 A 
ENDBRANCH  15  16
BRANCH  15  22
ATOM     22  O   UNL     1       7.721   4.846  16.203  0.00  0.00    +0.000 OA
ATOM     23  H   UNL     1       8.081   3.991  15.878  0.00  0.00    +0.000 HD
ENDBRANCH  15  22
ENDBRANCH  12  14
ENDBRANCH   5  12
BRANCH   6  24
ATOM     24  O   UNL     1       5.835   3.627  18.244  0.00  0.00    +0.000 OA
ATOM     25  H   UNL     1       6.590   3.624  18.869  0.00  0.00    +0.000 HD
ENDBRANCH   6  24
BRANCH   7  26
ATOM     26  C   UNL     1       4.448   2.283  20.117  0.00  0.00    +0.000 C 
ATOM     27  O   UNL     1       4.315   1.285  19.429  0.00  0.00    +0.000 OA
ENDBRANCH   7  26
TORSDOF 8
ENDMDL
MODEL 2
REMARK VINA RESULT:      -7.4      0.453      1.082
REMARK  Name = 
REMARK  10 active torsions:
REMARK  status: ('A' for Active; 'I' for Inactive)
REMARK    1  A    between atoms: C_1  and  O_2
REMARK    2  A    between atoms: O_2  and  C_3
REMARK    3  A    between atoms: C_4  and  C_5
REMARK    4  A    between atoms: C_6  and  O_7
REMARK    5  A    between atoms: C_8  and  C_9
REMARK    6  A    between atoms: C_9  and  C_11
REMARK    7  A    between atoms: C_12  and  O_13
REMARK    8  A    between atoms: C_12  and  C_14
REMARK    9  A    between atoms: C_20  and  O_21
REMARK   10  A    between atoms: C_22  and  C_23
REMARK                            x       y       z     vdW  Elec       q    Type
REMARK                         _______ _______ _______ _____ _____    ______ ____
ROOT
ATOM      1  C   UNL     1       2.809   4.322  20.176  0.00  0.00    +0.000 A 
ATOM      2  C   UNL     1       2.601   5.673  19.747  0.00  0.00    +0.000 A 
ATOM      3  C   UNL     1       1.422   6.477  20.260  0.00  0.00    +0.000 C 
ATOM      4  C   UNL     1       3.486   6.278  18.833  0.00  0.00    +0.000 A 
ATOM      5  C   UNL     1       4.630   5.612  18.391  0.00  0.00    +0.000 A 
ATOM      6  C   UNL     1       4.811   4.272  18.786  0.00  0.00    +0.000 A 
ATOM      7  C   UNL     1       3.925   3.612  19.684  0.00  0.00    +0.000 A 
ENDROOT
BRANCH   1   9
ATOM      8  C   UNL     1       1.936   3.003  22.067  0.00  0.00    +0.000 C 
ATOM      9  O   UNL     1       1.814   3.953  21.033  0.00  0.00    +0.000 OA
ENDBRANCH   1   9
BRANCH   4  10
ATOM     10  O   UNL     1       3.214   7.521  18.327  0.00  0.00    +0.000 OA
ATOM     11  H   UNL     1       2.386   7.521  17.820  0.00  0.00    +0.000 HD
ENDBRANCH   4  10
BRANCH   5  12
ATOM     12  C   UNL     1       5.625   6.270  17.489  0.00  0.00    +0.000 C 
ATOM     13  O   UNL     1       6.303   7.208  17.917  0.00  0.00    +0.000 OA
BRANCH  12  14
ATOM     14  C   UNL     1       5.727   5.834  16.060  0.00  0.00    +0.000 C 
ATOM     15  C   UNL     1       6.739   5.107  15.571  0.00  0.00    +0.000 C 
BRANCH  15  16
ATOM     16  C   UNL     1       6.760   4.695  14.156  0.00  0.00    +0.000 A 
ATOM     17  C   UNL     1       5.867   3.716  13.696  0.00  0.00    +0.000 A 
ATOM     18  C   UNL     1       5.901   3.297  12.362  0.00  0.00    +0.000 A 
ATOM     19  C   UNL     1       6.822   3.851  11.476  0.00  0.00    +0.000 A 
ATOM     20  C   UNL     1       7.710   4.831  11.921  0.00  0.00    +0.000 A 
ATOM     21  C   UNL     1       7.676   5.252  13.259  0.00  0.00    +0.000 A 
ENDBRANCH  15  16
BRANCH  15  22
ATOM     22  O   UNL     1       7.831   4.691  16.301  0.00  0.00    +0.000 OA
ATOM     23  H   UNL     1       8.102   3.813  15.953  0.00  0.00    +0.000 HD
ENDBRANCH  15  22
ENDBRANCH  12  14
ENDBRANCH   5  12
BRANCH   6  24
ATOM     24  O   UNL     1       5.870   3.546  18.272  0.00  0.00    +0.000 OA
ATOM     25  H   UNL     1       6.706   3.997  18.512  0.00  0.00    +0.000 HD
ENDBRANCH   6  24
BRANCH   7  26
ATOM     26  C   UNL     1       4.301   2.189  19.986  0.00  0.00    +0.000 C 
ATOM     27  O   UNL     1       5.196   1.797  20.715  0.00  0.00    +0.000 OA
ENDBRANCH   7  26
TORSDOF 8
ENDMDL
MODEL 3
REMARK VINA RESULT:      -7.4      0.703      2.851
REMARK  Name = 
REMARK  10 active torsions:
REMARK  status: ('A' for Active; 'I' for Inactive)
REMARK    1  A    between atoms: C_1  and  O_2
REMARK    2  A    between atoms: O_2  and  C_3
REMARK    3  A    between atoms: C_4  and  C_5
REMARK    4  A    between atoms: C_6  and  O_7
REMARK    5  A    between atoms: C_8  and  C_9
REMARK    6  A    between atoms: C_9  and  C_11
REMARK    7  A    between atoms: C_12  and  O_13
REMARK    8  A    between atoms: C_12  and  C_14
REMARK    9  A    between atoms: C_20  and  O_21
REMARK   10  A    between atoms: C_22  and  C_23
REMARK                            x       y       z     vdW  Elec       q    Type
REMARK                         _______ _______ _______ _____ _____    ______ ____
ROOT
ATOM      1  C   UNL     1       2.970   4.217  20.294  0.00  0.00    +0.000 A 
ATOM      2  C   UNL     1       4.149   3.610  19.753  0.00  0.00    +0.000 A 
ATOM      3  C   UNL     1       4.555   2.206  20.161  0.00  0.00    +0.000 C 
ATOM      4  C   UNL     1       4.958   4.308  18.837  0.00  0.00    +0.000 A 
ATOM      5  C   UNL     1       4.589   5.569  18.366  0.00  0.00    +0.000 A 
ATOM      6  C   UNL     1       3.450   6.178  18.927  0.00  0.00    +0.000 A 
ATOM      7  C   UNL     1       2.620   5.520  19.879  0.00  0.00    +0.000 A 
ENDROOT
BRANCH   1   9
ATOM      8  C   UNL     1       1.122   2.740  20.986  0.00  0.00    +0.000 C 
ATOM      9  O   UNL     1       2.372   3.362  21.173  0.00  0.00    +0.000 OA
ENDBRANCH   1   9
BRANCH   4  10
ATOM     10  O   UNL     1       6.150   3.776  18.421  0.00  0.00    +0.000 OA
ATOM     11  H   UNL     1       6.152   2.809  18.505  0.00  0.00    +0.000 HD
ENDBRANCH   4  10
BRANCH   5  12
ATOM     12  C   UNL     1       5.391   6.288  17.328  0.00  0.00    +0.000 C 
ATOM     13  O   UNL     1       5.933   7.358  17.616  0.00  0.00    +0.000 OA
BRANCH  12  14
ATOM     14  C   UNL     1       5.459   5.739  15.937  0.00  0.00    +0.000 C 
ATOM     15  C   UNL     1       6.522   5.098  15.438  0.00  0.00    +0.000 C 
BRANCH  15  16
ATOM     16  C   UNL     1       6.507   4.564  14.064  0.00  0.00    +0.000 A 
ATOM     17  C   UNL     1       5.525   3.639  13.680  0.00  0.00    +0.000 A 
ATOM     18  C   UNL     1       5.522   3.105  12.387  0.00  0.00    +0.000 A 
ATOM     19  C   UNL     1       6.494   3.488  11.467  0.00  0.00    +0.000 A 
ATOM     20  C   UNL     1       7.472   4.413  11.836  0.00  0.00    +0.000 A 
ATOM     21  C   UNL     1       7.476   4.950  13.133  0.00  0.00    +0.000 A 
ENDBRANCH  15  16
BRANCH  15  22
ATOM     22  O   UNL     1       7.701   4.884  16.118  0.00  0.00    +0.000 OA
ATOM     23  H   UNL     1       8.080   4.038  15.793  0.00  0.00    +0.000 HD
ENDBRANCH  15  22
ENDBRANCH  12  14
ENDBRANCH   5  12
BRANCH   6  24
ATOM     24  O   UNL     1       3.123   7.473  18.571  0.00  0.00    +0.000 OA
ATOM     25  H   UNL     1       3.940   7.939  18.294  0.00  0.00    +0.000 HD
ENDBRANCH   6  24
BRANCH   7  26
ATOM     26  C   UNL     1       1.449   6.338  20.346  0.00  0.00    +0.000 C 
ATOM     27  O   UNL     1       1.476   7.437  20.874  0.00  0.00    +0.000 OA
ENDBRANCH   7  26
TORSDOF 8
ENDMDL
MODEL 4
REMARK VINA RESULT:      -7.3      1.181      3.181
REMARK  Name = 
REMARK  10 active torsions:
REMARK  status: ('A' for Active; 'I' for Inactive)
REMARK    1  A    between atoms: C_1  and  O_2
REMARK    2  A    between atoms: O_2  and  C_3
REMARK    3  A    between atoms: C_4  and  C_5
REMARK    4  A    between atoms: C_6  and  O_7
REMARK    5  A    between atoms: C_8  and  C_9
REMARK    6  A    between atoms: C_9  and  C_11
REMARK    7  A    between atoms: C_12  and  O_13
REMARK    8  A    between atoms: C_12  and  C_14
REMARK    9  A    between atoms: C_20  and  O_21
REMARK   10  A    between atoms: C_22  and  C_23
REMARK                            x       y       z     vdW  Elec       q    Type
REMARK                         _______ _______ _______ _____ _____    ______ ____
ROOT
ATOM      1  C   UNL     1       2.417   6.003  19.755  0.00  0.00    +0.000 A 
ATOM      2  C   UNL     1       2.972   4.736  20.128  0.00  0.00    +0.000 A 
ATOM      3  C   UNL     1       2.268   3.847  21.134  0.00  0.00    +0.000 C 
ATOM      4  C   UNL     1       4.189   4.296  19.571  0.00  0.00    +0.000 A 
ATOM      5  C   UNL     1       4.837   5.037  18.583  0.00  0.00    +0.000 A 
ATOM      6  C   UNL     1       4.309   6.298  18.245  0.00  0.00    +0.000 A 
ATOM      7  C   UNL     1       3.098   6.795  18.806  0.00  0.00    +0.000 A 
ENDROOT
BRANCH   1   9
ATOM      8  C   UNL     1       0.966   7.358  21.216  0.00  0.00    +0.000 C 
ATOM      9  O   UNL     1       1.258   6.218  20.442  0.00  0.00    +0.000 OA
ENDBRANCH   1   9
BRANCH   4  10
ATOM     10  O   UNL     1       4.781   3.147  20.024  0.00  0.00    +0.000 OA
ATOM     11  H   UNL     1       4.812   2.470  19.328  0.00  0.00    +0.000 HD
ENDBRANCH   4  10
BRANCH   5  12
ATOM     12  C   UNL     1       6.084   4.544  17.919  0.00  0.00    +0.000 C 
ATOM     13  O   UNL     1       7.124   4.450  18.576  0.00  0.00    +0.000 OA
BRANCH  12  14
ATOM     14  C   UNL     1       6.071   4.246  16.452  0.00  0.00    +0.000 C 
ATOM     15  C   UNL     1       6.771   4.936  15.544  0.00  0.00    +0.000 C 
BRANCH  15  16
ATOM     16  C   UNL     1       6.728   4.569  14.116  0.00  0.00    +0.000 A 
ATOM     17  C   UNL     1       5.810   3.610  13.665  0.00  0.00    +0.000 A 
ATOM     18  C   UNL     1       5.783   3.235  12.317  0.00  0.00    +0.000 A 
ATOM     19  C   UNL     1       6.667   3.814  11.410  0.00  0.00    +0.000 A 
ATOM     20  C   UNL     1       7.579   4.775  11.847  0.00  0.00    +0.000 A 
ATOM     21  C   UNL     1       7.607   5.152  13.198  0.00  0.00    +0.000 A 
ENDBRANCH  15  16
BRANCH  15  22
ATOM     22  O   UNL     1       7.568   6.024  15.827  0.00  0.00    +0.000 OA
ATOM     23  H   UNL     1       8.415   5.683  16.193  0.00  0.00    +0.000 HD
ENDBRANCH  15  22
ENDBRANCH  12  14
ENDBRANCH   5  12
BRANCH   6  24
ATOM     24  O   UNL     1       4.990   7.109  17.357  0.00  0.00    +0.000 OA
ATOM     25  H   UNL     1       5.477   7.792  17.864  0.00  0.00    +0.000 HD
ENDBRANCH   6  24
BRANCH   7  26
ATOM     26  C   UNL     1       2.701   8.156  18.307  0.00  0.00    +0.000 C 
ATOM     27  O   UNL     1       2.310   8.451  17.190  0.00  0.00    +0.000 OA
ENDBRANCH   7  26
TORSDOF 8
ENDMDL
MODEL 5
REMARK VINA RESULT:      -7.3      1.118      2.159
REMARK  Name = 
REMARK  10 active torsions:
REMARK  status: ('A' for Active; 'I' for Inactive)
REMARK    1  A    between atoms: C_1  and  O_2
REMARK    2  A    between atoms: O_2  and  C_3
REMARK    3  A    between atoms: C_4  and  C_5
REMARK    4  A    between atoms: C_6  and  O_7
REMARK    5  A    between atoms: C_8  and  C_9
REMARK    6  A    between atoms: C_9  and  C_11
REMARK    7  A    between atoms: C_12  and  O_13
REMARK    8  A    between atoms: C_12  and  C_14
REMARK    9  A    between atoms: C_20  and  O_21
REMARK   10  A    between atoms: C_22  and  C_23
REMARK                            x       y       z     vdW  Elec       q    Type
REMARK                         _______ _______ _______ _____ _____    ______ ____
ROOT
ATOM      1  C   UNL     1       2.424   5.525  19.849  0.00  0.00    +0.000 A 
ATOM      2  C   UNL     1       3.018   6.403  18.886  0.00  0.00    +0.000 A 
ATOM      3  C   UNL     1       2.380   7.740  18.560  0.00  0.00    +0.000 C 
ATOM      4  C   UNL     1       4.202   6.038  18.217  0.00  0.00    +0.000 A 
ATOM      5  C   UNL     1       4.872   4.856  18.536  0.00  0.00    +0.000 A 
ATOM      6  C   UNL     1       4.268   3.978  19.456  0.00  0.00    +0.000 A 
ATOM      7  C   UNL     1       3.056   4.295  20.133  0.00  0.00    +0.000 A 
ENDROOT
BRANCH   1   9
ATOM      8  C   UNL     1       1.211   7.033  21.376  0.00  0.00    +0.000 C 
ATOM      9  O   UNL     1       1.279   6.082  20.338  0.00  0.00    +0.000 OA
ENDBRANCH   1   9
BRANCH   4  10
ATOM     10  O   UNL     1       4.695   6.820  17.207  0.00  0.00    +0.000 OA
ATOM     11  H   UNL     1       5.250   6.302  16.601  0.00  0.00    +0.000 HD
ENDBRANCH   4  10
BRANCH   5  12
ATOM     12  C   UNL     1       6.176   4.494  17.898  0.00  0.00    +0.000 C 
ATOM     13  O   UNL     1       7.204   4.491  18.581  0.00  0.00    +0.000 OA
BRANCH  12  14
ATOM     14  C   UNL     1       6.227   4.218  16.428  0.00  0.00    +0.000 C 
ATOM     15  C   UNL     1       6.842   5.008  15.540  0.00  0.00    +0.000 C 
BRANCH  15  16
ATOM     16  C   UNL     1       6.871   4.659  14.108  0.00  0.00    +0.000 A 
ATOM     17  C   UNL     1       6.043   3.640  13.616  0.00  0.00    +0.000 A 
ATOM     18  C   UNL     1       6.087   3.282  12.264  0.00  0.00    +0.000 A 
ATOM     19  C   UNL     1       6.952   3.939  11.393  0.00  0.00    +0.000 A 
ATOM     20  C   UNL     1       7.775   4.960  11.870  0.00  0.00    +0.000 A 
ATOM     21  C   UNL     1       7.731   5.319  13.226  0.00  0.00    +0.000 A 
ENDBRANCH  15  16
BRANCH  15  22
ATOM     22  O   UNL     1       7.480   6.190  15.850  0.00  0.00    +0.000 OA
ATOM     23  H   UNL     1       8.376   6.157  15.447  0.00  0.00    +0.000 HD
ENDBRANCH  15  22
ENDBRANCH  12  14
ENDBRANCH   5  12
BRANCH   6  24
ATOM     24  O   UNL     1       4.845   2.747  19.706  0.00  0.00    +0.000 OA
ATOM     25  H   UNL     1       5.063   2.322  18.851  0.00  0.00    +0.000 HD
ENDBRANCH   6  24
BRANCH   7  26
ATOM     26  C   UNL     1       2.582   3.229  21.081  0.00  0.00    +0.000 C 
ATOM     27  O   UNL     1       2.136   3.382  22.206  0.00  0.00    +0.000 OA
ENDBRANCH   7  26
TORSDOF 8
ENDMDL
MODEL 6
REMARK VINA RESULT:      -7.2      1.138      1.834
REMARK  Name = 
REMARK  10 active torsions:
REMARK  status: ('A' for Active; 'I' for Inactive)
REMARK    1  A    between atoms: C_1  and  O_2
REMARK    2  A    between atoms: O_2  and  C_3
REMARK    3  A    between atoms: C_4  and  C_5
REMARK    4  A    between atoms: C_6  and  O_7
REMARK    5  A    between atoms: C_8  and  C_9
REMARK    6  A    between atoms: C_9  and  C_11
REMARK    7  A    between atoms: C_12  and  O_13
REMARK    8  A    between atoms: C_12  and  C_14
REMARK    9  A    between atoms: C_20  and  O_21
REMARK   10  A    between atoms: C_22  and  C_23
REMARK                            x       y       z     vdW  Elec       q    Type
REMARK                         _______ _______ _______ _____ _____    ______ ____
ROOT
ATOM      1  C   UNL     1       2.386   5.423  19.902  0.00  0.00    +0.000 A 
ATOM      2  C   UNL     1       3.023   6.368  19.033  0.00  0.00    +0.000 A 
ATOM      3  C   UNL     1       2.410   7.734  18.792  0.00  0.00    +0.000 C 
ATOM      4  C   UNL     1       4.227   6.042  18.380  0.00  0.00    +0.000 A 
ATOM      5  C   UNL     1       4.875   4.831  18.628  0.00  0.00    +0.000 A 
ATOM      6  C   UNL     1       4.229   3.890  19.453  0.00  0.00    +0.000 A 
ATOM      7  C   UNL     1       2.996   4.167  20.109  0.00  0.00    +0.000 A 
ENDROOT
BRANCH   1   9
ATOM      8  C   UNL     1       1.141   7.065  21.256  0.00  0.00    +0.000 C 
ATOM      9  O   UNL     1       1.230   5.955  20.392  0.00  0.00    +0.000 OA
ENDBRANCH   1   9
BRANCH   4  10
ATOM     10  O   UNL     1       4.764   6.895  17.453  0.00  0.00    +0.000 OA
ATOM     11  H   UNL     1       4.762   6.499  16.567  0.00  0.00    +0.000 HD
ENDBRANCH   4  10
BRANCH   5  12
ATOM     12  C   UNL     1       6.197   4.505  18.010  0.00  0.00    +0.000 C 
ATOM     13  O   UNL     1       7.216   4.539  18.706  0.00  0.00    +0.000 OA
BRANCH  12  14
ATOM     14  C   UNL     1       6.276   4.219  16.543  0.00  0.00    +0.000 C 
ATOM     15  C   UNL     1       6.837   5.043  15.650  0.00  0.00    +0.000 C 
BRANCH  15  16
ATOM     16  C   UNL     1       6.899   4.683  14.222  0.00  0.00    +0.000 A 
ATOM     17  C   UNL     1       7.785   5.352  13.366  0.00  0.00    +0.000 A 
ATOM     18  C   UNL     1       7.829   5.037  12.004  0.00  0.00    +0.000 A 
ATOM     19  C   UNL     1       6.992   4.052  11.485  0.00  0.00    +0.000 A 
ATOM     20  C   UNL     1       6.111   3.374  12.328  0.00  0.00    +0.000 A 
ATOM     21  C   UNL     1       6.067   3.690  13.695  0.00  0.00    +0.000 A 
ENDBRANCH  15  16
BRANCH  15  22
ATOM     22  O   UNL     1       7.386   6.270  15.951  0.00  0.00    +0.000 OA
ATOM     23  H   UNL     1       6.869   6.952  15.468  0.00  0.00    +0.000 HD
ENDBRANCH  15  22
ENDBRANCH  12  14
ENDBRANCH   5  12
BRANCH   6  24
ATOM     24  O   UNL     1       4.785   2.637  19.625  0.00  0.00    +0.000 OA
ATOM     25  H   UNL     1       4.162   1.965  19.276  0.00  0.00    +0.000 HD
ENDBRANCH   6  24
BRANCH   7  26
ATOM     26  C   UNL     1       2.478   3.035  20.952  0.00  0.00    +0.000 C 
ATOM     27  O   UNL     1       2.987   2.566  21.956  0.00  0.00    +0.000 OA
ENDBRANCH   7  26
TORSDOF 8
ENDMDL
MODEL 7
REMARK VINA RESULT:      -7.0      1.190      3.018
REMARK  Name = 
REMARK  10 active torsions:
REMARK  status: ('A' for Active; 'I' for Inactive)
REMARK    1  A    between atoms: C_1  and  O_2
REMARK    2  A    between atoms: O_2  and  C_3
REMARK    3  A    between atoms: C_4  and  C_5
REMARK    4  A    between atoms: C_6  and  O_7
REMARK    5  A    between atoms: C_8  and  C_9
REMARK    6  A    between atoms: C_9  and  C_11
REMARK    7  A    between atoms: C_12  and  O_13
REMARK    8  A    between atoms: C_12  and  C_14
REMARK    9  A    between atoms: C_20  and  O_21
REMARK   10  A    between atoms: C_22  and  C_23
REMARK                            x       y       z     vdW  Elec       q    Type
REMARK                         _______ _______ _______ _____ _____    ______ ____
ROOT
ATOM      1  C   UNL     1       3.143   4.975  19.865  0.00  0.00    +0.000 A 
ATOM      2  C   UNL     1       4.116   4.076  19.320  0.00  0.00    +0.000 A 
ATOM      3  C   UNL     1       4.337   2.707  19.933  0.00  0.00    +0.000 C 
ATOM      4  C   UNL     1       4.894   4.452  18.208  0.00  0.00    +0.000 A 
ATOM      5  C   UNL     1       4.677   5.667  17.556  0.00  0.00    +0.000 A 
ATOM      6  C   UNL     1       3.745   6.562  18.116  0.00  0.00    +0.000 A 
ATOM      7  C   UNL     1       2.960   6.235  19.257  0.00  0.00    +0.000 A 
ENDROOT
BRANCH   1   9
ATOM      8  C   UNL     1       1.268   3.798  20.950  0.00  0.00    +0.000 C 
ATOM      9  O   UNL     1       2.541   4.401  20.947  0.00  0.00    +0.000 OA
ENDBRANCH   1   9
BRANCH   4  10
ATOM     10  O   UNL     1       5.910   3.645  17.769  0.00  0.00    +0.000 OA
ATOM     11  H   UNL     1       6.063   3.759  16.817  0.00  0.00    +0.000 HD
ENDBRANCH   4  10
BRANCH   5  12
ATOM     12  C   UNL     1       5.433   6.044  16.322  0.00  0.00    +0.000 C 
ATOM     13  O   UNL     1       6.077   7.096  16.304  0.00  0.00    +0.000 OA
BRANCH  12  14
ATOM     14  C   UNL     1       5.333   5.181  15.102  0.00  0.00    +0.000 C 
ATOM     15  C   UNL     1       6.377   4.855  14.331  0.00  0.00    +0.000 C 
BRANCH  15  16
ATOM     16  C   UNL     1       6.206   3.979  13.157  0.00  0.00    +0.000 A 
ATOM     17  C   UNL     1       4.920   3.633  12.720  0.00  0.00    +0.000 A 
ATOM     18  C   UNL     1       4.750   2.778  11.625  0.00  0.00    +0.000 A 
ATOM     19  C   UNL     1       5.859   2.265  10.957  0.00  0.00    +0.000 A 
ATOM     20  C   UNL     1       7.144   2.609  11.380  0.00  0.00    +0.000 A 
ATOM     21  C   UNL     1       7.315   3.466  12.477  0.00  0.00    +0.000 A 
ENDBRANCH  15  16
BRANCH  15  22
ATOM     22  O   UNL     1       7.669   5.289  14.533  0.00  0.00    +0.000 OA
ATOM     23  H   UNL     1       7.683   6.259  14.376  0.00  0.00    +0.000 HD
ENDBRANCH  15  22
ENDBRANCH  12  14
ENDBRANCH   5  12
BRANCH   6  24
ATOM     24  O   UNL     1       3.591   7.821  17.565  0.00  0.00    +0.000 OA
ATOM     25  H   UNL     1       4.337   8.386  17.856  0.00  0.00    +0.000 HD
ENDBRANCH   6  24
BRANCH   7  26
ATOM     26  C   UNL     1       2.019   7.324  19.691  0.00  0.00    +0.000 C 
ATOM     27  O   UNL     1       1.471   7.443  20.774  0.00  0.00    +0.000 OA
ENDBRANCH   7  26
TORSDOF 8
ENDMDL
MODEL 8
REMARK VINA RESULT:      -7.0      1.230      3.059
REMARK  Name = 
REMARK  10 active torsions:
REMARK  status: ('A' for Active; 'I' for Inactive)
REMARK    1  A    between atoms: C_1  and  O_2
REMARK    2  A    between atoms: O_2  and  C_3
REMARK    3  A    between atoms: C_4  and  C_5
REMARK    4  A    between atoms: C_6  and  O_7
REMARK    5  A    between atoms: C_8  and  C_9
REMARK    6  A    between atoms: C_9  and  C_11
REMARK    7  A    between atoms: C_12  and  O_13
REMARK    8  A    between atoms: C_12  and  C_14
REMARK    9  A    between atoms: C_20  and  O_21
REMARK   10  A    between atoms: C_22  and  C_23
REMARK                            x       y       z     vdW  Elec       q    Type
REMARK                         _______ _______ _______ _____ _____    ______ ____
ROOT
ATOM      1  C   UNL     1       2.409   6.033  19.652  0.00  0.00    +0.000 A 
ATOM      2  C   UNL     1       2.997   4.806  20.101  0.00  0.00    +0.000 A 
ATOM      3  C   UNL     1       2.319   3.966  21.166  0.00  0.00    +0.000 C 
ATOM      4  C   UNL     1       4.220   4.360  19.566  0.00  0.00    +0.000 A 
ATOM      5  C   UNL     1       4.846   5.052  18.528  0.00  0.00    +0.000 A 
ATOM      6  C   UNL     1       4.285   6.276  18.114  0.00  0.00    +0.000 A 
ATOM      7  C   UNL     1       3.066   6.778  18.650  0.00  0.00    +0.000 A 
ENDROOT
BRANCH   1   9
ATOM      8  C   UNL     1       1.025   7.324  21.232  0.00  0.00    +0.000 C 
ATOM      9  O   UNL     1       1.249   6.263  20.332  0.00  0.00    +0.000 OA
ENDBRANCH   1   9
BRANCH   4  10
ATOM     10  O   UNL     1       4.843   3.256  20.086  0.00  0.00    +0.000 OA
ATOM     11  H   UNL     1       5.414   3.495  20.834  0.00  0.00    +0.000 HD
ENDBRANCH   4  10
BRANCH   5  12
ATOM     12  C   UNL     1       6.100   4.547  17.888  0.00  0.00    +0.000 C 
ATOM     13  O   UNL     1       7.131   4.462  18.561  0.00  0.00    +0.000 OA
BRANCH  12  14
ATOM     14  C   UNL     1       6.107   4.227  16.426  0.00  0.00    +0.000 C 
ATOM     15  C   UNL     1       6.788   4.928  15.511  0.00  0.00    +0.000 C 
BRANCH  15  16
ATOM     16  C   UNL     1       6.766   4.539  14.090  0.00  0.00    +0.000 A 
ATOM     17  C   UNL     1       7.647   5.143  13.182  0.00  0.00    +0.000 A 
ATOM     18  C   UNL     1       7.612   4.801  11.825  0.00  0.00    +0.000 A 
ATOM     19  C   UNL     1       6.702   3.854  11.364  0.00  0.00    +0.000 A 
ATOM     20  C   UNL     1       5.825   3.241  12.260  0.00  0.00    +0.000 A 
ATOM     21  C   UNL     1       5.860   3.583  13.621  0.00  0.00    +0.000 A 
ENDBRANCH  15  16
BRANCH  15  22
ATOM     22  O   UNL     1       7.544   6.047  15.783  0.00  0.00    +0.000 OA
ATOM     23  H   UNL     1       7.998   6.307  14.950  0.00  0.00    +0.000 HD
ENDBRANCH  15  22
ENDBRANCH  12  14
ENDBRANCH   5  12
BRANCH   6  24
ATOM     24  O   UNL     1       4.942   7.044  17.171  0.00  0.00    +0.000 OA
ATOM     25  H   UNL     1       4.290   7.630  16.733  0.00  0.00    +0.000 HD
ENDBRANCH   6  24
BRANCH   7  26
ATOM     26  C   UNL     1       2.633   8.095  18.068  0.00  0.00    +0.000 C 
ATOM     27  O   UNL     1       2.022   8.989  18.630  0.00  0.00    +0.000 OA
ENDBRANCH   7  26
TORSDOF 8
ENDMDL
MODEL 9
REMARK VINA RESULT:      -7.0      3.399      5.169
REMARK  Name = 
REMARK  10 active torsions:
REMARK  status: ('A' for Active; 'I' for Inactive)
REMARK    1  A    between atoms: C_1  and  O_2
REMARK    2  A    between atoms: O_2  and  C_3
REMARK    3  A    between atoms: C_4  and  C_5
REMARK    4  A    between atoms: C_6  and  O_7
REMARK    5  A    between atoms: C_8  and  C_9
REMARK    6  A    between atoms: C_9  and  C_11
REMARK    7  A    between atoms: C_12  and  O_13
REMARK    8  A    between atoms: C_12  and  C_14
REMARK    9  A    between atoms: C_20  and  O_21
REMARK   10  A    between atoms: C_22  and  C_23
REMARK                            x       y       z     vdW  Elec       q    Type
REMARK                         _______ _______ _______ _____ _____    ______ ____
ROOT
ATOM      1  C   UNL     1       3.284   5.041  18.943  0.00  0.00    +0.000 A 
ATOM      2  C   UNL     1       3.247   6.254  18.182  0.00  0.00    +0.000 A 
ATOM      3  C   UNL     1       1.978   7.080  18.102  0.00  0.00    +0.000 C 
ATOM      4  C   UNL     1       4.388   6.698  17.487  0.00  0.00    +0.000 A 
ATOM      5  C   UNL     1       5.603   6.020  17.591  0.00  0.00    +0.000 A 
ATOM      6  C   UNL     1       5.627   4.809  18.309  0.00  0.00    +0.000 A 
ATOM      7  C   UNL     1       4.489   4.307  19.002  0.00  0.00    +0.000 A 
ENDROOT
BRANCH   1   9
ATOM      8  C   UNL     1       1.816   4.566  20.866  0.00  0.00    +0.000 C 
ATOM      9  O   UNL     1       2.060   4.808  19.499  0.00  0.00    +0.000 OA
ENDBRANCH   1   9
BRANCH   4  10
ATOM     10  O   UNL     1       4.314   7.786  16.658  0.00  0.00    +0.000 OA
ATOM     11  H   UNL     1       4.265   7.516  15.727  0.00  0.00    +0.000 HD
ENDBRANCH   4  10
BRANCH   5  12
ATOM     12  C   UNL     1       6.846   6.525  16.929  0.00  0.00    +0.000 C 
ATOM     13  O   UNL     1       7.487   5.773  16.190  0.00  0.00    +0.000 OA
BRANCH  12  14
ATOM     14  C   UNL     1       7.336   7.906  17.236  0.00  0.00    +0.000 C 
ATOM     15  C   UNL     1       8.169   8.197  18.242  0.00  0.00    +0.000 C 
BRANCH  15  16
ATOM     16  C   UNL     1       8.629   9.579  18.468  0.00  0.00    +0.000 A 
ATOM     17  C   UNL     1       9.387   9.890  19.606  0.00  0.00    +0.000 A 
ATOM     18  C   UNL     1       9.801  11.205  19.843  0.00  0.00    +0.000 A 
ATOM     19  C   UNL     1       9.466  12.218  18.949  0.00  0.00    +0.000 A 
ATOM     20  C   UNL     1       8.718  11.919  17.809  0.00  0.00    +0.000 A 
ATOM     21  C   UNL     1       8.302  10.600  17.571  0.00  0.00    +0.000 A 
ENDBRANCH  15  16
BRANCH  15  22
ATOM     22  O   UNL     1       8.660   7.279  19.145  0.00  0.00    +0.000 OA
ATOM     23  H   UNL     1       8.743   7.733  20.013  0.00  0.00    +0.000 HD
ENDBRANCH  15  22
ENDBRANCH  12  14
ENDBRANCH   5  12
BRANCH   6  24
ATOM     24  O   UNL     1       6.783   4.051  18.334  0.00  0.00    +0.000 OA
ATOM     25  H   UNL     1       7.544   4.644  18.509  0.00  0.00    +0.000 HD
ENDBRANCH   6  24
BRANCH   7  26
ATOM     26  C   UNL     1       4.725   3.006  19.715  0.00  0.00    +0.000 C 
ATOM     27  O   UNL     1       4.201   1.928  19.485  0.00  0.00    +0.000 OA
ENDBRANCH   7  26
TORSDOF 8
ENDMDL
