MODEL 1
REMARK VINA RESULT:      -7.5      0.000      0.000
REMARK  Name = 
REMARK  13 active torsions:
REMARK  status: ('A' for Active; 'I' for Inactive)
REMARK    1  A    between atoms: C_1  and  C_2
REMARK    2  A    between atoms: C_2  and  C_3
REMARK    3  A    between atoms: C_2  and  C_4
REMARK    4  A    between atoms: C_4  and  C_5
REMARK    5  A    between atoms: C_5  and  N_6
REMARK    6  A    between atoms: C_10  and  C_11
REMARK    7  A    between atoms: C_11  and  C_12
REMARK    8  A    between atoms: C_12  and  C_13
REMARK    9  A    between atoms: C_12  and  C_14
REMARK   10  A    between atoms: C_19  and  C_20
REMARK   11  A    between atoms: C_20  and  C_21
REMARK   12  A    between atoms: C_21  and  C_22
REMARK   13  A    between atoms: C_21  and  C_23
REMARK                            x       y       z     vdW  Elec       q    Type
REMARK                         _______ _______ _______ _____ _____    ______ ____
ROOT
ATOM      1  N   UNL     1       3.998   4.409  17.868  0.00  0.00    +0.000 N 
ATOM      2  C   UNL     1       4.505   3.314  17.066  0.00  0.00    +0.000 C 
ATOM      3  C   UNL     1       5.388   3.793  15.960  0.00  0.00    +0.000 A 
ATOM      4  C   UNL     1       4.946   3.769  14.632  0.00  0.00    +0.000 A 
ATOM      5  C   UNL     1       5.764   4.225  13.595  0.00  0.00    +0.000 A 
ATOM      6  C   UNL     1       7.039   4.707  13.907  0.00  0.00    +0.000 A 
ATOM      7  C   UNL     1       7.490   4.721  15.231  0.00  0.00    +0.000 A 
ATOM      8  C   UNL     1       6.663   4.276  16.270  0.00  0.00    +0.000 A 
ATOM      9  N   UNL     1       7.055   4.403  17.615  0.00  0.00    +0.000 N 
ATOM     10  C   UNL     1       6.287   5.407  18.413  0.00  0.00    +0.000 C 
ATOM     11  C   UNL     1       4.814   5.043  18.789  0.00  0.00    +0.000 C 
ATOM     12  O   UNL     1       4.331   5.496  19.834  0.00  0.00    +0.000 OA
ATOM     13  H   UNL     1       8.053   4.597  17.677  0.00  0.00    +0.000 HD
ENDROOT
BRANCH   1  14
ATOM     14  C   UNL     1       2.616   4.853  17.697  0.00  0.00    +0.000 C 
BRANCH  14  15
ATOM     15  C   UNL     1       1.550   3.754  17.602  0.00  0.00    +0.000 C 
BRANCH  15  17
ATOM     16  C   UNL     1       1.862   1.970  19.407  0.00  0.00    +0.000 C 
ATOM     17  C   UNL     1       1.049   3.177  18.936  0.00  0.00    +0.000 C 
ATOM     18  C   UNL     1       1.117   4.265  20.016  0.00  0.00    +0.000 C 
ENDBRANCH  15  17
ENDBRANCH  14  15
ENDBRANCH   1  14
BRANCH   5  19
ATOM     19  C   UNL     1       5.240   4.212  12.180  0.00  0.00    +0.000 C 
BRANCH  19  20
ATOM     20  C   UNL     1       4.561   2.901  11.746  0.00  0.00    +0.000 C 
ATOM     21  C   UNL     1       3.531   3.114  10.632  0.00  0.00    +0.000 C 
ATOM     22  C   UNL     1       5.630   1.913  11.272  0.00  0.00    +0.000 C 
ENDBRANCH  19  20
ENDBRANCH   5  19
BRANCH  10  23
ATOM     23  C   UNL     1       6.375   6.812  17.754  0.00  0.00    +0.000 C 
BRANCH  23  24
ATOM     24  C   UNL     1       7.765   7.478  17.788  0.00  0.00    +0.000 C 
ATOM     25  C   UNL     1       7.680   8.995  17.629  0.00  0.00    +0.000 C 
ATOM     26  C   UNL     1       8.510   7.136  19.082  0.00  0.00    +0.000 C 
ENDBRANCH  23  24
ENDBRANCH  10  23
TORSDOF 7
ENDMDL
MODEL 2
REMARK VINA RESULT:      -6.8      1.165      1.642
REMARK  Name = 
REMARK  13 active torsions:
REMARK  status: ('A' for Active; 'I' for Inactive)
REMARK    1  A    between atoms: C_1  and  C_2
REMARK    2  A    between atoms: C_2  and  C_3
REMARK    3  A    between atoms: C_2  and  C_4
REMARK    4  A    between atoms: C_4  and  C_5
REMARK    5  A    between atoms: C_5  and  N_6
REMARK    6  A    between atoms: C_10  and  C_11
REMARK    7  A    between atoms: C_11  and  C_12
REMARK    8  A    between atoms: C_12  and  C_13
REMARK    9  A    between atoms: C_12  and  C_14
REMARK   10  A    between atoms: C_19  and  C_20
REMARK   11  A    between atoms: C_20  and  C_21
REMARK   12  A    between atoms: C_21  and  C_22
REMARK   13  A    between atoms: C_21  and  C_23
REMARK                            x       y       z     vdW  Elec       q    Type
REMARK                         _______ _______ _______ _____ _____    ______ ____
ROOT
ATOM      1  N   UNL     1       4.046   3.646  17.929  0.00  0.00    +0.000 N 
ATOM      2  C   UNL     1       4.878   2.758  17.143  0.00  0.00    +0.000 C 
ATOM      3  C   UNL     1       5.687   3.500  16.129  0.00  0.00    +0.000 A 
ATOM      4  C   UNL     1       5.367   3.428  14.769  0.00  0.00    +0.000 A 
ATOM      5  C   UNL     1       6.114   4.128  13.818  0.00  0.00    +0.000 A 
ATOM      6  C   UNL     1       7.193   4.905  14.250  0.00  0.00    +0.000 A 
ATOM      7  C   UNL     1       7.524   4.970  15.608  0.00  0.00    +0.000 A 
ATOM      8  C   UNL     1       6.766   4.278  16.559  0.00  0.00    +0.000 A 
ATOM      9  N   UNL     1       7.010   4.436  17.936  0.00  0.00    +0.000 N 
ATOM     10  C   UNL     1       5.950   5.169  18.693  0.00  0.00    +0.000 C 
ATOM     11  C   UNL     1       4.597   4.423  18.933  0.00  0.00    +0.000 C 
ATOM     12  O   UNL     1       3.937   4.686  19.945  0.00  0.00    +0.000 OA
ATOM     13  H   UNL     1       7.916   4.876  18.089  0.00  0.00    +0.000 HD
ENDROOT
BRANCH   1  14
ATOM     14  C   UNL     1       2.612   3.729  17.653  0.00  0.00    +0.000 C 
BRANCH  14  15
ATOM     15  C   UNL     1       1.733   2.628  18.261  0.00  0.00    +0.000 C 
BRANCH  15  17
ATOM     16  C   UNL     1       1.576   2.375  20.800  0.00  0.00    +0.000 C 
ATOM     17  C   UNL     1       0.970   3.000  19.542  0.00  0.00    +0.000 C 
ATOM     18  C   UNL     1       0.966   4.526  19.706  0.00  0.00    +0.000 C 
ENDBRANCH  15  17
ENDBRANCH  14  15
ENDBRANCH   1  14
BRANCH   5  19
ATOM     19  C   UNL     1       5.719   4.050  12.363  0.00  0.00    +0.000 C 
BRANCH  19  20
ATOM     20  C   UNL     1       4.878   2.819  11.979  0.00  0.00    +0.000 C 
ATOM     21  C   UNL     1       3.770   3.156  10.976  0.00  0.00    +0.000 C 
ATOM     22  C   UNL     1       5.796   1.746  11.388  0.00  0.00    +0.000 C 
ENDBRANCH  19  20
ENDBRANCH   5  19
BRANCH  10  23
ATOM     23  C   UNL     1       5.719   6.580  18.083  0.00  0.00    +0.000 C 
BRANCH  23  24
ATOM     24  C   UNL     1       4.418   6.752  17.273  0.00  0.00    +0.000 C 
ATOM     25  C   UNL     1       3.455   7.736  17.934  0.00  0.00    +0.000 C 
ATOM     26  C   UNL     1       4.714   7.204  15.840  0.00  0.00    +0.000 C 
ENDBRANCH  23  24
ENDBRANCH  10  23
TORSDOF 7
ENDMDL
MODEL 3
REMARK VINA RESULT:      -6.7      3.058      7.157
REMARK  Name = 
REMARK  13 active torsions:
REMARK  status: ('A' for Active; 'I' for Inactive)
REMARK    1  A    between atoms: C_1  and  C_2
REMARK    2  A    between atoms: C_2  and  C_3
REMARK    3  A    between atoms: C_2  and  C_4
REMARK    4  A    between atoms: C_4  and  C_5
REMARK    5  A    between atoms: C_5  and  N_6
REMARK    6  A    between atoms: C_10  and  C_11
REMARK    7  A    between atoms: C_11  and  C_12
REMARK    8  A    between atoms: C_12  and  C_13
REMARK    9  A    between atoms: C_12  and  C_14
REMARK   10  A    between atoms: C_19  and  C_20
REMARK   11  A    between atoms: C_20  and  C_21
REMARK   12  A    between atoms: C_21  and  C_22
REMARK   13  A    between atoms: C_21  and  C_23
REMARK                            x       y       z     vdW  Elec       q    Type
REMARK                         _______ _______ _______ _____ _____    ______ ____
ROOT
ATOM      1  N   UNL     1       5.476   5.251  16.299  0.00  0.00    +0.000 N 
ATOM      2  C   UNL     1       5.667   6.370  17.200  0.00  0.00    +0.000 C 
ATOM      3  C   UNL     1       4.393   6.778  17.863  0.00  0.00    +0.000 A 
ATOM      4  C   UNL     1       3.743   7.961  17.495  0.00  0.00    +0.000 A 
ATOM      5  C   UNL     1       2.545   8.343  18.105  0.00  0.00    +0.000 A 
ATOM      6  C   UNL     1       2.005   7.519  19.097  0.00  0.00    +0.000 A 
ATOM      7  C   UNL     1       2.657   6.342  19.478  0.00  0.00    +0.000 A 
ATOM      8  C   UNL     1       3.849   5.955  18.854  0.00  0.00    +0.000 A 
ATOM      9  N   UNL     1       4.447   4.713  19.138  0.00  0.00    +0.000 N 
ATOM     10  C   UNL     1       4.396   3.712  18.029  0.00  0.00    +0.000 C 
ATOM     11  C   UNL     1       5.318   3.968  16.793  0.00  0.00    +0.000 C 
ATOM     12  O   UNL     1       5.744   3.001  16.151  0.00  0.00    +0.000 OA
ATOM     13  H   UNL     1       4.051   4.314  19.988  0.00  0.00    +0.000 HD
ENDROOT
BRANCH   1  14
ATOM     14  C   UNL     1       5.440   5.481  14.855  0.00  0.00    +0.000 C 
BRANCH  14  15
ATOM     15  C   UNL     1       6.685   5.061  14.063  0.00  0.00    +0.000 C 
BRANCH  15  17
ATOM     16  C   UNL     1       5.029   3.680  12.688  0.00  0.00    +0.000 C 
ATOM     17  C   UNL     1       6.495   3.911  13.061  0.00  0.00    +0.000 C 
ATOM     18  C   UNL     1       7.284   4.220  11.781  0.00  0.00    +0.000 C 
ENDBRANCH  15  17
ENDBRANCH  14  15
ENDBRANCH   1  14
BRANCH   5  19
ATOM     19  C   UNL     1       1.859   9.610  17.658  0.00  0.00    +0.000 C 
BRANCH  19  20
ATOM     20  C   UNL     1       0.843  10.192  18.658  0.00  0.00    +0.000 C 
ATOM     21  C   UNL     1       1.137  11.653  19.010  0.00  0.00    +0.000 C 
ATOM     22  C   UNL     1      -0.565  10.080  18.069  0.00  0.00    +0.000 C 
ENDBRANCH  19  20
ENDBRANCH   5  19
BRANCH  10  23
ATOM     23  C   UNL     1       2.926   3.449  17.597  0.00  0.00    +0.000 C 
BRANCH  23  24
ATOM     24  C   UNL     1       2.341   2.086  18.022  0.00  0.00    +0.000 C 
ATOM     25  C   UNL     1       3.376   1.211  18.727  0.00  0.00    +0.000 C 
ATOM     26  C   UNL     1       1.117   2.267  18.925  0.00  0.00    +0.000 C 
ENDBRANCH  23  24
ENDBRANCH  10  23
TORSDOF 7
ENDMDL
MODEL 4
REMARK VINA RESULT:      -6.6      1.880      3.083
REMARK  Name = 
REMARK  13 active torsions:
REMARK  status: ('A' for Active; 'I' for Inactive)
REMARK    1  A    between atoms: C_1  and  C_2
REMARK    2  A    between atoms: C_2  and  C_3
REMARK    3  A    between atoms: C_2  and  C_4
REMARK    4  A    between atoms: C_4  and  C_5
REMARK    5  A    between atoms: C_5  and  N_6
REMARK    6  A    between atoms: C_10  and  C_11
REMARK    7  A    between atoms: C_11  and  C_12
REMARK    8  A    between atoms: C_12  and  C_13
REMARK    9  A    between atoms: C_12  and  C_14
REMARK   10  A    between atoms: C_19  and  C_20
REMARK   11  A    between atoms: C_20  and  C_21
REMARK   12  A    between atoms: C_21  and  C_22
REMARK   13  A    between atoms: C_21  and  C_23
REMARK                            x       y       z     vdW  Elec       q    Type
REMARK                         _______ _______ _______ _____ _____    ______ ____
ROOT
ATOM      1  N   UNL     1       4.335   3.800  19.424  0.00  0.00    +0.000 N 
ATOM      2  C   UNL     1       5.645   3.818  18.806  0.00  0.00    +0.000 C 
ATOM      3  C   UNL     1       5.611   4.417  17.439  0.00  0.00    +0.000 A 
ATOM      4  C   UNL     1       5.748   3.612  16.303  0.00  0.00    +0.000 A 
ATOM      5  C   UNL     1       5.706   4.165  15.020  0.00  0.00    +0.000 A 
ATOM      6  C   UNL     1       5.525   5.546  14.890  0.00  0.00    +0.000 A 
ATOM      7  C   UNL     1       5.401   6.357  16.024  0.00  0.00    +0.000 A 
ATOM      8  C   UNL     1       5.429   5.797  17.306  0.00  0.00    +0.000 A 
ATOM      9  N   UNL     1       5.178   6.582  18.447  0.00  0.00    +0.000 N 
ATOM     10  C   UNL     1       3.887   6.300  19.145  0.00  0.00    +0.000 C 
ATOM     11  C   UNL     1       3.785   4.959  19.943  0.00  0.00    +0.000 C 
ATOM     12  O   UNL     1       3.049   4.905  20.935  0.00  0.00    +0.000 OA
ATOM     13  H   UNL     1       5.242   7.573  18.217  0.00  0.00    +0.000 HD
ENDROOT
BRANCH   1  14
ATOM     14  C   UNL     1       3.584   2.547  19.493  0.00  0.00    +0.000 C 
BRANCH  14  15
ATOM     15  C   UNL     1       2.740   2.185  18.265  0.00  0.00    +0.000 C 
BRANCH  15  17
ATOM     16  C   UNL     1       0.739   2.876  19.698  0.00  0.00    +0.000 C 
ATOM     17  C   UNL     1       1.277   2.656  18.283  0.00  0.00    +0.000 C 
ATOM     18  C   UNL     1       1.158   3.972  17.504  0.00  0.00    +0.000 C 
ENDBRANCH  15  17
ENDBRANCH  14  15
ENDBRANCH   1  14
BRANCH   5  19
ATOM     19  C   UNL     1       5.826   3.260  13.819  0.00  0.00    +0.000 C 
BRANCH  19  20
ATOM     20  C   UNL     1       5.699   3.962  12.455  0.00  0.00    +0.000 C 
ATOM     21  C   UNL     1       7.017   3.971  11.675  0.00  0.00    +0.000 C 
ATOM     22  C   UNL     1       4.618   3.262  11.627  0.00  0.00    +0.000 C 
ENDBRANCH  19  20
ENDBRANCH   5  19
BRANCH  10  23
ATOM     23  C   UNL     1       2.688   6.474  18.171  0.00  0.00    +0.000 C 
BRANCH  23  24
ATOM     24  C   UNL     1       1.774   7.685  18.449  0.00  0.00    +0.000 C 
ATOM     25  C   UNL     1       1.707   8.024  19.937  0.00  0.00    +0.000 C 
ATOM     26  C   UNL     1       2.230   8.915  17.659  0.00  0.00    +0.000 C 
ENDBRANCH  23  24
ENDBRANCH  10  23
TORSDOF 7
ENDMDL
MODEL 5
REMARK VINA RESULT:      -6.4      2.224      5.886
REMARK  Name = 
REMARK  13 active torsions:
REMARK  status: ('A' for Active; 'I' for Inactive)
REMARK    1  A    between atoms: C_1  and  C_2
REMARK    2  A    between atoms: C_2  and  C_3
REMARK    3  A    between atoms: C_2  and  C_4
REMARK    4  A    between atoms: C_4  and  C_5
REMARK    5  A    between atoms: C_5  and  N_6
REMARK    6  A    between atoms: C_10  and  C_11
REMARK    7  A    between atoms: C_11  and  C_12
REMARK    8  A    between atoms: C_12  and  C_13
REMARK    9  A    between atoms: C_12  and  C_14
REMARK   10  A    between atoms: C_19  and  C_20
REMARK   11  A    between atoms: C_20  and  C_21
REMARK   12  A    between atoms: C_21  and  C_22
REMARK   13  A    between atoms: C_21  and  C_23
REMARK                            x       y       z     vdW  Elec       q    Type
REMARK                         _______ _______ _______ _____ _____    ______ ____
ROOT
ATOM      1  N   UNL     1       4.905   6.578  17.552  0.00  0.00    +0.000 N 
ATOM      2  C   UNL     1       4.816   5.779  18.758  0.00  0.00    +0.000 C 
ATOM      3  C   UNL     1       4.239   4.427  18.491  0.00  0.00    +0.000 A 
ATOM      4  C   UNL     1       2.940   4.111  18.905  0.00  0.00    +0.000 A 
ATOM      5  C   UNL     1       2.391   2.851  18.649  0.00  0.00    +0.000 A 
ATOM      6  C   UNL     1       3.167   1.906  17.970  0.00  0.00    +0.000 A 
ATOM      7  C   UNL     1       4.471   2.214  17.566  0.00  0.00    +0.000 A 
ATOM      8  C   UNL     1       5.012   3.481  17.811  0.00  0.00    +0.000 A 
ATOM      9  N   UNL     1       6.271   3.844  17.300  0.00  0.00    +0.000 N 
ATOM     10  C   UNL     1       6.247   4.868  16.211  0.00  0.00    +0.000 C 
ATOM     11  C   UNL     1       5.897   6.336  16.618  0.00  0.00    +0.000 C 
ATOM     12  O   UNL     1       6.372   7.271  15.964  0.00  0.00    +0.000 OA
ATOM     13  H   UNL     1       6.781   3.018  16.991  0.00  0.00    +0.000 HD
ENDROOT
BRANCH   1  14
ATOM     14  C   UNL     1       3.933   7.645  17.317  0.00  0.00    +0.000 C 
BRANCH  14  15
ATOM     15  C   UNL     1       2.575   7.502  18.016  0.00  0.00    +0.000 C 
BRANCH  15  17
ATOM     16  C   UNL     1       0.958   9.482  18.005  0.00  0.00    +0.000 C 
ATOM     17  C   UNL     1       2.062   8.743  18.764  0.00  0.00    +0.000 C 
ATOM     18  C   UNL     1       1.516   8.319  20.134  0.00  0.00    +0.000 C 
ENDBRANCH  15  17
ENDBRANCH  14  15
ENDBRANCH   1  14
BRANCH   5  19
ATOM     19  C   UNL     1       0.976   2.558  19.083  0.00  0.00    +0.000 C 
BRANCH  19  20
ATOM     20  C   UNL     1       0.594   3.097  20.474  0.00  0.00    +0.000 C 
ATOM     21  C   UNL     1       1.456   2.502  21.591  0.00  0.00    +0.000 C 
ATOM     22  C   UNL     1       0.731   4.622  20.478  0.00  0.00    +0.000 C 
ENDBRANCH  19  20
ENDBRANCH   5  19
BRANCH  10  23
ATOM     23  C   UNL     1       5.369   4.383  15.023  0.00  0.00    +0.000 C 
BRANCH  23  24
ATOM     24  C   UNL     1       6.141   3.861  13.794  0.00  0.00    +0.000 C 
ATOM     25  C   UNL     1       5.218   3.596  12.606  0.00  0.00    +0.000 C 
ATOM     26  C   UNL     1       7.247   4.836  13.381  0.00  0.00    +0.000 C 
ENDBRANCH  23  24
ENDBRANCH  10  23
TORSDOF 7
ENDMDL
MODEL 6
REMARK VINA RESULT:      -6.4      6.788      9.432
REMARK  Name = 
REMARK  13 active torsions:
REMARK  status: ('A' for Active; 'I' for Inactive)
REMARK    1  A    between atoms: C_1  and  C_2
REMARK    2  A    between atoms: C_2  and  C_3
REMARK    3  A    between atoms: C_2  and  C_4
REMARK    4  A    between atoms: C_4  and  C_5
REMARK    5  A    between atoms: C_5  and  N_6
REMARK    6  A    between atoms: C_10  and  C_11
REMARK    7  A    between atoms: C_11  and  C_12
REMARK    8  A    between atoms: C_12  and  C_13
REMARK    9  A    between atoms: C_12  and  C_14
REMARK   10  A    between atoms: C_19  and  C_20
REMARK   11  A    between atoms: C_20  and  C_21
REMARK   12  A    between atoms: C_21  and  C_22
REMARK   13  A    between atoms: C_21  and  C_23
REMARK                            x       y       z     vdW  Elec       q    Type
REMARK                         _______ _______ _______ _____ _____    ______ ____
ROOT
ATOM      1  N   UNL     1      -0.467  11.101  20.732  0.00  0.00    +0.000 N 
ATOM      2  C   UNL     1       0.945  10.791  20.840  0.00  0.00    +0.000 C 
ATOM      3  C   UNL     1       1.327   9.618  19.998  0.00  0.00    +0.000 A 
ATOM      4  C   UNL     1       1.626   8.384  20.586  0.00  0.00    +0.000 A 
ATOM      5  C   UNL     1       1.973   7.281  19.802  0.00  0.00    +0.000 A 
ATOM      6  C   UNL     1       2.020   7.432  18.413  0.00  0.00    +0.000 A 
ATOM      7  C   UNL     1       1.735   8.667  17.822  0.00  0.00    +0.000 A 
ATOM      8  C   UNL     1       1.373   9.767  18.609  0.00  0.00    +0.000 A 
ATOM      9  N   UNL     1       0.961  10.977  18.020  0.00  0.00    +0.000 N 
ATOM     10  C   UNL     1      -0.487  11.307  18.186  0.00  0.00    +0.000 C 
ATOM     11  C   UNL     1      -0.963  11.741  19.610  0.00  0.00    +0.000 C 
ATOM     12  O   UNL     1      -1.919  12.518  19.714  0.00  0.00    +0.000 OA
ATOM     13  H   UNL     1       1.213  10.996  17.033  0.00  0.00    +0.000 HD
ENDROOT
BRANCH   1  14
ATOM     14  C   UNL     1      -1.376  10.725  21.814  0.00  0.00    +0.000 C 
BRANCH  14  15
ATOM     15  C   UNL     1      -1.327  11.589  23.081  0.00  0.00    +0.000 C 
BRANCH  15  17
ATOM     16  C   UNL     1      -3.565  12.447  23.971  0.00  0.00    +0.000 C 
ATOM     17  C   UNL     1      -2.319  12.762  23.141  0.00  0.00    +0.000 C 
ATOM     18  C   UNL     1      -1.620  13.985  23.751  0.00  0.00    +0.000 C 
ENDBRANCH  15  17
ENDBRANCH  14  15
ENDBRANCH   1  14
BRANCH   5  19
ATOM     19  C   UNL     1       2.258   5.958  20.471  0.00  0.00    +0.000 C 
BRANCH  19  20
ATOM     20  C   UNL     1       1.983   4.715  19.606  0.00  0.00    +0.000 C 
ATOM     21  C   UNL     1       3.250   3.899  19.333  0.00  0.00    +0.000 C 
ATOM     22  C   UNL     1       0.947   3.833  20.307  0.00  0.00    +0.000 C 
ENDBRANCH  19  20
ENDBRANCH   5  19
BRANCH  10  23
ATOM     23  C   UNL     1      -1.377  10.168  17.612  0.00  0.00    +0.000 C 
BRANCH  23  24
ATOM     24  C   UNL     1      -2.638  10.627  16.851  0.00  0.00    +0.000 C 
ATOM     25  C   UNL     1      -2.749   9.974  15.475  0.00  0.00    +0.000 C 
ATOM     26  C   UNL     1      -3.906  10.342  17.661  0.00  0.00    +0.000 C 
ENDBRANCH  23  24
ENDBRANCH  10  23
TORSDOF 7
ENDMDL
MODEL 7
REMARK VINA RESULT:      -6.2      1.956      3.162
REMARK  Name = 
REMARK  13 active torsions:
REMARK  status: ('A' for Active; 'I' for Inactive)
REMARK    1  A    between atoms: C_1  and  C_2
REMARK    2  A    between atoms: C_2  and  C_3
REMARK    3  A    between atoms: C_2  and  C_4
REMARK    4  A    between atoms: C_4  and  C_5
REMARK    5  A    between atoms: C_5  and  N_6
REMARK    6  A    between atoms: C_10  and  C_11
REMARK    7  A    between atoms: C_11  and  C_12
REMARK    8  A    between atoms: C_12  and  C_13
REMARK    9  A    between atoms: C_12  and  C_14
REMARK   10  A    between atoms: C_19  and  C_20
REMARK   11  A    between atoms: C_20  and  C_21
REMARK   12  A    between atoms: C_21  and  C_22
REMARK   13  A    between atoms: C_21  and  C_23
REMARK                            x       y       z     vdW  Elec       q    Type
REMARK                         _______ _______ _______ _____ _____    ______ ____
ROOT
ATOM      1  N   UNL     1       4.243   3.284  19.231  0.00  0.00    +0.000 N 
ATOM      2  C   UNL     1       5.510   3.398  18.538  0.00  0.00    +0.000 C 
ATOM      3  C   UNL     1       5.440   4.360  17.398  0.00  0.00    +0.000 A 
ATOM      4  C   UNL     1       5.443   3.902  16.075  0.00  0.00    +0.000 A 
ATOM      5  C   UNL     1       5.366   4.797  15.005  0.00  0.00    +0.000 A 
ATOM      6  C   UNL     1       5.289   6.166  15.278  0.00  0.00    +0.000 A 
ATOM      7  C   UNL     1       5.299   6.629  16.598  0.00  0.00    +0.000 A 
ATOM      8  C   UNL     1       5.361   5.729  17.668  0.00  0.00    +0.000 A 
ATOM      9  N   UNL     1       5.243   6.174  18.998  0.00  0.00    +0.000 N 
ATOM     10  C   UNL     1       3.979   5.782  19.693  0.00  0.00    +0.000 C 
ATOM     11  C   UNL     1       3.819   4.280  20.093  0.00  0.00    +0.000 C 
ATOM     12  O   UNL     1       3.144   3.991  21.088  0.00  0.00    +0.000 OA
ATOM     13  H   UNL     1       5.372   7.183  19.049  0.00  0.00    +0.000 HD
ENDROOT
BRANCH   1  14
ATOM     14  C   UNL     1       3.400   2.109  19.010  0.00  0.00    +0.000 C 
BRANCH  14  15
ATOM     15  C   UNL     1       2.507   2.131  17.764  0.00  0.00    +0.000 C 
BRANCH  15  17
ATOM     16  C   UNL     1       0.618   2.775  19.363  0.00  0.00    +0.000 C 
ATOM     17  C   UNL     1       1.135   2.807  17.923  0.00  0.00    +0.000 C 
ATOM     18  C   UNL     1       1.235   4.270  17.471  0.00  0.00    +0.000 C 
ENDBRANCH  15  17
ENDBRANCH  14  15
ENDBRANCH   1  14
BRANCH   5  19
ATOM     19  C   UNL     1       5.341   4.262  13.594  0.00  0.00    +0.000 C 
BRANCH  19  20
ATOM     20  C   UNL     1       6.702   3.802  13.044  0.00  0.00    +0.000 C 
ATOM     21  C   UNL     1       6.563   2.862  11.842  0.00  0.00    +0.000 C 
ATOM     22  C   UNL     1       7.525   5.029  12.642  0.00  0.00    +0.000 C 
ENDBRANCH  19  20
ENDBRANCH   5  19
BRANCH  10  23
ATOM     23  C   UNL     1       2.741   6.296  18.906  0.00  0.00    +0.000 C 
BRANCH  23  24
ATOM     24  C   UNL     1       2.434   7.800  19.053  0.00  0.00    +0.000 C 
ATOM     25  C   UNL     1       1.788   8.381  17.797  0.00  0.00    +0.000 C 
ATOM     26  C   UNL     1       1.536   8.065  20.265  0.00  0.00    +0.000 C 
ENDBRANCH  23  24
ENDBRANCH  10  23
TORSDOF 7
ENDMDL
MODEL 8
REMARK VINA RESULT:      -6.2      3.456      7.391
REMARK  Name = 
REMARK  13 active torsions:
REMARK  status: ('A' for Active; 'I' for Inactive)
REMARK    1  A    between atoms: C_1  and  C_2
REMARK    2  A    between atoms: C_2  and  C_3
REMARK    3  A    between atoms: C_2  and  C_4
REMARK    4  A    between atoms: C_4  and  C_5
REMARK    5  A    between atoms: C_5  and  N_6
REMARK    6  A    between atoms: C_10  and  C_11
REMARK    7  A    between atoms: C_11  and  C_12
REMARK    8  A    between atoms: C_12  and  C_13
REMARK    9  A    between atoms: C_12  and  C_14
REMARK   10  A    between atoms: C_19  and  C_20
REMARK   11  A    between atoms: C_20  and  C_21
REMARK   12  A    between atoms: C_21  and  C_22
REMARK   13  A    between atoms: C_21  and  C_23
REMARK                            x       y       z     vdW  Elec       q    Type
REMARK                         _______ _______ _______ _____ _____    ______ ____
ROOT
ATOM      1  N   UNL     1       4.229   5.308  17.618  0.00  0.00    +0.000 N 
ATOM      2  C   UNL     1       4.515   6.600  18.210  0.00  0.00    +0.000 C 
ATOM      3  C   UNL     1       3.285   7.251  18.753  0.00  0.00    +0.000 A 
ATOM      4  C   UNL     1       2.713   8.349  18.101  0.00  0.00    +0.000 A 
ATOM      5  C   UNL     1       1.556   8.956  18.597  0.00  0.00    +0.000 A 
ATOM      6  C   UNL     1       0.979   8.447  19.765  0.00  0.00    +0.000 A 
ATOM      7  C   UNL     1       1.555   7.358  20.427  0.00  0.00    +0.000 A 
ATOM      8  C   UNL     1       2.705   6.743  19.919  0.00  0.00    +0.000 A 
ATOM      9  N   UNL     1       3.220   5.571  20.503  0.00  0.00    +0.000 N 
ATOM     10  C   UNL     1       3.079   4.332  19.680  0.00  0.00    +0.000 C 
ATOM     11  C   UNL     1       3.992   4.204  18.418  0.00  0.00    +0.000 C 
ATOM     12  O   UNL     1       4.337   3.079  18.037  0.00  0.00    +0.000 OA
ATOM     13  H   UNL     1       2.815   5.426  21.426  0.00  0.00    +0.000 HD
ENDROOT
BRANCH   1  14
ATOM     14  C   UNL     1       4.182   5.173  16.163  0.00  0.00    +0.000 C 
BRANCH  14  15
ATOM     15  C   UNL     1       5.287   5.884  15.372  0.00  0.00    +0.000 C 
BRANCH  15  17
ATOM     16  C   UNL     1       7.182   4.420  16.269  0.00  0.00    +0.000 C 
ATOM     17  C   UNL     1       6.528   5.042  15.034  0.00  0.00    +0.000 C 
ATOM     18  C   UNL     1       6.129   3.915  14.072  0.00  0.00    +0.000 C 
ENDBRANCH  15  17
ENDBRANCH  14  15
ENDBRANCH   1  14
BRANCH   5  19
ATOM     19  C   UNL     1       0.951  10.118  17.849  0.00  0.00    +0.000 C 
BRANCH  19  20
ATOM     20  C   UNL     1      -0.438  10.562  18.342  0.00  0.00    +0.000 C 
ATOM     21  C   UNL     1      -0.547  12.082  18.501  0.00  0.00    +0.000 C 
ATOM     22  C   UNL     1      -1.503  10.073  17.356  0.00  0.00    +0.000 C 
ENDBRANCH  19  20
ENDBRANCH   5  19
BRANCH  10  23
ATOM     23  C   UNL     1       1.586   4.075  19.330  0.00  0.00    +0.000 C 
BRANCH  23  24
ATOM     24  C   UNL     1       0.966   2.803  19.944  0.00  0.00    +0.000 C 
ATOM     25  C   UNL     1       1.302   1.552  19.134  0.00  0.00    +0.000 C 
ATOM     26  C   UNL     1       1.416   2.615  21.396  0.00  0.00    +0.000 C 
ENDBRANCH  23  24
ENDBRANCH  10  23
TORSDOF 7
ENDMDL
MODEL 9
REMARK VINA RESULT:      -6.2      2.678      5.482
REMARK  Name = 
REMARK  13 active torsions:
REMARK  status: ('A' for Active; 'I' for Inactive)
REMARK    1  A    between atoms: C_1  and  C_2
REMARK    2  A    between atoms: C_2  and  C_3
REMARK    3  A    between atoms: C_2  and  C_4
REMARK    4  A    between atoms: C_4  and  C_5
REMARK    5  A    between atoms: C_5  and  N_6
REMARK    6  A    between atoms: C_10  and  C_11
REMARK    7  A    between atoms: C_11  and  C_12
REMARK    8  A    between atoms: C_12  and  C_13
REMARK    9  A    between atoms: C_12  and  C_14
REMARK   10  A    between atoms: C_19  and  C_20
REMARK   11  A    between atoms: C_20  and  C_21
REMARK   12  A    between atoms: C_21  and  C_22
REMARK   13  A    between atoms: C_21  and  C_23
REMARK                            x       y       z     vdW  Elec       q    Type
REMARK                         _______ _______ _______ _____ _____    ______ ____
ROOT
ATOM      1  N   UNL     1       1.887   4.894  19.199  0.00  0.00    +0.000 N 
ATOM      2  C   UNL     1       2.083   5.597  17.946  0.00  0.00    +0.000 C 
ATOM      3  C   UNL     1       3.381   5.236  17.300  0.00  0.00    +0.000 A 
ATOM      4  C   UNL     1       4.447   6.143  17.283  0.00  0.00    +0.000 A 
ATOM      5  C   UNL     1       5.666   5.807  16.689  0.00  0.00    +0.000 A 
ATOM      6  C   UNL     1       5.804   4.543  16.107  0.00  0.00    +0.000 A 
ATOM      7  C   UNL     1       4.737   3.638  16.110  0.00  0.00    +0.000 A 
ATOM      8  C   UNL     1       3.521   3.973  16.718  0.00  0.00    +0.000 A 
ATOM      9  N   UNL     1       2.486   3.027  16.840  0.00  0.00    +0.000 N 
ATOM     10  C   UNL     1       2.214   2.553  18.231  0.00  0.00    +0.000 C 
ATOM     11  C   UNL     1       1.524   3.559  19.207  0.00  0.00    +0.000 C 
ATOM     12  O   UNL     1       0.799   3.121  20.108  0.00  0.00    +0.000 OA
ATOM     13  H   UNL     1       2.657   2.232  16.226  0.00  0.00    +0.000 HD
ENDROOT
BRANCH   1  14
ATOM     14  C   UNL     1       2.082   5.600  20.464  0.00  0.00    +0.000 C 
BRANCH  14  15
ATOM     15  C   UNL     1       2.394   7.099  20.371  0.00  0.00    +0.000 C 
BRANCH  15  17
ATOM     16  C   UNL     1       1.314   8.778  21.969  0.00  0.00    +0.000 C 
ATOM     17  C   UNL     1       1.216   8.054  20.624  0.00  0.00    +0.000 C 
ATOM     18  C   UNL     1       1.165   9.104  19.505  0.00  0.00    +0.000 C 
ENDBRANCH  15  17
ENDBRANCH  14  15
ENDBRANCH   1  14
BRANCH   5  19
ATOM     19  C   UNL     1       6.802   6.800  16.719  0.00  0.00    +0.000 C 
BRANCH  19  20
ATOM     20  C   UNL     1       7.258   7.230  18.125  0.00  0.00    +0.000 C 
ATOM     21  C   UNL     1       7.932   6.092  18.896  0.00  0.00    +0.000 C 
ATOM     22  C   UNL     1       8.226   8.410  18.001  0.00  0.00    +0.000 C 
ENDBRANCH  19  20
ENDBRANCH   5  19
BRANCH  10  23
ATOM     23  C   UNL     1       3.498   1.941  18.860  0.00  0.00    +0.000 C 
BRANCH  23  24
ATOM     24  C   UNL     1       4.043   2.670  20.105  0.00  0.00    +0.000 C 
ATOM     25  C   UNL     1       4.494   1.695  21.191  0.00  0.00    +0.000 C 
ATOM     26  C   UNL     1       5.200   3.603  19.736  0.00  0.00    +0.000 C 
ENDBRANCH  23  24
ENDBRANCH  10  23
TORSDOF 7
ENDMDL
