MODEL 1
REMARK VINA RESULT:      -8.3      0.000      0.000
REMARK  Name = 
REMARK  6 active torsions:
REMARK  status: ('A' for Active; 'I' for Inactive)
REMARK    1  A    between atoms: C_2  and  C_3
REMARK    2  A    between atoms: C_3  and  N_4
REMARK    3  A    between atoms: C_8  and  C_9
REMARK    4  A    between atoms: N_21  and  C_22
REMARK    5  A    between atoms: C_22  and  C_23
REMARK    6  A    between atoms: C_23  and  C_24
REMARK                            x       y       z     vdW  Elec       q    Type
REMARK                         _______ _______ _______ _____ _____    ______ ____
ROOT
ATOM      1  N   UNL     1       6.982   5.443  18.027  0.00  0.00    +0.000 N 
ATOM      2  C   UNL     1       6.332   5.258  19.244  0.00  0.00    +0.000 A 
ATOM      3  O   UNL     1       6.857   5.646  20.291  0.00  0.00    +0.000 OA
ATOM      4  N   UNL     1       5.123   4.621  19.271  0.00  0.00    +0.000 NA
ATOM      5  C   UNL     1       4.538   4.198  18.193  0.00  0.00    +0.000 A 
ATOM      6  C   UNL     1       5.126   4.420  16.845  0.00  0.00    +0.000 A 
ATOM      7  C   UNL     1       4.465   4.116  15.644  0.00  0.00    +0.000 A 
ATOM      8  C   UNL     1       5.117   4.261  14.419  0.00  0.00    +0.000 A 
ATOM      9  C   UNL     1       6.416   4.751  14.386  0.00  0.00    +0.000 A 
ATOM     10  C   UNL     1       7.050   5.127  15.573  0.00  0.00    +0.000 A 
ATOM     11  C   UNL     1       6.404   4.992  16.812  0.00  0.00    +0.000 A 
ENDROOT
BRANCH   5  12
ATOM     12  C   UNL     1       3.247   3.456  18.389  0.00  0.00    +0.000 A 
ATOM     13  C   UNL     1       2.084   4.190  18.666  0.00  0.00    +0.000 A 
ATOM     14  C   UNL     1       0.863   3.537  18.859  0.00  0.00    +0.000 A 
ATOM     15  C   UNL     1       0.791   2.149  18.768  0.00  0.00    +0.000 A 
ATOM     16  C   UNL     1       1.947   1.408  18.530  0.00  0.00    +0.000 A 
ATOM     17  C   UNL     1       3.176   2.057  18.373  0.00  0.00    +0.000 A 
ENDBRANCH   5  12
BRANCH   1  18
ATOM     18  C   UNL     1       8.254   6.158  18.059  0.00  0.00    +0.000 C 
BRANCH  18  20
ATOM     19  O   UNL     1       7.310   8.157  17.079  0.00  0.00    +0.000 OA
ATOM     20  C   UNL     1       8.054   7.667  17.930  0.00  0.00    +0.000 C 
ATOM     21  N   UNL     1       8.798   8.425  18.812  0.00  0.00    +0.000 N 
ATOM     22  H   UNL     1       9.597   7.967  19.250  0.00  0.00    +0.000 HD
BRANCH  21  23
ATOM     23  C   UNL     1       8.750   9.877  18.770  0.00  0.00    +0.000 C 
BRANCH  23  24
ATOM     24  C   UNL     1       9.628  10.523  19.842  0.00  0.00    +0.000 C 
BRANCH  24  25
ATOM     25  C   UNL     1      10.563  11.563  19.273  0.00  0.00    +0.000 A 
ATOM     26  C   UNL     1      10.790  11.635  17.891  0.00  0.00    +0.000 A 
ATOM     27  C   UNL     1      11.671  12.583  17.363  0.00  0.00    +0.000 A 
ATOM     28  C   UNL     1      12.333  13.467  18.212  0.00  0.00    +0.000 A 
ATOM     29  C   UNL     1      12.116  13.406  19.587  0.00  0.00    +0.000 A 
ATOM     30  C   UNL     1      11.237  12.459  20.116  0.00  0.00    +0.000 A 
ENDBRANCH  24  25
ENDBRANCH  23  24
ENDBRANCH  21  23
ENDBRANCH  18  20
ENDBRANCH   1  18
TORSDOF 6
ENDMDL
MODEL 2
REMARK VINA RESULT:      -8.2      0.195      1.265
REMARK  Name = 
REMARK  6 active torsions:
REMARK  status: ('A' for Active; 'I' for Inactive)
REMARK    1  A    between atoms: C_2  and  C_3
REMARK    2  A    between atoms: C_3  and  N_4
REMARK    3  A    between atoms: C_8  and  C_9
REMARK    4  A    between atoms: N_21  and  C_22
REMARK    5  A    between atoms: C_22  and  C_23
REMARK    6  A    between atoms: C_23  and  C_24
REMARK                            x       y       z     vdW  Elec       q    Type
REMARK                         _______ _______ _______ _____ _____    ______ ____
ROOT
ATOM      1  N   UNL     1       7.013   5.525  18.005  0.00  0.00    +0.000 N 
ATOM      2  C   UNL     1       6.329   5.387  19.209  0.00  0.00    +0.000 A 
ATOM      3  O   UNL     1       6.822   5.817  20.255  0.00  0.00    +0.000 OA
ATOM      4  N   UNL     1       5.120   4.749  19.227  0.00  0.00    +0.000 NA
ATOM      5  C   UNL     1       4.566   4.283  18.150  0.00  0.00    +0.000 A 
ATOM      6  C   UNL     1       5.193   4.452  16.812  0.00  0.00    +0.000 A 
ATOM      7  C   UNL     1       4.568   4.099  15.605  0.00  0.00    +0.000 A 
ATOM      8  C   UNL     1       5.255   4.197  14.395  0.00  0.00    +0.000 A 
ATOM      9  C   UNL     1       6.553   4.687  14.380  0.00  0.00    +0.000 A 
ATOM     10  C   UNL     1       7.153   5.112  15.569  0.00  0.00    +0.000 A 
ATOM     11  C   UNL     1       6.471   5.024  16.793  0.00  0.00    +0.000 A 
ENDROOT
BRANCH   5  12
ATOM     12  C   UNL     1       3.270   3.547  18.338  0.00  0.00    +0.000 A 
ATOM     13  C   UNL     1       3.310   2.168  18.589  0.00  0.00    +0.000 A 
ATOM     14  C   UNL     1       2.126   1.445  18.765  0.00  0.00    +0.000 A 
ATOM     15  C   UNL     1       0.895   2.095  18.700  0.00  0.00    +0.000 A 
ATOM     16  C   UNL     1       0.844   3.457  18.415  0.00  0.00    +0.000 A 
ATOM     17  C   UNL     1       2.025   4.174  18.202  0.00  0.00    +0.000 A 
ENDBRANCH   5  12
BRANCH   1  18
ATOM     18  C   UNL     1       8.284   6.243  18.046  0.00  0.00    +0.000 C 
BRANCH  18  20
ATOM     19  O   UNL     1       7.344   8.240  17.059  0.00  0.00    +0.000 OA
ATOM     20  C   UNL     1       8.080   7.752  17.916  0.00  0.00    +0.000 C 
ATOM     21  N   UNL     1       8.814   8.510  18.807  0.00  0.00    +0.000 N 
ATOM     22  H   UNL     1       9.609   8.054  19.253  0.00  0.00    +0.000 HD
BRANCH  21  23
ATOM     23  C   UNL     1       8.761   9.963  18.766  0.00  0.00    +0.000 C 
BRANCH  23  24
ATOM     24  C   UNL     1       9.597  10.609  19.871  0.00  0.00    +0.000 C 
BRANCH  24  25
ATOM     25  C   UNL     1      10.552  11.650  19.338  0.00  0.00    +0.000 A 
ATOM     26  C   UNL     1      11.069  12.642  20.185  0.00  0.00    +0.000 A 
ATOM     27  C   UNL     1      11.937  13.619  19.690  0.00  0.00    +0.000 A 
ATOM     28  C   UNL     1      12.295  13.616  18.344  0.00  0.00    +0.000 A 
ATOM     29  C   UNL     1      11.787  12.637  17.492  0.00  0.00    +0.000 A 
ATOM     30  C   UNL     1      10.920  11.659  17.985  0.00  0.00    +0.000 A 
ENDBRANCH  24  25
ENDBRANCH  23  24
ENDBRANCH  21  23
ENDBRANCH  18  20
ENDBRANCH   1  18
TORSDOF 6
ENDMDL
MODEL 3
REMARK VINA RESULT:      -8.2      4.298      7.718
REMARK  Name = 
REMARK  6 active torsions:
REMARK  status: ('A' for Active; 'I' for Inactive)
REMARK    1  A    between atoms: C_2  and  C_3
REMARK    2  A    between atoms: C_3  and  N_4
REMARK    3  A    between atoms: C_8  and  C_9
REMARK    4  A    between atoms: N_21  and  C_22
REMARK    5  A    between atoms: C_22  and  C_23
REMARK    6  A    between atoms: C_23  and  C_24
REMARK                            x       y       z     vdW  Elec       q    Type
REMARK                         _______ _______ _______ _____ _____    ______ ____
ROOT
ATOM      1  N   UNL     1       4.298   4.109  18.405  0.00  0.00    +0.000 N 
ATOM      2  C   UNL     1       3.695   3.594  17.262  0.00  0.00    +0.000 A 
ATOM      3  O   UNL     1       2.614   3.006  17.343  0.00  0.00    +0.000 OA
ATOM      4  N   UNL     1       4.323   3.723  16.054  0.00  0.00    +0.000 NA
ATOM      5  C   UNL     1       5.460   4.334  15.925  0.00  0.00    +0.000 A 
ATOM      6  C   UNL     1       6.138   4.977  17.082  0.00  0.00    +0.000 A 
ATOM      7  C   UNL     1       7.289   5.773  16.970  0.00  0.00    +0.000 A 
ATOM      8  C   UNL     1       7.925   6.265  18.110  0.00  0.00    +0.000 A 
ATOM      9  C   UNL     1       7.391   5.999  19.363  0.00  0.00    +0.000 A 
ATOM     10  C   UNL     1       6.203   5.271  19.476  0.00  0.00    +0.000 A 
ATOM     11  C   UNL     1       5.549   4.775  18.337  0.00  0.00    +0.000 A 
ENDROOT
BRANCH   5  12
ATOM     12  C   UNL     1       6.058   4.334  14.547  0.00  0.00    +0.000 A 
ATOM     13  C   UNL     1       5.486   3.513  13.565  0.00  0.00    +0.000 A 
ATOM     14  C   UNL     1       6.016   3.481  12.271  0.00  0.00    +0.000 A 
ATOM     15  C   UNL     1       7.115   4.275  11.947  0.00  0.00    +0.000 A 
ATOM     16  C   UNL     1       7.712   5.066  12.925  0.00  0.00    +0.000 A 
ATOM     17  C   UNL     1       7.206   5.071  14.229  0.00  0.00    +0.000 A 
ENDBRANCH   5  12
BRANCH   1  18
ATOM     18  C   UNL     1       3.565   3.968  19.659  0.00  0.00    +0.000 C 
BRANCH  18  20
ATOM     19  O   UNL     1       1.267   4.715  19.778  0.00  0.00    +0.000 OA
ATOM     20  C   UNL     1       2.461   5.018  19.784  0.00  0.00    +0.000 C 
ATOM     21  N   UNL     1       2.912   6.320  19.865  0.00  0.00    +0.000 N 
ATOM     22  H   UNL     1       3.867   6.496  19.553  0.00  0.00    +0.000 HD
BRANCH  21  23
ATOM     23  C   UNL     1       1.974   7.429  19.935  0.00  0.00    +0.000 C 
BRANCH  23  24
ATOM     24  C   UNL     1       1.356   7.585  21.325  0.00  0.00    +0.000 C 
BRANCH  24  25
ATOM     25  C   UNL     1       0.582   8.874  21.471  0.00  0.00    +0.000 A 
ATOM     26  C   UNL     1       0.091   9.271  22.723  0.00  0.00    +0.000 A 
ATOM     27  C   UNL     1      -0.644  10.452  22.858  0.00  0.00    +0.000 A 
ATOM     28  C   UNL     1      -0.895  11.247  21.742  0.00  0.00    +0.000 A 
ATOM     29  C   UNL     1      -0.413  10.863  20.492  0.00  0.00    +0.000 A 
ATOM     30  C   UNL     1       0.321   9.683  20.356  0.00  0.00    +0.000 A 
ENDBRANCH  24  25
ENDBRANCH  23  24
ENDBRANCH  21  23
ENDBRANCH  18  20
ENDBRANCH   1  18
TORSDOF 6
ENDMDL
MODEL 4
REMARK VINA RESULT:      -8.2      7.971     11.169
REMARK  Name = 
REMARK  6 active torsions:
REMARK  status: ('A' for Active; 'I' for Inactive)
REMARK    1  A    between atoms: C_2  and  C_3
REMARK    2  A    between atoms: C_3  and  N_4
REMARK    3  A    between atoms: C_8  and  C_9
REMARK    4  A    between atoms: N_21  and  C_22
REMARK    5  A    between atoms: C_22  and  C_23
REMARK    6  A    between atoms: C_23  and  C_24
REMARK                            x       y       z     vdW  Elec       q    Type
REMARK                         _______ _______ _______ _____ _____    ______ ____
ROOT
ATOM      1  N   UNL     1       0.381  11.722  19.767  0.00  0.00    +0.000 N 
ATOM      2  C   UNL     1      -0.489  12.756  19.432  0.00  0.00    +0.000 A 
ATOM      3  O   UNL     1      -0.358  13.352  18.361  0.00  0.00    +0.000 OA
ATOM      4  N   UNL     1      -1.472  13.119  20.310  0.00  0.00    +0.000 NA
ATOM      5  C   UNL     1      -1.643  12.517  21.447  0.00  0.00    +0.000 A 
ATOM      6  C   UNL     1      -0.806  11.356  21.851  0.00  0.00    +0.000 A 
ATOM      7  C   UNL     1      -1.046  10.581  22.997  0.00  0.00    +0.000 A 
ATOM      8  C   UNL     1      -0.162   9.568  23.366  0.00  0.00    +0.000 A 
ATOM      9  C   UNL     1       0.942   9.296  22.569  0.00  0.00    +0.000 A 
ATOM     10  C   UNL     1       1.143  10.013  21.387  0.00  0.00    +0.000 A 
ATOM     11  C   UNL     1       0.259  11.032  21.001  0.00  0.00    +0.000 A 
ENDROOT
BRANCH   5  12
ATOM     12  C   UNL     1      -2.719  13.074  22.334  0.00  0.00    +0.000 A 
ATOM     13  C   UNL     1      -4.050  12.708  22.088  0.00  0.00    +0.000 A 
ATOM     14  C   UNL     1      -5.082  13.207  22.889  0.00  0.00    +0.000 A 
ATOM     15  C   UNL     1      -4.793  14.069  23.945  0.00  0.00    +0.000 A 
ATOM     16  C   UNL     1      -3.478  14.467  24.175  0.00  0.00    +0.000 A 
ATOM     17  C   UNL     1      -2.449  13.997  23.352  0.00  0.00    +0.000 A 
ENDBRANCH   5  12
BRANCH   1  18
ATOM     18  C   UNL     1       1.389  11.360  18.775  0.00  0.00    +0.000 C 
BRANCH  18  20
ATOM     19  O   UNL     1       0.018   9.627  17.794  0.00  0.00    +0.000 OA
ATOM     20  C   UNL     1       1.130   9.970  18.194  0.00  0.00    +0.000 C 
ATOM     21  N   UNL     1       2.228   9.133  18.195  0.00  0.00    +0.000 N 
ATOM     22  H   UNL     1       2.997   9.383  18.815  0.00  0.00    +0.000 HD
BRANCH  21  23
ATOM     23  C   UNL     1       2.118   7.763  17.720  0.00  0.00    +0.000 C 
BRANCH  23  24
ATOM     24  C   UNL     1       3.010   6.799  18.505  0.00  0.00    +0.000 C 
BRANCH  24  25
ATOM     25  C   UNL     1       2.282   5.539  18.909  0.00  0.00    +0.000 A 
ATOM     26  C   UNL     1       1.948   5.310  20.252  0.00  0.00    +0.000 A 
ATOM     27  C   UNL     1       1.293   4.136  20.632  0.00  0.00    +0.000 A 
ATOM     28  C   UNL     1       0.968   3.178  19.674  0.00  0.00    +0.000 A 
ATOM     29  C   UNL     1       1.296   3.393  18.337  0.00  0.00    +0.000 A 
ATOM     30  C   UNL     1       1.950   4.566  17.955  0.00  0.00    +0.000 A 
ENDBRANCH  24  25
ENDBRANCH  23  24
ENDBRANCH  21  23
ENDBRANCH  18  20
ENDBRANCH   1  18
TORSDOF 6
ENDMDL
MODEL 5
REMARK VINA RESULT:      -8.1      2.095      2.625
REMARK  Name = 
REMARK  6 active torsions:
REMARK  status: ('A' for Active; 'I' for Inactive)
REMARK    1  A    between atoms: C_2  and  C_3
REMARK    2  A    between atoms: C_3  and  N_4
REMARK    3  A    between atoms: C_8  and  C_9
REMARK    4  A    between atoms: N_21  and  C_22
REMARK    5  A    between atoms: C_22  and  C_23
REMARK    6  A    between atoms: C_23  and  C_24
REMARK                            x       y       z     vdW  Elec       q    Type
REMARK                         _______ _______ _______ _____ _____    ______ ____
ROOT
ATOM      1  N   UNL     1       5.917   6.039  17.652  0.00  0.00    +0.000 N 
ATOM      2  C   UNL     1       6.164   4.791  18.216  0.00  0.00    +0.000 A 
ATOM      3  O   UNL     1       7.270   4.260  18.085  0.00  0.00    +0.000 OA
ATOM      4  N   UNL     1       5.164   4.147  18.892  0.00  0.00    +0.000 NA
ATOM      5  C   UNL     1       3.988   4.670  19.052  0.00  0.00    +0.000 A 
ATOM      6  C   UNL     1       3.661   6.031  18.546  0.00  0.00    +0.000 A 
ATOM      7  C   UNL     1       2.456   6.698  18.821  0.00  0.00    +0.000 A 
ATOM      8  C   UNL     1       2.179   7.932  18.234  0.00  0.00    +0.000 A 
ATOM      9  C   UNL     1       3.121   8.525  17.403  0.00  0.00    +0.000 A 
ATOM     10  C   UNL     1       4.353   7.900  17.188  0.00  0.00    +0.000 A 
ATOM     11  C   UNL     1       4.647   6.661  17.777  0.00  0.00    +0.000 A 
ENDROOT
BRANCH   5  12
ATOM     12  C   UNL     1       2.974   3.815  19.756  0.00  0.00    +0.000 A 
ATOM     13  C   UNL     1       2.867   3.910  21.151  0.00  0.00    +0.000 A 
ATOM     14  C   UNL     1       1.939   3.127  21.846  0.00  0.00    +0.000 A 
ATOM     15  C   UNL     1       1.106   2.252  21.153  0.00  0.00    +0.000 A 
ATOM     16  C   UNL     1       1.229   2.124  19.771  0.00  0.00    +0.000 A 
ATOM     17  C   UNL     1       2.182   2.879  19.079  0.00  0.00    +0.000 A 
ENDBRANCH   5  12
BRANCH   1  18
ATOM     18  C   UNL     1       7.032   6.689  16.971  0.00  0.00    +0.000 C 
BRANCH  18  20
ATOM     19  O   UNL     1       8.442   7.002  18.910  0.00  0.00    +0.000 OA
ATOM     20  C   UNL     1       7.880   7.511  17.941  0.00  0.00    +0.000 C 
ATOM     21  N   UNL     1       7.926   8.863  17.660  0.00  0.00    +0.000 N 
ATOM     22  H   UNL     1       7.199   9.230  17.047  0.00  0.00    +0.000 HD
BRANCH  21  23
ATOM     23  C   UNL     1       8.651   9.778  18.527  0.00  0.00    +0.000 C 
BRANCH  23  24
ATOM     24  C   UNL     1       8.849  11.153  17.890  0.00  0.00    +0.000 C 
BRANCH  24  25
ATOM     25  C   UNL     1       9.988  11.921  18.517  0.00  0.00    +0.000 A 
ATOM     26  C   UNL     1       9.884  13.304  18.727  0.00  0.00    +0.000 A 
ATOM     27  C   UNL     1      10.944  14.021  19.288  0.00  0.00    +0.000 A 
ATOM     28  C   UNL     1      12.119  13.363  19.643  0.00  0.00    +0.000 A 
ATOM     29  C   UNL     1      12.236  11.990  19.439  0.00  0.00    +0.000 A 
ATOM     30  C   UNL     1      11.177  11.272  18.878  0.00  0.00    +0.000 A 
ENDBRANCH  24  25
ENDBRANCH  23  24
ENDBRANCH  21  23
ENDBRANCH  18  20
ENDBRANCH   1  18
TORSDOF 6
ENDMDL
MODEL 6
REMARK VINA RESULT:      -8.0      4.260      7.459
REMARK  Name = 
REMARK  6 active torsions:
REMARK  status: ('A' for Active; 'I' for Inactive)
REMARK    1  A    between atoms: C_2  and  C_3
REMARK    2  A    between atoms: C_3  and  N_4
REMARK    3  A    between atoms: C_8  and  C_9
REMARK    4  A    between atoms: N_21  and  C_22
REMARK    5  A    between atoms: C_22  and  C_23
REMARK    6  A    between atoms: C_23  and  C_24
REMARK                            x       y       z     vdW  Elec       q    Type
REMARK                         _______ _______ _______ _____ _____    ______ ____
ROOT
ATOM      1  N   UNL     1       4.473   3.894  18.442  0.00  0.00    +0.000 N 
ATOM      2  C   UNL     1       3.896   3.319  17.313  0.00  0.00    +0.000 A 
ATOM      3  O   UNL     1       2.880   2.628  17.420  0.00  0.00    +0.000 OA
ATOM      4  N   UNL     1       4.480   3.506  16.091  0.00  0.00    +0.000 NA
ATOM      5  C   UNL     1       5.548   4.225  15.935  0.00  0.00    +0.000 A 
ATOM      6  C   UNL     1       6.187   4.935  17.076  0.00  0.00    +0.000 A 
ATOM      7  C   UNL     1       7.251   5.840  16.937  0.00  0.00    +0.000 A 
ATOM      8  C   UNL     1       7.863   6.394  18.061  0.00  0.00    +0.000 A 
ATOM      9  C   UNL     1       7.387   6.080  19.327  0.00  0.00    +0.000 A 
ATOM     10  C   UNL     1       6.279   5.240  19.468  0.00  0.00    +0.000 A 
ATOM     11  C   UNL     1       5.650   4.679  18.344  0.00  0.00    +0.000 A 
ENDROOT
BRANCH   5  12
ATOM     12  C   UNL     1       6.111   4.281  14.544  0.00  0.00    +0.000 A 
ATOM     13  C   UNL     1       5.526   3.486  13.549  0.00  0.00    +0.000 A 
ATOM     14  C   UNL     1       6.023   3.506  12.242  0.00  0.00    +0.000 A 
ATOM     15  C   UNL     1       7.102   4.325  11.917  0.00  0.00    +0.000 A 
ATOM     16  C   UNL     1       7.714   5.091  12.907  0.00  0.00    +0.000 A 
ATOM     17  C   UNL     1       7.241   5.044  14.222  0.00  0.00    +0.000 A 
ENDBRANCH   5  12
BRANCH   1  18
ATOM     18  C   UNL     1       3.786   3.684  19.713  0.00  0.00    +0.000 C 
BRANCH  18  20
ATOM     19  O   UNL     1       1.444   4.286  19.774  0.00  0.00    +0.000 OA
ATOM     20  C   UNL     1       2.615   4.651  19.884  0.00  0.00    +0.000 C 
ATOM     21  N   UNL     1       2.981   5.960  20.129  0.00  0.00    +0.000 N 
ATOM     22  H   UNL     1       3.938   6.222  19.895  0.00  0.00    +0.000 HD
BRANCH  21  23
ATOM     23  C   UNL     1       1.974   7.001  20.261  0.00  0.00    +0.000 C 
BRANCH  23  24
ATOM     24  C   UNL     1       2.104   8.080  19.186  0.00  0.00    +0.000 C 
BRANCH  24  25
ATOM     25  C   UNL     1       1.061   9.163  19.325  0.00  0.00    +0.000 A 
ATOM     26  C   UNL     1       0.450   9.712  18.188  0.00  0.00    +0.000 A 
ATOM     27  C   UNL     1      -0.500  10.729  18.312  0.00  0.00    +0.000 A 
ATOM     28  C   UNL     1      -0.849  11.207  19.573  0.00  0.00    +0.000 A 
ATOM     29  C   UNL     1      -0.248  10.670  20.710  0.00  0.00    +0.000 A 
ATOM     30  C   UNL     1       0.702   9.654  20.588  0.00  0.00    +0.000 A 
ENDBRANCH  24  25
ENDBRANCH  23  24
ENDBRANCH  21  23
ENDBRANCH  18  20
ENDBRANCH   1  18
TORSDOF 6
ENDMDL
MODEL 7
REMARK VINA RESULT:      -7.9      7.809     10.924
REMARK  Name = 
REMARK  6 active torsions:
REMARK  status: ('A' for Active; 'I' for Inactive)
REMARK    1  A    between atoms: C_2  and  C_3
REMARK    2  A    between atoms: C_3  and  N_4
REMARK    3  A    between atoms: C_8  and  C_9
REMARK    4  A    between atoms: N_21  and  C_22
REMARK    5  A    between atoms: C_22  and  C_23
REMARK    6  A    between atoms: C_23  and  C_24
REMARK                            x       y       z     vdW  Elec       q    Type
REMARK                         _______ _______ _______ _____ _____    ______ ____
ROOT
ATOM      1  N   UNL     1      -0.592  10.751  19.341  0.00  0.00    +0.000 N 
ATOM      2  C   UNL     1      -1.283  11.942  19.135  0.00  0.00    +0.000 A 
ATOM      3  O   UNL     1      -1.500  12.341  17.989  0.00  0.00    +0.000 OA
ATOM      4  N   UNL     1      -1.694  12.677  20.213  0.00  0.00    +0.000 NA
ATOM      5  C   UNL     1      -1.485  12.292  21.434  0.00  0.00    +0.000 A 
ATOM      6  C   UNL     1      -0.820  10.998  21.744  0.00  0.00    +0.000 A 
ATOM      7  C   UNL     1      -0.704  10.470  23.040  0.00  0.00    +0.000 A 
ATOM      8  C   UNL     1       0.018   9.298  23.267  0.00  0.00    +0.000 A 
ATOM      9  C   UNL     1       0.590   8.626  22.195  0.00  0.00    +0.000 A 
ATOM     10  C   UNL     1       0.412   9.106  20.894  0.00  0.00    +0.000 A 
ATOM     11  C   UNL     1      -0.317  10.282  20.652  0.00  0.00    +0.000 A 
ENDROOT
BRANCH   5  12
ATOM     12  C   UNL     1      -1.934  13.238  22.511  0.00  0.00    +0.000 A 
ATOM     13  C   UNL     1      -0.996  14.122  23.064  0.00  0.00    +0.000 A 
ATOM     14  C   UNL     1      -1.373  15.016  24.071  0.00  0.00    +0.000 A 
ATOM     15  C   UNL     1      -2.689  15.039  24.528  0.00  0.00    +0.000 A 
ATOM     16  C   UNL     1      -3.619  14.140  24.011  0.00  0.00    +0.000 A 
ATOM     17  C   UNL     1      -3.235  13.221  23.029  0.00  0.00    +0.000 A 
ENDBRANCH   5  12
BRANCH   1  18
ATOM     18  C   UNL     1      -0.207   9.997  18.153  0.00  0.00    +0.000 C 
BRANCH  18  20
ATOM     19  O   UNL     1       2.087  10.764  18.120  0.00  0.00    +0.000 OA
ATOM     20  C   UNL     1       1.308   9.811  18.073  0.00  0.00    +0.000 C 
ATOM     21  N   UNL     1       1.720   8.503  17.905  0.00  0.00    +0.000 N 
ATOM     22  H   UNL     1       1.021   7.842  17.568  0.00  0.00    +0.000 HD
BRANCH  21  23
ATOM     23  C   UNL     1       3.130   8.180  17.761  0.00  0.00    +0.000 C 
BRANCH  23  24
ATOM     24  C   UNL     1       3.363   6.698  17.466  0.00  0.00    +0.000 C 
BRANCH  24  25
ATOM     25  C   UNL     1       2.614   5.796  18.418  0.00  0.00    +0.000 A 
ATOM     26  C   UNL     1       1.952   4.654  17.943  0.00  0.00    +0.000 A 
ATOM     27  C   UNL     1       1.241   3.829  18.818  0.00  0.00    +0.000 A 
ATOM     28  C   UNL     1       1.184   4.137  20.175  0.00  0.00    +0.000 A 
ATOM     29  C   UNL     1       1.837   5.269  20.659  0.00  0.00    +0.000 A 
ATOM     30  C   UNL     1       2.548   6.095  19.786  0.00  0.00    +0.000 A 
ENDBRANCH  24  25
ENDBRANCH  23  24
ENDBRANCH  21  23
ENDBRANCH  18  20
ENDBRANCH   1  18
TORSDOF 6
ENDMDL
MODEL 8
REMARK VINA RESULT:      -7.9      7.863     11.163
REMARK  Name = 
REMARK  6 active torsions:
REMARK  status: ('A' for Active; 'I' for Inactive)
REMARK    1  A    between atoms: C_2  and  C_3
REMARK    2  A    between atoms: C_3  and  N_4
REMARK    3  A    between atoms: C_8  and  C_9
REMARK    4  A    between atoms: N_21  and  C_22
REMARK    5  A    between atoms: C_22  and  C_23
REMARK    6  A    between atoms: C_23  and  C_24
REMARK                            x       y       z     vdW  Elec       q    Type
REMARK                         _______ _______ _______ _____ _____    ______ ____
ROOT
ATOM      1  N   UNL     1      -0.556  10.916  19.289  0.00  0.00    +0.000 N 
ATOM      2  C   UNL     1      -1.005  12.207  19.026  0.00  0.00    +0.000 A 
ATOM      3  O   UNL     1      -1.106  12.603  17.862  0.00  0.00    +0.000 OA
ATOM      4  N   UNL     1      -1.308  13.039  20.067  0.00  0.00    +0.000 NA
ATOM      5  C   UNL     1      -1.216  12.662  21.305  0.00  0.00    +0.000 A 
ATOM      6  C   UNL     1      -0.816  11.278  21.674  0.00  0.00    +0.000 A 
ATOM      7  C   UNL     1      -0.844  10.779  22.986  0.00  0.00    +0.000 A 
ATOM      8  C   UNL     1      -0.362   9.501  23.270  0.00  0.00    +0.000 A 
ATOM      9  C   UNL     1       0.110   8.700  22.238  0.00  0.00    +0.000 A 
ATOM     10  C   UNL     1       0.069   9.163  20.920  0.00  0.00    +0.000 A 
ATOM     11  C   UNL     1      -0.418  10.445  20.620  0.00  0.00    +0.000 A 
ENDROOT
BRANCH   5  12
ATOM     12  C   UNL     1      -1.516  13.709  22.340  0.00  0.00    +0.000 A 
ATOM     13  C   UNL     1      -0.487  14.571  22.743  0.00  0.00    +0.000 A 
ATOM     14  C   UNL     1      -0.724  15.556  23.707  0.00  0.00    +0.000 A 
ATOM     15  C   UNL     1      -1.992  15.693  24.268  0.00  0.00    +0.000 A 
ATOM     16  C   UNL     1      -3.012  14.818  23.901  0.00  0.00    +0.000 A 
ATOM     17  C   UNL     1      -2.766  13.809  22.964  0.00  0.00    +0.000 A 
ENDBRANCH   5  12
BRANCH   1  18
ATOM     18  C   UNL     1      -0.279  10.066  18.135  0.00  0.00    +0.000 C 
BRANCH  18  20
ATOM     19  O   UNL     1       2.082  10.581  18.053  0.00  0.00    +0.000 OA
ATOM     20  C   UNL     1       1.206   9.717  18.039  0.00  0.00    +0.000 C 
ATOM     21  N   UNL     1       1.473   8.369  17.899  0.00  0.00    +0.000 N 
ATOM     22  H   UNL     1       0.702   7.778  17.587  0.00  0.00    +0.000 HD
BRANCH  21  23
ATOM     23  C   UNL     1       2.838   7.893  17.743  0.00  0.00    +0.000 C 
BRANCH  23  24
ATOM     24  C   UNL     1       3.294   7.029  18.919  0.00  0.00    +0.000 C 
BRANCH  24  25
ATOM     25  C   UNL     1       2.456   5.783  19.079  0.00  0.00    +0.000 A 
ATOM     26  C   UNL     1       1.904   5.452  20.325  0.00  0.00    +0.000 A 
ATOM     27  C   UNL     1       1.146   4.289  20.481  0.00  0.00    +0.000 A 
ATOM     28  C   UNL     1       0.932   3.445  19.393  0.00  0.00    +0.000 A 
ATOM     29  C   UNL     1       1.476   3.762  18.150  0.00  0.00    +0.000 A 
ATOM     30  C   UNL     1       2.234   4.925  17.993  0.00  0.00    +0.000 A 
ENDBRANCH  24  25
ENDBRANCH  23  24
ENDBRANCH  21  23
ENDBRANCH  18  20
ENDBRANCH   1  18
TORSDOF 6
ENDMDL
MODEL 9
REMARK VINA RESULT:      -7.8      4.200      7.537
REMARK  Name = 
REMARK  6 active torsions:
REMARK  status: ('A' for Active; 'I' for Inactive)
REMARK    1  A    between atoms: C_2  and  C_3
REMARK    2  A    between atoms: C_3  and  N_4
REMARK    3  A    between atoms: C_8  and  C_9
REMARK    4  A    between atoms: N_21  and  C_22
REMARK    5  A    between atoms: C_22  and  C_23
REMARK    6  A    between atoms: C_23  and  C_24
REMARK                            x       y       z     vdW  Elec       q    Type
REMARK                         _______ _______ _______ _____ _____    ______ ____
ROOT
ATOM      1  N   UNL     1       4.823   3.698  18.559  0.00  0.00    +0.000 N 
ATOM      2  C   UNL     1       4.262   2.997  17.495  0.00  0.00    +0.000 A 
ATOM      3  O   UNL     1       3.364   2.177  17.699  0.00  0.00    +0.000 OA
ATOM      4  N   UNL     1       4.732   3.208  16.228  0.00  0.00    +0.000 NA
ATOM      5  C   UNL     1       5.674   4.061  15.971  0.00  0.00    +0.000 A 
ATOM      6  C   UNL     1       6.278   4.905  17.037  0.00  0.00    +0.000 A 
ATOM      7  C   UNL     1       7.191   5.943  16.790  0.00  0.00    +0.000 A 
ATOM      8  C   UNL     1       7.789   6.628  17.847  0.00  0.00    +0.000 A 
ATOM      9  C   UNL     1       7.447   6.309  19.154  0.00  0.00    +0.000 A 
ATOM     10  C   UNL     1       6.482   5.330  19.403  0.00  0.00    +0.000 A 
ATOM     11  C   UNL     1       5.868   4.636  18.349  0.00  0.00    +0.000 A 
ENDROOT
BRANCH   5  12
ATOM     12  C   UNL     1       6.132   4.132  14.542  0.00  0.00    +0.000 A 
ATOM     13  C   UNL     1       7.228   4.947  14.226  0.00  0.00    +0.000 A 
ATOM     14  C   UNL     1       7.682   5.043  12.907  0.00  0.00    +0.000 A 
ATOM     15  C   UNL     1       7.052   4.320  11.896  0.00  0.00    +0.000 A 
ATOM     16  C   UNL     1       5.939   3.536  12.195  0.00  0.00    +0.000 A 
ATOM     17  C   UNL     1       5.461   3.468  13.507  0.00  0.00    +0.000 A 
ENDBRANCH   5  12
BRANCH   1  18
ATOM     18  C   UNL     1       4.258   3.453  19.882  0.00  0.00    +0.000 C 
BRANCH  18  20
ATOM     19  O   UNL     1       1.842   3.556  19.888  0.00  0.00    +0.000 OA
ATOM     20  C   UNL     1       2.908   4.149  20.053  0.00  0.00    +0.000 C 
ATOM     21  N   UNL     1       2.988   5.492  20.365  0.00  0.00    +0.000 N 
ATOM     22  H   UNL     1       3.876   5.956  20.175  0.00  0.00    +0.000 HD
BRANCH  21  23
ATOM     23  C   UNL     1       1.785   6.296  20.506  0.00  0.00    +0.000 C 
BRANCH  23  24
ATOM     24  C   UNL     1       1.953   7.705  19.935  0.00  0.00    +0.000 C 
BRANCH  24  25
ATOM     25  C   UNL     1       1.089   8.721  20.643  0.00  0.00    +0.000 A 
ATOM     26  C   UNL     1       0.942  10.015  20.123  0.00  0.00    +0.000 A 
ATOM     27  C   UNL     1       0.160  10.964  20.786  0.00  0.00    +0.000 A 
ATOM     28  C   UNL     1      -0.482  10.629  21.976  0.00  0.00    +0.000 A 
ATOM     29  C   UNL     1      -0.343   9.347  22.504  0.00  0.00    +0.000 A 
ATOM     30  C   UNL     1       0.438   8.398  21.842  0.00  0.00    +0.000 A 
ENDBRANCH  24  25
ENDBRANCH  23  24
ENDBRANCH  21  23
ENDBRANCH  18  20
ENDBRANCH   1  18
TORSDOF 6
ENDMDL
