MODEL 1
REMARK VINA RESULT:      -6.7      0.000      0.000
REMARK  Name = 
REMARK  10 active torsions:
REMARK  status: ('A' for Active; 'I' for Inactive)
REMARK    1  A    between atoms: C_1  and  C_2
REMARK    2  A    between atoms: C_2  and  O_3
REMARK    3  A    between atoms: O_3  and  C_4
REMARK    4  A    between atoms: C_4  and  C_6
REMARK    5  A    between atoms: C_6  and  N_7
REMARK    6  A    between atoms: C_8  and  C_10
REMARK    7  A    between atoms: N_14  and  S_15
REMARK    8  A    between atoms: S_15  and  C_18
REMARK    9  A    between atoms: C_21  and  O_22
REMARK   10  A    between atoms: O_22  and  C_23
REMARK                            x       y       z     vdW  Elec       q    Type
REMARK                         _______ _______ _______ _____ _____    ______ ____
ROOT
ATOM      1  C   UNL     1       5.196   4.600  18.987  0.00  0.00    +0.000 C 
ATOM      2  C   UNL     1       4.166   3.449  18.953  0.00  0.00    +0.000 C 
ATOM      3  C   UNL     1       2.974   3.925  19.791  0.00  0.00    +0.000 C 
ATOM      4  C   UNL     1       3.311   5.376  20.169  0.00  0.00    +0.000 C 
ATOM      5  N   UNL     1       4.380   5.841  19.223  0.00  0.00    +0.000 NA
ATOM      6  S   UNL     1       2.769   2.871  21.288  0.00  0.00    +0.000 S 
ATOM      7  C   UNL     1       1.218   2.042  20.813  0.00  0.00    +0.000 C 
ATOM      8  C   UNL     1       1.017   2.134  19.314  0.00  0.00    +0.000 C 
ATOM      9  S   UNL     1       1.399   3.833  18.855  0.00  0.00    +0.000 S 
ENDROOT
BRANCH   1  11
ATOM     10  N   UNL     1       5.847   3.961  16.656  0.00  0.00    +0.000 N 
ATOM     11  C   UNL     1       6.245   4.333  17.911  0.00  0.00    +0.000 C 
ATOM     12  O   UNL     1       7.440   4.446  18.185  0.00  0.00    +0.000 OA
ATOM     13  H   UNL     1       4.902   4.198  16.366  0.00  0.00    +0.000 HD
BRANCH  10  14
ATOM     14  C   UNL     1       6.794   3.847  15.552  0.00  0.00    +0.000 C 
BRANCH  14  15
ATOM     15  C   UNL     1       6.564   4.886  14.457  0.00  0.00    +0.000 C 
ATOM     16  O   UNL     1       6.102   6.001  14.666  0.00  0.00    +0.000 OA
BRANCH  15  17
ATOM     17  O   UNL     1       6.868   4.383  13.226  0.00  0.00    +0.000 OA
BRANCH  17  19
ATOM     18  C   UNL     1       4.947   3.631  12.032  0.00  0.00    +0.000 C 
ATOM     19  C   UNL     1       6.150   3.202  12.856  0.00  0.00    +0.000 C 
ENDBRANCH  17  19
ENDBRANCH  15  17
ENDBRANCH  14  15
ENDBRANCH  10  14
ENDBRANCH   1  11
BRANCH   5  20
ATOM     20  S   UNL     1       3.877   6.735  17.877  0.00  0.00    +0.000 S 
ATOM     21  O   UNL     1       5.018   7.519  17.445  0.00  0.00    +0.000 OA
ATOM     22  O   UNL     1       3.239   5.821  16.957  0.00  0.00    +0.000 OA
BRANCH  20  23
ATOM     23  C   UNL     1       2.660   7.875  18.481  0.00  0.00    +0.000 A 
ATOM     24  C   UNL     1       2.131   8.859  17.643  0.00  0.00    +0.000 A 
ATOM     25  C   UNL     1       1.123   9.701  18.134  0.00  0.00    +0.000 A 
ATOM     26  C   UNL     1       0.630   9.537  19.435  0.00  0.00    +0.000 A 
ATOM     27  C   UNL     1       1.195   8.573  20.269  0.00  0.00    +0.000 A 
ATOM     28  C   UNL     1       2.205   7.738  19.794  0.00  0.00    +0.000 A 
BRANCH  26  29
ATOM     29  O   UNL     1      -0.370  10.392  19.813  0.00  0.00    +0.000 OA
ATOM     30  C   UNL     1      -1.268  10.768  18.770  0.00  0.00    +0.000 C 
ENDBRANCH  26  29
ENDBRANCH  20  23
ENDBRANCH   5  20
TORSDOF 8
ENDMDL
MODEL 2
REMARK VINA RESULT:      -6.6      0.678      1.175
REMARK  Name = 
REMARK  10 active torsions:
REMARK  status: ('A' for Active; 'I' for Inactive)
REMARK    1  A    between atoms: C_1  and  C_2
REMARK    2  A    between atoms: C_2  and  O_3
REMARK    3  A    between atoms: O_3  and  C_4
REMARK    4  A    between atoms: C_4  and  C_6
REMARK    5  A    between atoms: C_6  and  N_7
REMARK    6  A    between atoms: C_8  and  C_10
REMARK    7  A    between atoms: N_14  and  S_15
REMARK    8  A    between atoms: S_15  and  C_18
REMARK    9  A    between atoms: C_21  and  O_22
REMARK   10  A    between atoms: O_22  and  C_23
REMARK                            x       y       z     vdW  Elec       q    Type
REMARK                         _______ _______ _______ _____ _____    ______ ____
ROOT
ATOM      1  C   UNL     1       5.333   4.581  18.922  0.00  0.00    +0.000 C 
ATOM      2  C   UNL     1       4.301   3.444  18.761  0.00  0.00    +0.000 C 
ATOM      3  C   UNL     1       3.058   3.888  19.541  0.00  0.00    +0.000 C 
ATOM      4  C   UNL     1       3.378   5.315  20.015  0.00  0.00    +0.000 C 
ATOM      5  N   UNL     1       4.511   5.816  19.167  0.00  0.00    +0.000 NA
ATOM      6  S   UNL     1       2.746   2.762  20.965  0.00  0.00    +0.000 S 
ATOM      7  C   UNL     1       1.225   1.973  20.346  0.00  0.00    +0.000 C 
ATOM      8  C   UNL     1       1.126   2.143  18.844  0.00  0.00    +0.000 C 
ATOM      9  S   UNL     1       1.549   3.859  18.498  0.00  0.00    +0.000 S 
ENDROOT
BRANCH   1  11
ATOM     10  N   UNL     1       6.137   4.011  16.622  0.00  0.00    +0.000 N 
ATOM     11  C   UNL     1       6.450   4.359  17.907  0.00  0.00    +0.000 C 
ATOM     12  O   UNL     1       7.624   4.486  18.256  0.00  0.00    +0.000 OA
ATOM     13  H   UNL     1       5.206   4.239  16.280  0.00  0.00    +0.000 HD
BRANCH  10  14
ATOM     14  C   UNL     1       7.150   3.940  15.575  0.00  0.00    +0.000 C 
BRANCH  14  15
ATOM     15  C   UNL     1       6.686   4.542  14.251  0.00  0.00    +0.000 C 
ATOM     16  O   UNL     1       7.091   5.612  13.813  0.00  0.00    +0.000 OA
BRANCH  15  17
ATOM     17  O   UNL     1       5.718   3.775  13.671  0.00  0.00    +0.000 OA
BRANCH  17  19
ATOM     18  C   UNL     1       6.067   2.296  11.834  0.00  0.00    +0.000 C 
ATOM     19  C   UNL     1       5.754   3.726  12.241  0.00  0.00    +0.000 C 
ENDBRANCH  17  19
ENDBRANCH  15  17
ENDBRANCH  14  15
ENDBRANCH  10  14
ENDBRANCH   1  11
BRANCH   5  20
ATOM     20  S   UNL     1       4.105   6.782  17.838  0.00  0.00    +0.000 S 
ATOM     21  O   UNL     1       5.249   7.634  17.575  0.00  0.00    +0.000 OA
ATOM     22  O   UNL     1       3.599   5.912  16.802  0.00  0.00    +0.000 OA
BRANCH  20  23
ATOM     23  C   UNL     1       2.789   7.835  18.390  0.00  0.00    +0.000 A 
ATOM     24  C   UNL     1       2.226   7.663  19.657  0.00  0.00    +0.000 A 
ATOM     25  C   UNL     1       1.232   8.554  20.086  0.00  0.00    +0.000 A 
ATOM     26  C   UNL     1       0.833   9.621  19.271  0.00  0.00    +0.000 A 
ATOM     27  C   UNL     1       1.380   9.755  17.995  0.00  0.00    +0.000 A 
ATOM     28  C   UNL     1       2.360   8.868  17.555  0.00  0.00    +0.000 A 
BRANCH  26  29
ATOM     29  O   UNL     1      -0.125  10.450  19.789  0.00  0.00    +0.000 OA
ATOM     30  C   UNL     1      -0.328  10.333  21.197  0.00  0.00    +0.000 C 
ENDBRANCH  26  29
ENDBRANCH  20  23
ENDBRANCH   5  20
TORSDOF 8
ENDMDL
MODEL 3
REMARK VINA RESULT:      -6.5      0.890      1.282
REMARK  Name = 
REMARK  10 active torsions:
REMARK  status: ('A' for Active; 'I' for Inactive)
REMARK    1  A    between atoms: C_1  and  C_2
REMARK    2  A    between atoms: C_2  and  O_3
REMARK    3  A    between atoms: O_3  and  C_4
REMARK    4  A    between atoms: C_4  and  C_6
REMARK    5  A    between atoms: C_6  and  N_7
REMARK    6  A    between atoms: C_8  and  C_10
REMARK    7  A    between atoms: N_14  and  S_15
REMARK    8  A    between atoms: S_15  and  C_18
REMARK    9  A    between atoms: C_21  and  O_22
REMARK   10  A    between atoms: O_22  and  C_23
REMARK                            x       y       z     vdW  Elec       q    Type
REMARK                         _______ _______ _______ _____ _____    ______ ____
ROOT
ATOM      1  C   UNL     1       4.842   4.957  19.581  0.00  0.00    +0.000 C 
ATOM      2  C   UNL     1       4.071   3.662  19.246  0.00  0.00    +0.000 C 
ATOM      3  C   UNL     1       2.635   3.887  19.735  0.00  0.00    +0.000 C 
ATOM      4  C   UNL     1       2.607   5.345  20.219  0.00  0.00    +0.000 C 
ATOM      5  N   UNL     1       3.794   6.034  19.610  0.00  0.00    +0.000 NA
ATOM      6  S   UNL     1       2.222   2.719  21.098  0.00  0.00    +0.000 S 
ATOM      7  C   UNL     1       1.018   1.686  20.201  0.00  0.00    +0.000 C 
ATOM      8  C   UNL     1       1.211   1.842  18.707  0.00  0.00    +0.000 C 
ATOM      9  S   UNL     1       1.406   3.607  18.402  0.00  0.00    +0.000 S 
ENDROOT
BRANCH   1  11
ATOM     10  N   UNL     1       6.220   4.408  17.565  0.00  0.00    +0.000 N 
ATOM     11  C   UNL     1       6.169   4.931  18.828  0.00  0.00    +0.000 C 
ATOM     12  O   UNL     1       7.184   5.371  19.369  0.00  0.00    +0.000 OA
ATOM     13  H   UNL     1       5.355   4.371  17.030  0.00  0.00    +0.000 HD
BRANCH  10  14
ATOM     14  C   UNL     1       7.420   4.500  16.743  0.00  0.00    +0.000 C 
BRANCH  14  15
ATOM     15  C   UNL     1       7.117   4.691  15.259  0.00  0.00    +0.000 C 
ATOM     16  O   UNL     1       7.535   5.633  14.596  0.00  0.00    +0.000 OA
BRANCH  15  17
ATOM     17  O   UNL     1       6.267   3.727  14.799  0.00  0.00    +0.000 OA
BRANCH  17  19
ATOM     18  C   UNL     1       6.077   3.340  12.455  0.00  0.00    +0.000 C 
ATOM     19  C   UNL     1       5.502   4.089  13.645  0.00  0.00    +0.000 C 
ENDBRANCH  17  19
ENDBRANCH  15  17
ENDBRANCH  14  15
ENDBRANCH  10  14
ENDBRANCH   1  11
BRANCH   5  20
ATOM     20  S   UNL     1       3.522   6.923  18.195  0.00  0.00    +0.000 S 
ATOM     21  O   UNL     1       4.749   7.641  17.910  0.00  0.00    +0.000 OA
ATOM     22  O   UNL     1       2.968   6.021  17.212  0.00  0.00    +0.000 OA
BRANCH  20  23
ATOM     23  C   UNL     1       2.295   8.133  18.613  0.00  0.00    +0.000 A 
ATOM     24  C   UNL     1       1.810   8.231  19.919  0.00  0.00    +0.000 A 
ATOM     25  C   UNL     1       0.889   9.242  20.229  0.00  0.00    +0.000 A 
ATOM     26  C   UNL     1       0.486  10.161  19.252  0.00  0.00    +0.000 A 
ATOM     27  C   UNL     1       0.953  10.026  17.945  0.00  0.00    +0.000 A 
ATOM     28  C   UNL     1       1.860   9.018  17.624  0.00  0.00    +0.000 A 
BRANCH  26  29
ATOM     29  O   UNL     1      -0.396  11.125  19.658  0.00  0.00    +0.000 OA
ATOM     30  C   UNL     1      -1.104  11.779  18.606  0.00  0.00    +0.000 C 
ENDBRANCH  26  29
ENDBRANCH  20  23
ENDBRANCH   5  20
TORSDOF 8
ENDMDL
MODEL 4
REMARK VINA RESULT:      -6.3      5.483      9.601
REMARK  Name = 
REMARK  10 active torsions:
REMARK  status: ('A' for Active; 'I' for Inactive)
REMARK    1  A    between atoms: C_1  and  C_2
REMARK    2  A    between atoms: C_2  and  O_3
REMARK    3  A    between atoms: O_3  and  C_4
REMARK    4  A    between atoms: C_4  and  C_6
REMARK    5  A    between atoms: C_6  and  N_7
REMARK    6  A    between atoms: C_8  and  C_10
REMARK    7  A    between atoms: N_14  and  S_15
REMARK    8  A    between atoms: S_15  and  C_18
REMARK    9  A    between atoms: C_21  and  O_22
REMARK   10  A    between atoms: O_22  and  C_23
REMARK                            x       y       z     vdW  Elec       q    Type
REMARK                         _______ _______ _______ _____ _____    ______ ____
ROOT
ATOM      1  C   UNL     1       0.586  13.923  18.870  0.00  0.00    +0.000 C 
ATOM      2  C   UNL     1       2.104  14.015  18.600  0.00  0.00    +0.000 C 
ATOM      3  C   UNL     1       2.585  15.277  19.325  0.00  0.00    +0.000 C 
ATOM      4  C   UNL     1       1.352  15.792  20.085  0.00  0.00    +0.000 C 
ATOM      5  N   UNL     1       0.380  14.650  20.170  0.00  0.00    +0.000 NA
ATOM      6  S   UNL     1       3.200  16.527  18.119  0.00  0.00    +0.000 S 
ATOM      7  C   UNL     1       4.971  16.446  18.540  0.00  0.00    +0.000 C 
ATOM      8  C   UNL     1       5.277  15.147  19.257  0.00  0.00    +0.000 C 
ATOM      9  S   UNL     1       3.969  14.920  20.475  0.00  0.00    +0.000 S 
ENDROOT
BRANCH   1  11
ATOM     10  N   UNL     1       0.989  11.479  18.509  0.00  0.00    +0.000 N 
ATOM     11  C   UNL     1       0.113  12.530  18.467  0.00  0.00    +0.000 C 
ATOM     12  O   UNL     1      -1.050  12.364  18.097  0.00  0.00    +0.000 OA
ATOM     13  H   UNL     1       1.802  11.562  19.115  0.00  0.00    +0.000 HD
BRANCH  10  14
ATOM     14  C   UNL     1       0.554  10.106  18.287  0.00  0.00    +0.000 C 
BRANCH  14  15
ATOM     15  C   UNL     1       1.275   9.097  19.179  0.00  0.00    +0.000 C 
ATOM     16  O   UNL     1       1.199   9.096  20.401  0.00  0.00    +0.000 OA
BRANCH  15  17
ATOM     17  O   UNL     1       2.063   8.261  18.443  0.00  0.00    +0.000 OA
BRANCH  17  19
ATOM     18  C   UNL     1       2.438   5.921  18.186  0.00  0.00    +0.000 C 
ATOM     19  C   UNL     1       2.536   7.102  19.137  0.00  0.00    +0.000 C 
ENDBRANCH  17  19
ENDBRANCH  15  17
ENDBRANCH  14  15
ENDBRANCH  10  14
ENDBRANCH   1  11
BRANCH   5  20
ATOM     20  S   UNL     1       0.382  13.747  21.601  0.00  0.00    +0.000 S 
ATOM     21  O   UNL     1       1.113  12.525  21.322  0.00  0.00    +0.000 OA
ATOM     22  O   UNL     1       0.812  14.619  22.669  0.00  0.00    +0.000 OA
BRANCH  20  23
ATOM     23  C   UNL     1      -1.307  13.289  21.886  0.00  0.00    +0.000 A 
ATOM     24  C   UNL     1      -1.653  12.496  22.983  0.00  0.00    +0.000 A 
ATOM     25  C   UNL     1      -3.005  12.208  23.215  0.00  0.00    +0.000 A 
ATOM     26  C   UNL     1      -3.999  12.735  22.379  0.00  0.00    +0.000 A 
ATOM     27  C   UNL     1      -3.632  13.495  21.269  0.00  0.00    +0.000 A 
ATOM     28  C   UNL     1      -2.291  13.778  21.023  0.00  0.00    +0.000 A 
BRANCH  26  29
ATOM     29  O   UNL     1      -5.290  12.417  22.703  0.00  0.00    +0.000 OA
ATOM     30  C   UNL     1      -5.746  12.941  23.949  0.00  0.00    +0.000 C 
ENDBRANCH  26  29
ENDBRANCH  20  23
ENDBRANCH   5  20
TORSDOF 8
ENDMDL
MODEL 5
REMARK VINA RESULT:      -6.3      4.821      9.280
REMARK  Name = 
REMARK  10 active torsions:
REMARK  status: ('A' for Active; 'I' for Inactive)
REMARK    1  A    between atoms: C_1  and  C_2
REMARK    2  A    between atoms: C_2  and  O_3
REMARK    3  A    between atoms: O_3  and  C_4
REMARK    4  A    between atoms: C_4  and  C_6
REMARK    5  A    between atoms: C_6  and  N_7
REMARK    6  A    between atoms: C_8  and  C_10
REMARK    7  A    between atoms: N_14  and  S_15
REMARK    8  A    between atoms: S_15  and  C_18
REMARK    9  A    between atoms: C_21  and  O_22
REMARK   10  A    between atoms: O_22  and  C_23
REMARK                            x       y       z     vdW  Elec       q    Type
REMARK                         _______ _______ _______ _____ _____    ______ ____
ROOT
ATOM      1  C   UNL     1      -1.853  11.273  19.901  0.00  0.00    +0.000 C 
ATOM      2  C   UNL     1      -2.249  12.707  20.315  0.00  0.00    +0.000 C 
ATOM      3  C   UNL     1      -1.907  12.827  21.804  0.00  0.00    +0.000 C 
ATOM      4  C   UNL     1      -1.214  11.501  22.158  0.00  0.00    +0.000 C 
ATOM      5  N   UNL     1      -0.770  10.879  20.866  0.00  0.00    +0.000 NA
ATOM      6  S   UNL     1      -3.433  13.074  22.806  0.00  0.00    +0.000 S 
ATOM      7  C   UNL     1      -3.138  14.800  23.309  0.00  0.00    +0.000 C 
ATOM      8  C   UNL     1      -2.139  15.451  22.374  0.00  0.00    +0.000 C 
ATOM      9  S   UNL     1      -0.810  14.258  22.142  0.00  0.00    +0.000 S 
ENDROOT
BRANCH   1  11
ATOM     10  N   UNL     1      -2.170  10.022  17.757  0.00  0.00    +0.000 N 
ATOM     11  C   UNL     1      -1.853  11.199  18.377  0.00  0.00    +0.000 C 
ATOM     12  O   UNL     1      -1.559  12.198  17.719  0.00  0.00    +0.000 OA
ATOM     13  H   UNL     1      -2.719   9.341  18.278  0.00  0.00    +0.000 HD
BRANCH  10  14
ATOM     14  C   UNL     1      -2.338   9.935  16.311  0.00  0.00    +0.000 C 
BRANCH  14  15
ATOM     15  C   UNL     1      -3.578  10.670  15.808  0.00  0.00    +0.000 C 
ATOM     16  O   UNL     1      -4.555  10.910  16.506  0.00  0.00    +0.000 OA
BRANCH  15  17
ATOM     17  O   UNL     1      -3.481  10.950  14.475  0.00  0.00    +0.000 OA
BRANCH  17  19
ATOM     18  C   UNL     1      -4.111   9.787  12.493  0.00  0.00    +0.000 C 
ATOM     19  C   UNL     1      -3.122   9.842  13.645  0.00  0.00    +0.000 C 
ENDBRANCH  17  19
ENDBRANCH  15  17
ENDBRANCH  14  15
ENDBRANCH  10  14
ENDBRANCH   1  11
BRANCH   5  20
ATOM     20  S   UNL     1       0.840  11.131  20.407  0.00  0.00    +0.000 S 
ATOM     21  O   UNL     1       0.826  12.156  19.381  0.00  0.00    +0.000 OA
ATOM     22  O   UNL     1       1.614  11.324  21.611  0.00  0.00    +0.000 OA
BRANCH  20  23
ATOM     23  C   UNL     1       1.362   9.624  19.630  0.00  0.00    +0.000 A 
ATOM     24  C   UNL     1       1.618   9.585  18.258  0.00  0.00    +0.000 A 
ATOM     25  C   UNL     1       2.092   8.394  17.688  0.00  0.00    +0.000 A 
ATOM     26  C   UNL     1       2.338   7.272  18.488  0.00  0.00    +0.000 A 
ATOM     27  C   UNL     1       2.044   7.319  19.850  0.00  0.00    +0.000 A 
ATOM     28  C   UNL     1       1.562   8.493  20.424  0.00  0.00    +0.000 A 
BRANCH  26  29
ATOM     29  O   UNL     1       2.824   6.167  17.843  0.00  0.00    +0.000 OA
ATOM     30  C   UNL     1       2.708   4.944  18.570  0.00  0.00    +0.000 C 
ENDBRANCH  26  29
ENDBRANCH  20  23
ENDBRANCH   5  20
TORSDOF 8
ENDMDL
MODEL 6
REMARK VINA RESULT:      -6.3      5.336      9.240
REMARK  Name = 
REMARK  10 active torsions:
REMARK  status: ('A' for Active; 'I' for Inactive)
REMARK    1  A    between atoms: C_1  and  C_2
REMARK    2  A    between atoms: C_2  and  O_3
REMARK    3  A    between atoms: O_3  and  C_4
REMARK    4  A    between atoms: C_4  and  C_6
REMARK    5  A    between atoms: C_6  and  N_7
REMARK    6  A    between atoms: C_8  and  C_10
REMARK    7  A    between atoms: N_14  and  S_15
REMARK    8  A    between atoms: S_15  and  C_18
REMARK    9  A    between atoms: C_21  and  O_22
REMARK   10  A    between atoms: O_22  and  C_23
REMARK                            x       y       z     vdW  Elec       q    Type
REMARK                         _______ _______ _______ _____ _____    ______ ____
ROOT
ATOM      1  C   UNL     1       0.790  13.436  18.919  0.00  0.00    +0.000 C 
ATOM      2  C   UNL     1       2.318  13.589  18.753  0.00  0.00    +0.000 C 
ATOM      3  C   UNL     1       2.651  15.014  19.208  0.00  0.00    +0.000 C 
ATOM      4  C   UNL     1       1.324  15.581  19.735  0.00  0.00    +0.000 C 
ATOM      5  N   UNL     1       0.420  14.412  20.001  0.00  0.00    +0.000 NA
ATOM      6  S   UNL     1       3.298  16.013  17.802  0.00  0.00    +0.000 S 
ATOM      7  C   UNL     1       5.023  16.170  18.365  0.00  0.00    +0.000 C 
ATOM      8  C   UNL     1       5.341  15.090  19.378  0.00  0.00    +0.000 C 
ATOM      9  S   UNL     1       3.942  15.031  20.512  0.00  0.00    +0.000 S 
ENDROOT
BRANCH   1  11
ATOM     10  N   UNL     1       1.356  11.014  19.200  0.00  0.00    +0.000 N 
ATOM     11  C   UNL     1       0.444  11.954  18.805  0.00  0.00    +0.000 C 
ATOM     12  O   UNL     1      -0.650  11.618  18.351  0.00  0.00    +0.000 OA
ATOM     13  H   UNL     1       2.076  11.297  19.861  0.00  0.00    +0.000 HD
BRANCH  10  14
ATOM     14  C   UNL     1       1.021   9.596  19.261  0.00  0.00    +0.000 C 
BRANCH  14  15
ATOM     15  C   UNL     1       1.868   8.740  18.323  0.00  0.00    +0.000 C 
ATOM     16  O   UNL     1       2.298   9.135  17.246  0.00  0.00    +0.000 OA
BRANCH  15  17
ATOM     17  O   UNL     1       2.013   7.472  18.806  0.00  0.00    +0.000 OA
BRANCH  17  19
ATOM     18  C   UNL     1       2.535   5.290  18.001  0.00  0.00    +0.000 C 
ATOM     19  C   UNL     1       3.056   6.703  18.197  0.00  0.00    +0.000 C 
ENDBRANCH  17  19
ENDBRANCH  15  17
ENDBRANCH  14  15
ENDBRANCH  10  14
ENDBRANCH   1  11
BRANCH   5  20
ATOM     20  S   UNL     1       0.345  13.848  21.595  0.00  0.00    +0.000 S 
ATOM     21  O   UNL     1       1.078  12.597  21.630  0.00  0.00    +0.000 OA
ATOM     22  O   UNL     1       0.730  14.936  22.463  0.00  0.00    +0.000 OA
BRANCH  20  23
ATOM     23  C   UNL     1      -1.360  13.461  21.890  0.00  0.00    +0.000 A 
ATOM     24  C   UNL     1      -2.340  13.815  20.960  0.00  0.00    +0.000 A 
ATOM     25  C   UNL     1      -3.670  13.436  21.195  0.00  0.00    +0.000 A 
ATOM     26  C   UNL     1      -4.005  12.684  22.328  0.00  0.00    +0.000 A 
ATOM     27  C   UNL     1      -3.020  12.370  23.263  0.00  0.00    +0.000 A 
ATOM     28  C   UNL     1      -1.698  12.752  23.044  0.00  0.00    +0.000 A 
BRANCH  26  29
ATOM     29  O   UNL     1      -5.324  12.341  22.455  0.00  0.00    +0.000 OA
ATOM     30  C   UNL     1      -6.136  12.632  21.318  0.00  0.00    +0.000 C 
ENDBRANCH  26  29
ENDBRANCH  20  23
ENDBRANCH   5  20
TORSDOF 8
ENDMDL
MODEL 7
REMARK VINA RESULT:      -6.3      1.493      1.895
REMARK  Name = 
REMARK  10 active torsions:
REMARK  status: ('A' for Active; 'I' for Inactive)
REMARK    1  A    between atoms: C_1  and  C_2
REMARK    2  A    between atoms: C_2  and  O_3
REMARK    3  A    between atoms: O_3  and  C_4
REMARK    4  A    between atoms: C_4  and  C_6
REMARK    5  A    between atoms: C_6  and  N_7
REMARK    6  A    between atoms: C_8  and  C_10
REMARK    7  A    between atoms: N_14  and  S_15
REMARK    8  A    between atoms: S_15  and  C_18
REMARK    9  A    between atoms: C_21  and  O_22
REMARK   10  A    between atoms: O_22  and  C_23
REMARK                            x       y       z     vdW  Elec       q    Type
REMARK                         _______ _______ _______ _____ _____    ______ ____
ROOT
ATOM      1  C   UNL     1       4.527   5.601  18.751  0.00  0.00    +0.000 C 
ATOM      2  C   UNL     1       3.872   4.231  18.473  0.00  0.00    +0.000 C 
ATOM      3  C   UNL     1       2.776   4.064  19.532  0.00  0.00    +0.000 C 
ATOM      4  C   UNL     1       2.761   5.397  20.298  0.00  0.00    +0.000 C 
ATOM      5  N   UNL     1       3.458   6.408  19.435  0.00  0.00    +0.000 NA
ATOM      6  S   UNL     1       3.159   2.651  20.650  0.00  0.00    +0.000 S 
ATOM      7  C   UNL     1       1.840   1.520  20.103  0.00  0.00    +0.000 C 
ATOM      8  C   UNL     1       1.341   1.927  18.732  0.00  0.00    +0.000 C 
ATOM      9  S   UNL     1       1.141   3.717  18.776  0.00  0.00    +0.000 S 
ENDROOT
BRANCH   1  11
ATOM     10  N   UNL     1       4.959   5.651  16.286  0.00  0.00    +0.000 N 
ATOM     11  C   UNL     1       5.385   5.974  17.546  0.00  0.00    +0.000 C 
ATOM     12  O   UNL     1       6.458   6.553  17.718  0.00  0.00    +0.000 OA
ATOM     13  H   UNL     1       3.963   5.493  16.146  0.00  0.00    +0.000 HD
BRANCH  10  14
ATOM     14  C   UNL     1       5.657   6.118  15.095  0.00  0.00    +0.000 C 
BRANCH  14  15
ATOM     15  C   UNL     1       6.588   5.067  14.496  0.00  0.00    +0.000 C 
ATOM     16  O   UNL     1       7.810   5.153  14.514  0.00  0.00    +0.000 OA
BRANCH  15  17
ATOM     17  O   UNL     1       5.883   4.075  13.878  0.00  0.00    +0.000 OA
BRANCH  17  19
ATOM     18  C   UNL     1       5.287   2.934  11.872  0.00  0.00    +0.000 C 
ATOM     19  C   UNL     1       6.400   3.657  12.611  0.00  0.00    +0.000 C 
ENDBRANCH  17  19
ENDBRANCH  15  17
ENDBRANCH  14  15
ENDBRANCH  10  14
ENDBRANCH   1  11
BRANCH   5  20
ATOM     20  S   UNL     1       2.480   7.409  18.483  0.00  0.00    +0.000 S 
ATOM     21  O   UNL     1       3.372   8.223  17.679  0.00  0.00    +0.000 OA
ATOM     22  O   UNL     1       1.491   6.574  17.843  0.00  0.00    +0.000 OA
BRANCH  20  23
ATOM     23  C   UNL     1       1.658   8.500  19.615  0.00  0.00    +0.000 A 
ATOM     24  C   UNL     1       1.514   8.150  20.959  0.00  0.00    +0.000 A 
ATOM     25  C   UNL     1       0.918   9.064  21.840  0.00  0.00    +0.000 A 
ATOM     26  C   UNL     1       0.503  10.322  21.385  0.00  0.00    +0.000 A 
ATOM     27  C   UNL     1       0.622  10.640  20.032  0.00  0.00    +0.000 A 
ATOM     28  C   UNL     1       1.203   9.734  19.148  0.00  0.00    +0.000 A 
BRANCH  26  29
ATOM     29  O   UNL     1      -0.045  11.152  22.325  0.00  0.00    +0.000 OA
ATOM     30  C   UNL     1      -0.903  12.168  21.808  0.00  0.00    +0.000 C 
ENDBRANCH  26  29
ENDBRANCH  20  23
ENDBRANCH   5  20
TORSDOF 8
ENDMDL
MODEL 8
REMARK VINA RESULT:      -6.2      8.881     10.707
REMARK  Name = 
REMARK  10 active torsions:
REMARK  status: ('A' for Active; 'I' for Inactive)
REMARK    1  A    between atoms: C_1  and  C_2
REMARK    2  A    between atoms: C_2  and  O_3
REMARK    3  A    between atoms: O_3  and  C_4
REMARK    4  A    between atoms: C_4  and  C_6
REMARK    5  A    between atoms: C_6  and  N_7
REMARK    6  A    between atoms: C_8  and  C_10
REMARK    7  A    between atoms: N_14  and  S_15
REMARK    8  A    between atoms: S_15  and  C_18
REMARK    9  A    between atoms: C_21  and  O_22
REMARK   10  A    between atoms: O_22  and  C_23
REMARK                            x       y       z     vdW  Elec       q    Type
REMARK                         _______ _______ _______ _____ _____    ______ ____
ROOT
ATOM      1  C   UNL     1       0.068  14.159  19.163  0.00  0.00    +0.000 C 
ATOM      2  C   UNL     1       1.577  14.142  18.835  0.00  0.00    +0.000 C 
ATOM      3  C   UNL     1       2.159  15.414  19.462  0.00  0.00    +0.000 C 
ATOM      4  C   UNL     1       0.988  16.047  20.231  0.00  0.00    +0.000 C 
ATOM      5  N   UNL     1      -0.045  14.974  20.421  0.00  0.00    +0.000 NA
ATOM      6  S   UNL     1       2.799  16.548  18.160  0.00  0.00    +0.000 S 
ATOM      7  C   UNL     1       4.577  16.386  18.523  0.00  0.00    +0.000 C 
ATOM      8  C   UNL     1       4.834  15.116  19.309  0.00  0.00    +0.000 C 
ATOM      9  S   UNL     1       3.563  15.043  20.583  0.00  0.00    +0.000 S 
ENDROOT
BRANCH   1  11
ATOM     10  N   UNL     1      -1.849  12.618  18.699  0.00  0.00    +0.000 N 
ATOM     11  C   UNL     1      -0.500  12.774  18.864  0.00  0.00    +0.000 C 
ATOM     12  O   UNL     1       0.259  11.809  18.784  0.00  0.00    +0.000 OA
ATOM     13  H   UNL     1      -2.395  13.436  18.437  0.00  0.00    +0.000 HD
BRANCH  10  14
ATOM     14  C   UNL     1      -2.429  11.355  18.259  0.00  0.00    +0.000 C 
BRANCH  14  15
ATOM     15  C   UNL     1      -3.888  11.483  17.829  0.00  0.00    +0.000 C 
ATOM     16  O   UNL     1      -4.705  12.195  18.401  0.00  0.00    +0.000 OA
BRANCH  15  17
ATOM     17  O   UNL     1      -4.172  10.650  16.785  0.00  0.00    +0.000 OA
BRANCH  17  19
ATOM     18  C   UNL     1      -3.046  10.318  14.711  0.00  0.00    +0.000 C 
ATOM     19  C   UNL     1      -3.040  10.003  16.197  0.00  0.00    +0.000 C 
ENDBRANCH  17  19
ENDBRANCH  15  17
ENDBRANCH  14  15
ENDBRANCH  10  14
ENDBRANCH   1  11
BRANCH   5  20
ATOM     20  S   UNL     1      -0.040  14.160  21.905  0.00  0.00    +0.000 S 
ATOM     21  O   UNL     1       0.691  12.924  21.701  0.00  0.00    +0.000 OA
ATOM     22  O   UNL     1       0.391  15.096  22.917  0.00  0.00    +0.000 OA
BRANCH  20  23
ATOM     23  C   UNL     1      -1.729  13.720  22.219  0.00  0.00    +0.000 A 
ATOM     24  C   UNL     1      -2.769  14.378  21.559  0.00  0.00    +0.000 A 
ATOM     25  C   UNL     1      -4.089  13.960  21.782  0.00  0.00    +0.000 A 
ATOM     26  C   UNL     1      -4.359  12.878  22.630  0.00  0.00    +0.000 A 
ATOM     27  C   UNL     1      -3.311  12.257  23.308  0.00  0.00    +0.000 A 
ATOM     28  C   UNL     1      -1.997  12.671  23.101  0.00  0.00    +0.000 A 
BRANCH  26  29
ATOM     29  O   UNL     1      -5.676  12.531  22.763  0.00  0.00    +0.000 OA
ATOM     30  C   UNL     1      -6.210  12.682  24.078  0.00  0.00    +0.000 C 
ENDBRANCH  26  29
ENDBRANCH  20  23
ENDBRANCH   5  20
TORSDOF 8
ENDMDL
MODEL 9
REMARK VINA RESULT:      -6.2      1.741      7.019
REMARK  Name = 
REMARK  10 active torsions:
REMARK  status: ('A' for Active; 'I' for Inactive)
REMARK    1  A    between atoms: C_1  and  C_2
REMARK    2  A    between atoms: C_2  and  O_3
REMARK    3  A    between atoms: O_3  and  C_4
REMARK    4  A    between atoms: C_4  and  C_6
REMARK    5  A    between atoms: C_6  and  N_7
REMARK    6  A    between atoms: C_8  and  C_10
REMARK    7  A    between atoms: N_14  and  S_15
REMARK    8  A    between atoms: S_15  and  C_18
REMARK    9  A    between atoms: C_21  and  O_22
REMARK   10  A    between atoms: O_22  and  C_23
REMARK                            x       y       z     vdW  Elec       q    Type
REMARK                         _______ _______ _______ _____ _____    ______ ____
ROOT
ATOM      1  C   UNL     1       2.172   6.226  18.353  0.00  0.00    +0.000 C 
ATOM      2  C   UNL     1       2.033   5.428  19.667  0.00  0.00    +0.000 C 
ATOM      3  C   UNL     1       2.363   3.973  19.315  0.00  0.00    +0.000 C 
ATOM      4  C   UNL     1       2.798   4.012  17.841  0.00  0.00    +0.000 C 
ATOM      5  N   UNL     1       3.148   5.438  17.524  0.00  0.00    +0.000 NA
ATOM      6  S   UNL     1       0.887   2.895  19.550  0.00  0.00    +0.000 S 
ATOM      7  C   UNL     1       1.478   1.954  20.993  0.00  0.00    +0.000 C 
ATOM      8  C   UNL     1       2.596   2.708  21.683  0.00  0.00    +0.000 C 
ATOM      9  S   UNL     1       3.693   3.295  20.380  0.00  0.00    +0.000 S 
ENDROOT
BRANCH   1  11
ATOM     10  N   UNL     1       2.056   8.639  17.699  0.00  0.00    +0.000 N 
ATOM     11  C   UNL     1       2.188   7.712  18.696  0.00  0.00    +0.000 C 
ATOM     12  O   UNL     1       2.330   8.065  19.868  0.00  0.00    +0.000 OA
ATOM     13  H   UNL     1       1.614   8.344  16.831  0.00  0.00    +0.000 HD
BRANCH  10  14
ATOM     14  C   UNL     1       1.907  10.061  17.985  0.00  0.00    +0.000 C 
BRANCH  14  15
ATOM     15  C   UNL     1       0.488  10.443  18.400  0.00  0.00    +0.000 C 
ATOM     16  O   UNL     1       0.232  11.173  19.350  0.00  0.00    +0.000 OA
BRANCH  15  17
ATOM     17  O   UNL     1      -0.441   9.808  17.628  0.00  0.00    +0.000 OA
BRANCH  17  19
ATOM     18  C   UNL     1      -2.553  10.243  16.612  0.00  0.00    +0.000 C 
ATOM     19  C   UNL     1      -1.803  10.128  17.929  0.00  0.00    +0.000 C 
ENDBRANCH  17  19
ENDBRANCH  15  17
ENDBRANCH  14  15
ENDBRANCH  10  14
ENDBRANCH   1  11
BRANCH   5  20
ATOM     20  S   UNL     1       4.785   5.861  17.599  0.00  0.00    +0.000 S 
ATOM     21  O   UNL     1       4.848   7.307  17.505  0.00  0.00    +0.000 OA
ATOM     22  O   UNL     1       5.360   5.186  18.739  0.00  0.00    +0.000 OA
BRANCH  20  23
ATOM     23  C   UNL     1       5.521   5.210  16.123  0.00  0.00    +0.000 A 
ATOM     24  C   UNL     1       4.755   4.481  15.210  0.00  0.00    +0.000 A 
ATOM     25  C   UNL     1       5.353   4.037  14.021  0.00  0.00    +0.000 A 
ATOM     26  C   UNL     1       6.689   4.349  13.738  0.00  0.00    +0.000 A 
ATOM     27  C   UNL     1       7.447   5.047  14.677  0.00  0.00    +0.000 A 
ATOM     28  C   UNL     1       6.865   5.483  15.865  0.00  0.00    +0.000 A 
BRANCH  26  29
ATOM     29  O   UNL     1       7.173   3.893  12.542  0.00  0.00    +0.000 OA
ATOM     30  C   UNL     1       6.324   2.972  11.858  0.00  0.00    +0.000 C 
ENDBRANCH  26  29
ENDBRANCH  20  23
ENDBRANCH   5  20
TORSDOF 8
ENDMDL
