MODEL 1
REMARK VINA RESULT:      -8.0      0.000      0.000
REMARK  Name = 
REMARK  7 active torsions:
REMARK  status: ('A' for Active; 'I' for Inactive)
REMARK    1  A    between atoms: C_1  and  C_2
REMARK    2  A    between atoms: C_7  and  S_8
REMARK    3  A    between atoms: S_8  and  N_11
REMARK    4  A    between atoms: N_11  and  C_12
REMARK    5  A    between atoms: C_12  and  C_13
REMARK    6  A    between atoms: C_16  and  N_17
REMARK    7  A    between atoms: C_21  and  C_22
REMARK                            x       y       z     vdW  Elec       q    Type
REMARK                         _______ _______ _______ _____ _____    ______ ____
ROOT
ATOM      1  C   UNL     1       3.018   5.893  19.556  0.00  0.00    +0.000 C 
ENDROOT
BRANCH   1   2
ATOM      2  C   UNL     1       2.367   7.245  19.342  0.00  0.00    +0.000 A 
ATOM      3  C   UNL     1       2.344   7.882  18.094  0.00  0.00    +0.000 A 
ATOM      4  C   UNL     1       1.698   9.107  17.920  0.00  0.00    +0.000 A 
ATOM      5  C   UNL     1       1.058   9.724  19.001  0.00  0.00    +0.000 A 
ATOM      6  C   UNL     1       1.035   9.078  20.240  0.00  0.00    +0.000 A 
ATOM      7  C   UNL     1       1.682   7.850  20.406  0.00  0.00    +0.000 A 
BRANCH   5   8
ATOM      8  N   UNL     1       0.422  10.980  18.809  0.00  0.00    +0.000 N 
ATOM      9  C   UNL     1       0.992  12.208  19.076  0.00  0.00    +0.000 A 
ATOM     10  C   UNL     1       0.076  13.150  18.684  0.00  0.00    +0.000 A 
ATOM     11  N   UNL     1      -1.064  12.553  18.236  0.00  0.00    +0.000 NA
ATOM     12  C   UNL     1      -0.865  11.252  18.353  0.00  0.00    +0.000 A 
ATOM     13  C   UNL     1      -1.943  10.239  18.182  0.00  0.00    +0.000 C 
ENDBRANCH   5   8
ENDBRANCH   1   2
BRANCH   1  14
ATOM     14  N   UNL     1       3.139   5.102  18.337  0.00  0.00    +0.000 NA
ATOM     15  H   UNL     1       2.313   4.679  17.929  0.00  0.00    +0.000 HD
BRANCH  14  16
ATOM     16  S   UNL     1       4.500   4.160  18.107  0.00  0.00    +0.000 S 
ATOM     17  O   UNL     1       4.411   3.606  16.774  0.00  0.00    +0.000 OA
ATOM     18  O   UNL     1       4.622   3.315  19.273  0.00  0.00    +0.000 OA
BRANCH  16  25
ATOM     19  C   UNL     1       5.042   6.552  16.010  0.00  0.00    +0.000 C 
ATOM     20  C   UNL     1       5.984   6.350  17.164  0.00  0.00    +0.000 A 
ATOM     21  C   UNL     1       7.094   7.208  17.263  0.00  0.00    +0.000 A 
ATOM     22  C   UNL     1       8.019   7.077  18.303  0.00  0.00    +0.000 A 
ATOM     23  C   UNL     1       7.855   6.084  19.262  0.00  0.00    +0.000 A 
ATOM     24  C   UNL     1       6.770   5.216  19.182  0.00  0.00    +0.000 A 
ATOM     25  C   UNL     1       5.839   5.341  18.138  0.00  0.00    +0.000 A 
ENDBRANCH  16  25
ENDBRANCH  14  16
ENDBRANCH   1  14
TORSDOF 5
ENDMDL
MODEL 2
REMARK VINA RESULT:      -7.9      2.103      3.730
REMARK  Name = 
REMARK  7 active torsions:
REMARK  status: ('A' for Active; 'I' for Inactive)
REMARK    1  A    between atoms: C_1  and  C_2
REMARK    2  A    between atoms: C_7  and  S_8
REMARK    3  A    between atoms: S_8  and  N_11
REMARK    4  A    between atoms: N_11  and  C_12
REMARK    5  A    between atoms: C_12  and  C_13
REMARK    6  A    between atoms: C_16  and  N_17
REMARK    7  A    between atoms: C_21  and  C_22
REMARK                            x       y       z     vdW  Elec       q    Type
REMARK                         _______ _______ _______ _____ _____    ______ ____
ROOT
ATOM      1  C   UNL     1       3.896   6.615  17.709  0.00  0.00    +0.000 C 
ENDROOT
BRANCH   1   2
ATOM      2  C   UNL     1       2.869   7.547  18.319  0.00  0.00    +0.000 A 
ATOM      3  C   UNL     1       2.333   7.346  19.598  0.00  0.00    +0.000 A 
ATOM      4  C   UNL     1       1.421   8.248  20.149  0.00  0.00    +0.000 A 
ATOM      5  C   UNL     1       1.024   9.377  19.425  0.00  0.00    +0.000 A 
ATOM      6  C   UNL     1       1.584   9.613  18.166  0.00  0.00    +0.000 A 
ATOM      7  C   UNL     1       2.499   8.707  17.621  0.00  0.00    +0.000 A 
BRANCH   5   8
ATOM      8  N   UNL     1       0.080  10.273  19.995  0.00  0.00    +0.000 N 
ATOM      9  C   UNL     1       0.161  10.809  21.264  0.00  0.00    +0.000 A 
ATOM     10  C   UNL     1      -0.898  11.672  21.385  0.00  0.00    +0.000 A 
ATOM     11  N   UNL     1      -1.665  11.650  20.259  0.00  0.00    +0.000 NA
ATOM     12  C   UNL     1      -1.096  10.777  19.446  0.00  0.00    +0.000 A 
ATOM     13  C   UNL     1      -1.733  10.285  18.194  0.00  0.00    +0.000 C 
ENDBRANCH   5   8
ENDBRANCH   1   2
BRANCH   1  14
ATOM     14  N   UNL     1       4.577   5.773  18.686  0.00  0.00    +0.000 NA
ATOM     15  H   UNL     1       5.447   6.087  19.099  0.00  0.00    +0.000 HD
BRANCH  14  16
ATOM     16  S   UNL     1       4.537   4.112  18.501  0.00  0.00    +0.000 S 
ATOM     17  O   UNL     1       5.738   3.590  19.117  0.00  0.00    +0.000 OA
ATOM     18  O   UNL     1       4.223   3.857  17.114  0.00  0.00    +0.000 OA
BRANCH  16  25
ATOM     19  C   UNL     1       1.428   4.149  17.635  0.00  0.00    +0.000 C 
ATOM     20  C   UNL     1       1.810   3.673  19.009  0.00  0.00    +0.000 A 
ATOM     21  C   UNL     1       0.776   3.285  19.880  0.00  0.00    +0.000 A 
ATOM     22  C   UNL     1       1.051   2.839  21.176  0.00  0.00    +0.000 A 
ATOM     23  C   UNL     1       2.364   2.775  21.628  0.00  0.00    +0.000 A 
ATOM     24  C   UNL     1       3.405   3.160  20.789  0.00  0.00    +0.000 A 
ATOM     25  C   UNL     1       3.135   3.612  19.487  0.00  0.00    +0.000 A 
ENDBRANCH  16  25
ENDBRANCH  14  16
ENDBRANCH   1  14
TORSDOF 5
ENDMDL
MODEL 3
REMARK VINA RESULT:      -7.9      0.511      1.246
REMARK  Name = 
REMARK  7 active torsions:
REMARK  status: ('A' for Active; 'I' for Inactive)
REMARK    1  A    between atoms: C_1  and  C_2
REMARK    2  A    between atoms: C_7  and  S_8
REMARK    3  A    between atoms: S_8  and  N_11
REMARK    4  A    between atoms: N_11  and  C_12
REMARK    5  A    between atoms: C_12  and  C_13
REMARK    6  A    between atoms: C_16  and  N_17
REMARK    7  A    between atoms: C_21  and  C_22
REMARK                            x       y       z     vdW  Elec       q    Type
REMARK                         _______ _______ _______ _____ _____    ______ ____
ROOT
ATOM      1  C   UNL     1       3.000   5.934  19.530  0.00  0.00    +0.000 C 
ENDROOT
BRANCH   1   2
ATOM      2  C   UNL     1       2.340   7.281  19.309  0.00  0.00    +0.000 A 
ATOM      3  C   UNL     1       2.296   7.903  18.054  0.00  0.00    +0.000 A 
ATOM      4  C   UNL     1       1.642   9.123  17.876  0.00  0.00    +0.000 A 
ATOM      5  C   UNL     1       1.015   9.750  18.958  0.00  0.00    +0.000 A 
ATOM      6  C   UNL     1       1.013   9.119  20.205  0.00  0.00    +0.000 A 
ATOM      7  C   UNL     1       1.668   7.895  20.376  0.00  0.00    +0.000 A 
BRANCH   5   8
ATOM      8  N   UNL     1       0.370  11.001  18.761  0.00  0.00    +0.000 N 
ATOM      9  C   UNL     1      -0.993  11.181  18.647  0.00  0.00    +0.000 A 
ATOM     10  C   UNL     1      -1.194  12.534  18.543  0.00  0.00    +0.000 A 
ATOM     11  N   UNL     1      -0.002  13.196  18.531  0.00  0.00    +0.000 NA
ATOM     12  C   UNL     1       0.933  12.266  18.619  0.00  0.00    +0.000 A 
ATOM     13  C   UNL     1       2.382  12.539  18.417  0.00  0.00    +0.000 C 
ENDBRANCH   5   8
ENDBRANCH   1   2
BRANCH   1  14
ATOM     14  N   UNL     1       3.097   5.125  18.320  0.00  0.00    +0.000 NA
ATOM     15  H   UNL     1       2.262   4.701  17.932  0.00  0.00    +0.000 HD
BRANCH  14  16
ATOM     16  S   UNL     1       4.448   4.171  18.083  0.00  0.00    +0.000 S 
ATOM     17  O   UNL     1       4.356   3.635  16.742  0.00  0.00    +0.000 OA
ATOM     18  O   UNL     1       4.557   3.310  19.238  0.00  0.00    +0.000 OA
BRANCH  16  25
ATOM     19  C   UNL     1       5.021   6.585  16.019  0.00  0.00    +0.000 C 
ATOM     20  C   UNL     1       5.958   6.357  17.172  0.00  0.00    +0.000 A 
ATOM     21  C   UNL     1       7.077   7.202  17.285  0.00  0.00    +0.000 A 
ATOM     22  C   UNL     1       7.998   7.046  18.325  0.00  0.00    +0.000 A 
ATOM     23  C   UNL     1       7.821   6.043  19.269  0.00  0.00    +0.000 A 
ATOM     24  C   UNL     1       6.727   5.188  19.176  0.00  0.00    +0.000 A 
ATOM     25  C   UNL     1       5.800   5.337  18.132  0.00  0.00    +0.000 A 
ENDBRANCH  16  25
ENDBRANCH  14  16
ENDBRANCH   1  14
TORSDOF 5
ENDMDL
MODEL 4
REMARK VINA RESULT:      -7.7      3.552      8.079
REMARK  Name = 
REMARK  7 active torsions:
REMARK  status: ('A' for Active; 'I' for Inactive)
REMARK    1  A    between atoms: C_1  and  C_2
REMARK    2  A    between atoms: C_7  and  S_8
REMARK    3  A    between atoms: S_8  and  N_11
REMARK    4  A    between atoms: N_11  and  C_12
REMARK    5  A    between atoms: C_12  and  C_13
REMARK    6  A    between atoms: C_16  and  N_17
REMARK    7  A    between atoms: C_21  and  C_22
REMARK                            x       y       z     vdW  Elec       q    Type
REMARK                         _______ _______ _______ _____ _____    ______ ____
ROOT
ATOM      1  C   UNL     1       1.366   7.049  20.753  0.00  0.00    +0.000 C 
ENDROOT
BRANCH   1   2
ATOM      2  C   UNL     1       2.399   6.643  19.720  0.00  0.00    +0.000 A 
ATOM      3  C   UNL     1       2.594   7.355  18.529  0.00  0.00    +0.000 A 
ATOM      4  C   UNL     1       3.584   6.981  17.618  0.00  0.00    +0.000 A 
ATOM      5  C   UNL     1       4.403   5.879  17.884  0.00  0.00    +0.000 A 
ATOM      6  C   UNL     1       4.249   5.188  19.089  0.00  0.00    +0.000 A 
ATOM      7  C   UNL     1       3.257   5.569  19.998  0.00  0.00    +0.000 A 
BRANCH   5   8
ATOM      8  N   UNL     1       5.393   5.502  16.937  0.00  0.00    +0.000 N 
ATOM      9  C   UNL     1       5.217   4.573  15.932  0.00  0.00    +0.000 A 
ATOM     10  C   UNL     1       6.381   4.565  15.208  0.00  0.00    +0.000 A 
ATOM     11  N   UNL     1       7.295   5.414  15.759  0.00  0.00    +0.000 NA
ATOM     12  C   UNL     1       6.709   5.941  16.820  0.00  0.00    +0.000 A 
ATOM     13  C   UNL     1       7.432   6.754  17.836  0.00  0.00    +0.000 C 
ENDBRANCH   5   8
ENDBRANCH   1   2
BRANCH   1  14
ATOM     14  N   UNL     1       1.542   8.408  21.254  0.00  0.00    +0.000 NA
ATOM     15  H   UNL     1       2.455   8.711  21.571  0.00  0.00    +0.000 HD
BRANCH  14  16
ATOM     16  S   UNL     1       0.309   9.120  22.129  0.00  0.00    +0.000 S 
ATOM     17  O   UNL     1       0.904   9.666  23.329  0.00  0.00    +0.000 OA
ATOM     18  O   UNL     1      -0.769   8.160  22.186  0.00  0.00    +0.000 OA
BRANCH  16  25
ATOM     19  C   UNL     1      -1.757  11.478  22.893  0.00  0.00    +0.000 C 
ATOM     20  C   UNL     1      -1.130  11.456  21.528  0.00  0.00    +0.000 A 
ATOM     21  C   UNL     1      -1.499  12.464  20.619  0.00  0.00    +0.000 A 
ATOM     22  C   UNL     1      -0.965  12.505  19.328  0.00  0.00    +0.000 A 
ATOM     23  C   UNL     1      -0.054  11.539  18.918  0.00  0.00    +0.000 A 
ATOM     24  C   UNL     1       0.322  10.526  19.795  0.00  0.00    +0.000 A 
ATOM     25  C   UNL     1      -0.213  10.477  21.093  0.00  0.00    +0.000 A 
ENDBRANCH  16  25
ENDBRANCH  14  16
ENDBRANCH   1  14
TORSDOF 5
ENDMDL
MODEL 5
REMARK VINA RESULT:      -7.6      2.336      3.980
REMARK  Name = 
REMARK  7 active torsions:
REMARK  status: ('A' for Active; 'I' for Inactive)
REMARK    1  A    between atoms: C_1  and  C_2
REMARK    2  A    between atoms: C_7  and  S_8
REMARK    3  A    between atoms: S_8  and  N_11
REMARK    4  A    between atoms: N_11  and  C_12
REMARK    5  A    between atoms: C_12  and  C_13
REMARK    6  A    between atoms: C_16  and  N_17
REMARK    7  A    between atoms: C_21  and  C_22
REMARK                            x       y       z     vdW  Elec       q    Type
REMARK                         _______ _______ _______ _____ _____    ______ ____
ROOT
ATOM      1  C   UNL     1       3.556   6.650  17.715  0.00  0.00    +0.000 C 
ENDROOT
BRANCH   1   2
ATOM      2  C   UNL     1       2.623   7.571  18.476  0.00  0.00    +0.000 A 
ATOM      3  C   UNL     1       2.218   7.313  19.793  0.00  0.00    +0.000 A 
ATOM      4  C   UNL     1       1.393   8.204  20.481  0.00  0.00    +0.000 A 
ATOM      5  C   UNL     1       0.953   9.379  19.861  0.00  0.00    +0.000 A 
ATOM      6  C   UNL     1       1.387   9.669  18.565  0.00  0.00    +0.000 A 
ATOM      7  C   UNL     1       2.215   8.774  17.881  0.00  0.00    +0.000 A 
BRANCH   5   8
ATOM      8  N   UNL     1       0.099  10.264  20.572  0.00  0.00    +0.000 N 
ATOM      9  C   UNL     1      -0.516  11.376  20.034  0.00  0.00    +0.000 A 
ATOM     10  C   UNL     1      -1.301  11.900  21.028  0.00  0.00    +0.000 A 
ATOM     11  N   UNL     1      -1.153  11.188  22.181  0.00  0.00    +0.000 NA
ATOM     12  C   UNL     1      -0.279  10.234  21.911  0.00  0.00    +0.000 A 
ATOM     13  C   UNL     1       0.334   9.365  22.953  0.00  0.00    +0.000 C 
ENDBRANCH   5   8
ENDBRANCH   1   2
BRANCH   1  14
ATOM     14  N   UNL     1       4.446   5.877  18.575  0.00  0.00    +0.000 NA
ATOM     15  H   UNL     1       5.350   6.257  18.832  0.00  0.00    +0.000 HD
BRANCH  14  16
ATOM     16  S   UNL     1       4.489   4.214  18.418  0.00  0.00    +0.000 S 
ATOM     17  O   UNL     1       5.725   3.765  19.023  0.00  0.00    +0.000 OA
ATOM     18  O   UNL     1       4.167   3.918  17.042  0.00  0.00    +0.000 OA
BRANCH  16  25
ATOM     19  C   UNL     1       1.357   4.179  17.643  0.00  0.00    +0.000 C 
ATOM     20  C   UNL     1       1.791   3.692  18.997  0.00  0.00    +0.000 A 
ATOM     21  C   UNL     1       0.793   3.263  19.891  0.00  0.00    +0.000 A 
ATOM     22  C   UNL     1       1.118   2.805  21.171  0.00  0.00    +0.000 A 
ATOM     23  C   UNL     1       2.444   2.769  21.584  0.00  0.00    +0.000 A 
ATOM     24  C   UNL     1       3.450   3.196  20.722  0.00  0.00    +0.000 A 
ATOM     25  C   UNL     1       3.131   3.660  19.436  0.00  0.00    +0.000 A 
ENDBRANCH  16  25
ENDBRANCH  14  16
ENDBRANCH   1  14
TORSDOF 5
ENDMDL
MODEL 6
REMARK VINA RESULT:      -7.5      3.515      8.253
REMARK  Name = 
REMARK  7 active torsions:
REMARK  status: ('A' for Active; 'I' for Inactive)
REMARK    1  A    between atoms: C_1  and  C_2
REMARK    2  A    between atoms: C_7  and  S_8
REMARK    3  A    between atoms: S_8  and  N_11
REMARK    4  A    between atoms: N_11  and  C_12
REMARK    5  A    between atoms: C_12  and  C_13
REMARK    6  A    between atoms: C_16  and  N_17
REMARK    7  A    between atoms: C_21  and  C_22
REMARK                            x       y       z     vdW  Elec       q    Type
REMARK                         _______ _______ _______ _____ _____    ______ ____
ROOT
ATOM      1  C   UNL     1       1.620   7.015  20.580  0.00  0.00    +0.000 C 
ENDROOT
BRANCH   1   2
ATOM      2  C   UNL     1       2.696   6.598  19.597  0.00  0.00    +0.000 A 
ATOM      3  C   UNL     1       3.476   5.448  19.777  0.00  0.00    +0.000 A 
ATOM      4  C   UNL     1       4.429   5.068  18.830  0.00  0.00    +0.000 A 
ATOM      5  C   UNL     1       4.622   5.837  17.678  0.00  0.00    +0.000 A 
ATOM      6  C   UNL     1       3.819   6.961  17.465  0.00  0.00    +0.000 A 
ATOM      7  C   UNL     1       2.864   7.335  18.416  0.00  0.00    +0.000 A 
BRANCH   5   8
ATOM      8  N   UNL     1       5.609   5.444  16.735  0.00  0.00    +0.000 N 
ATOM      9  C   UNL     1       5.480   4.404  15.837  0.00  0.00    +0.000 A 
ATOM     10  C   UNL     1       6.618   4.413  15.072  0.00  0.00    +0.000 A 
ATOM     11  N   UNL     1       7.474   5.385  15.498  0.00  0.00    +0.000 NA
ATOM     12  C   UNL     1       6.880   5.971  16.523  0.00  0.00    +0.000 A 
ATOM     13  C   UNL     1       7.564   6.940  17.422  0.00  0.00    +0.000 C 
ENDBRANCH   5   8
ENDBRANCH   1   2
BRANCH   1  14
ATOM     14  N   UNL     1       1.196   8.403  20.431  0.00  0.00    +0.000 NA
ATOM     15  H   UNL     1       1.796   9.061  19.947  0.00  0.00    +0.000 HD
BRANCH  14  16
ATOM     16  S   UNL     1       0.339   9.132  21.667  0.00  0.00    +0.000 S 
ATOM     17  O   UNL     1       1.308   9.594  22.637  0.00  0.00    +0.000 OA
ATOM     18  O   UNL     1      -0.722   8.221  22.029  0.00  0.00    +0.000 OA
BRANCH  16  25
ATOM     19  C   UNL     1      -1.449  11.423  23.070  0.00  0.00    +0.000 C 
ATOM     20  C   UNL     1      -1.169  11.500  21.596  0.00  0.00    +0.000 A 
ATOM     21  C   UNL     1      -1.732  12.570  20.876  0.00  0.00    +0.000 A 
ATOM     22  C   UNL     1      -1.523  12.704  19.500  0.00  0.00    +0.000 A 
ATOM     23  C   UNL     1      -0.751  11.773  18.816  0.00  0.00    +0.000 A 
ATOM     24  C   UNL     1      -0.190  10.701  19.503  0.00  0.00    +0.000 A 
ATOM     25  C   UNL     1      -0.398  10.557  20.885  0.00  0.00    +0.000 A 
ENDBRANCH  16  25
ENDBRANCH  14  16
ENDBRANCH   1  14
TORSDOF 5
ENDMDL
MODEL 7
REMARK VINA RESULT:      -7.5      1.202      1.943
REMARK  Name = 
REMARK  7 active torsions:
REMARK  status: ('A' for Active; 'I' for Inactive)
REMARK    1  A    between atoms: C_1  and  C_2
REMARK    2  A    between atoms: C_7  and  S_8
REMARK    3  A    between atoms: S_8  and  N_11
REMARK    4  A    between atoms: N_11  and  C_12
REMARK    5  A    between atoms: C_12  and  C_13
REMARK    6  A    between atoms: C_16  and  N_17
REMARK    7  A    between atoms: C_21  and  C_22
REMARK                            x       y       z     vdW  Elec       q    Type
REMARK                         _______ _______ _______ _____ _____    ______ ____
ROOT
ATOM      1  C   UNL     1       2.796   5.726  19.952  0.00  0.00    +0.000 C 
ENDROOT
BRANCH   1   2
ATOM      2  C   UNL     1       2.250   7.106  19.646  0.00  0.00    +0.000 A 
ATOM      3  C   UNL     1       2.317   7.677  18.367  0.00  0.00    +0.000 A 
ATOM      4  C   UNL     1       1.766   8.933  18.108  0.00  0.00    +0.000 A 
ATOM      5  C   UNL     1       1.132   9.648  19.130  0.00  0.00    +0.000 A 
ATOM      6  C   UNL     1       1.018   9.070  20.398  0.00  0.00    +0.000 A 
ATOM      7  C   UNL     1       1.571   7.811  20.650  0.00  0.00    +0.000 A 
BRANCH   5   8
ATOM      8  N   UNL     1       0.593  10.932  18.851  0.00  0.00    +0.000 N 
ATOM      9  C   UNL     1       1.262  12.128  19.019  0.00  0.00    +0.000 A 
ATOM     10  C   UNL     1       0.417  13.108  18.568  0.00  0.00    +0.000 A 
ATOM     11  N   UNL     1      -0.774  12.572  18.178  0.00  0.00    +0.000 NA
ATOM     12  C   UNL     1      -0.676  11.271  18.390  0.00  0.00    +0.000 A 
ATOM     13  C   UNL     1      -1.832  10.337  18.307  0.00  0.00    +0.000 C 
ENDBRANCH   5   8
ENDBRANCH   1   2
BRANCH   1  14
ATOM     14  N   UNL     1       4.124   5.484  19.399  0.00  0.00    +0.000 NA
ATOM     15  H   UNL     1       4.613   6.234  18.924  0.00  0.00    +0.000 HD
BRANCH  14  16
ATOM     16  S   UNL     1       4.471   3.992  18.733  0.00  0.00    +0.000 S 
ATOM     17  O   UNL     1       3.214   3.414  18.313  0.00  0.00    +0.000 OA
ATOM     18  O   UNL     1       5.344   3.315  19.665  0.00  0.00    +0.000 OA
BRANCH  16  25
ATOM     19  C   UNL     1       7.332   5.480  18.617  0.00  0.00    +0.000 C 
ATOM     20  C   UNL     1       6.668   5.051  17.339  0.00  0.00    +0.000 A 
ATOM     21  C   UNL     1       7.319   5.349  16.128  0.00  0.00    +0.000 A 
ATOM     22  C   UNL     1       6.758   4.989  14.899  0.00  0.00    +0.000 A 
ATOM     23  C   UNL     1       5.536   4.330  14.855  0.00  0.00    +0.000 A 
ATOM     24  C   UNL     1       4.867   4.031  16.038  0.00  0.00    +0.000 A 
ATOM     25  C   UNL     1       5.422   4.392  17.276  0.00  0.00    +0.000 A 
ENDBRANCH  16  25
ENDBRANCH  14  16
ENDBRANCH   1  14
TORSDOF 5
ENDMDL
MODEL 8
REMARK VINA RESULT:      -7.5      3.740      8.627
REMARK  Name = 
REMARK  7 active torsions:
REMARK  status: ('A' for Active; 'I' for Inactive)
REMARK    1  A    between atoms: C_1  and  C_2
REMARK    2  A    between atoms: C_7  and  S_8
REMARK    3  A    between atoms: S_8  and  N_11
REMARK    4  A    between atoms: N_11  and  C_12
REMARK    5  A    between atoms: C_12  and  C_13
REMARK    6  A    between atoms: C_16  and  N_17
REMARK    7  A    between atoms: C_21  and  C_22
REMARK                            x       y       z     vdW  Elec       q    Type
REMARK                         _______ _______ _______ _____ _____    ______ ____
ROOT
ATOM      1  C   UNL     1       2.030   9.667  18.192  0.00  0.00    +0.000 C 
ENDROOT
BRANCH   1   2
ATOM      2  C   UNL     1       2.392   8.225  18.485  0.00  0.00    +0.000 A 
ATOM      3  C   UNL     1       1.992   7.570  19.658  0.00  0.00    +0.000 A 
ATOM      4  C   UNL     1       2.305   6.227  19.877  0.00  0.00    +0.000 A 
ATOM      5  C   UNL     1       3.029   5.508  18.921  0.00  0.00    +0.000 A 
ATOM      6  C   UNL     1       3.395   6.137  17.727  0.00  0.00    +0.000 A 
ATOM      7  C   UNL     1       3.077   7.481  17.512  0.00  0.00    +0.000 A 
BRANCH   5   8
ATOM      8  N   UNL     1       3.354   4.148  19.170  0.00  0.00    +0.000 N 
ATOM      9  C   UNL     1       4.603   3.682  19.527  0.00  0.00    +0.000 A 
ATOM     10  C   UNL     1       4.464   2.335  19.742  0.00  0.00    +0.000 A 
ATOM     11  N   UNL     1       3.187   1.936  19.478  0.00  0.00    +0.000 NA
ATOM     12  C   UNL     1       2.538   3.022  19.095  0.00  0.00    +0.000 A 
ATOM     13  C   UNL     1       1.173   2.995  18.502  0.00  0.00    +0.000 C 
ENDBRANCH   5   8
ENDBRANCH   1   2
BRANCH   1  14
ATOM     14  N   UNL     1       0.622   9.863  17.867  0.00  0.00    +0.000 NA
ATOM     15  H   UNL     1       0.341   9.978  16.901  0.00  0.00    +0.000 HD
BRANCH  14  16
ATOM     16  S   UNL     1      -0.338  10.753  18.906  0.00  0.00    +0.000 S 
ATOM     17  O   UNL     1       0.237  12.079  18.980  0.00  0.00    +0.000 OA
ATOM     18  O   UNL     1      -0.534   9.944  20.087  0.00  0.00    +0.000 OA
BRANCH  16  25
ATOM     19  C   UNL     1      -2.953  12.413  19.812  0.00  0.00    +0.000 C 
ATOM     20  C   UNL     1      -2.984  11.619  18.536  0.00  0.00    +0.000 A 
ATOM     21  C   UNL     1      -4.181  11.611  17.796  0.00  0.00    +0.000 A 
ATOM     22  C   UNL     1      -4.289  10.890  16.604  0.00  0.00    +0.000 A 
ATOM     23  C   UNL     1      -3.207  10.160  16.129  0.00  0.00    +0.000 A 
ATOM     24  C   UNL     1      -2.014  10.143  16.846  0.00  0.00    +0.000 A 
ATOM     25  C   UNL     1      -1.899  10.864  18.046  0.00  0.00    +0.000 A 
ENDBRANCH  16  25
ENDBRANCH  14  16
ENDBRANCH   1  14
TORSDOF 5
ENDMDL
MODEL 9
REMARK VINA RESULT:      -7.5      1.363      2.366
REMARK  Name = 
REMARK  7 active torsions:
REMARK  status: ('A' for Active; 'I' for Inactive)
REMARK    1  A    between atoms: C_1  and  C_2
REMARK    2  A    between atoms: C_7  and  S_8
REMARK    3  A    between atoms: S_8  and  N_11
REMARK    4  A    between atoms: N_11  and  C_12
REMARK    5  A    between atoms: C_12  and  C_13
REMARK    6  A    between atoms: C_16  and  N_17
REMARK    7  A    between atoms: C_21  and  C_22
REMARK                            x       y       z     vdW  Elec       q    Type
REMARK                         _______ _______ _______ _____ _____    ______ ____
ROOT
ATOM      1  C   UNL     1       2.953   5.927  19.786  0.00  0.00    +0.000 C 
ENDROOT
BRANCH   1   2
ATOM      2  C   UNL     1       2.300   7.260  19.479  0.00  0.00    +0.000 A 
ATOM      3  C   UNL     1       2.265   7.802  18.187  0.00  0.00    +0.000 A 
ATOM      4  C   UNL     1       1.617   9.012  17.929  0.00  0.00    +0.000 A 
ATOM      5  C   UNL     1       0.986   9.707  18.966  0.00  0.00    +0.000 A 
ATOM      6  C   UNL     1       0.975   9.154  20.250  0.00  0.00    +0.000 A 
ATOM      7  C   UNL     1       1.624   7.942  20.501  0.00  0.00    +0.000 A 
BRANCH   5   8
ATOM      8  N   UNL     1       0.348  10.945  18.688  0.00  0.00    +0.000 N 
ATOM      9  C   UNL     1      -0.997  11.103  18.423  0.00  0.00    +0.000 A 
ATOM     10  C   UNL     1      -1.206  12.450  18.285  0.00  0.00    +0.000 A 
ATOM     11  N   UNL     1      -0.032  13.133  18.399  0.00  0.00    +0.000 NA
ATOM     12  C   UNL     1       0.903  12.219  18.598  0.00  0.00    +0.000 A 
ATOM     13  C   UNL     1       2.361  12.515  18.556  0.00  0.00    +0.000 C 
ENDBRANCH   5   8
ENDBRANCH   1   2
BRANCH   1  14
ATOM     14  N   UNL     1       4.183   5.691  19.040  0.00  0.00    +0.000 NA
ATOM     15  H   UNL     1       4.520   6.395  18.392  0.00  0.00    +0.000 HD
BRANCH  14  16
ATOM     16  S   UNL     1       4.539   4.144  18.520  0.00  0.00    +0.000 S 
ATOM     17  O   UNL     1       3.285   3.525  18.149  0.00  0.00    +0.000 OA
ATOM     18  O   UNL     1       5.408   3.560  19.516  0.00  0.00    +0.000 OA
BRANCH  16  25
ATOM     19  C   UNL     1       7.541   5.309  18.317  0.00  0.00    +0.000 C 
ATOM     20  C   UNL     1       6.808   4.929  17.061  0.00  0.00    +0.000 A 
ATOM     21  C   UNL     1       7.462   5.128  15.832  0.00  0.00    +0.000 A 
ATOM     22  C   UNL     1       6.840   4.807  14.622  0.00  0.00    +0.000 A 
ATOM     23  C   UNL     1       5.553   4.283  14.615  0.00  0.00    +0.000 A 
ATOM     24  C   UNL     1       4.880   4.084  15.817  0.00  0.00    +0.000 A 
ATOM     25  C   UNL     1       5.497   4.407  17.037  0.00  0.00    +0.000 A 
ENDBRANCH  16  25
ENDBRANCH  14  16
ENDBRANCH   1  14
TORSDOF 5
ENDMDL
