MODEL 1
REMARK VINA RESULT:      -7.0      0.000      0.000
REMARK  Name = 
REMARK  6 active torsions:
REMARK  status: ('A' for Active; 'I' for Inactive)
REMARK    1  A    between atoms: C_2  and  C_3
REMARK    2  A    between atoms: C_3  and  N_4
REMARK    3  A    between atoms: C_5  and  S_6
REMARK    4  A    between atoms: S_6  and  C_7
REMARK    5  A    between atoms: C_16  and  C_17
REMARK    6  A    between atoms: C_18  and  C_19
REMARK                            x       y       z     vdW  Elec       q    Type
REMARK                         _______ _______ _______ _____ _____    ______ ____
ROOT
ATOM      1  N   UNL     1       5.952   4.649  17.739  0.00  0.00    +0.000 N 
ATOM      2  C   UNL     1       5.196   5.109  16.653  0.00  0.00    +0.000 A 
ATOM      3  N   UNL     1       3.913   4.982  16.542  0.00  0.00    +0.000 NA
ATOM      4  C   UNL     1       3.297   4.385  17.597  0.00  0.00    +0.000 A 
ATOM      5  S   UNL     1       1.607   4.217  17.659  0.00  0.00    +0.000 S 
ATOM      6  C   UNL     1       1.659   3.491  19.212  0.00  0.00    +0.000 A 
ATOM      7  C   UNL     1       0.381   3.131  19.899  0.00  0.00    +0.000 C 
ATOM      8  C   UNL     1       2.959   3.326  19.668  0.00  0.00    +0.000 A 
ATOM      9  C   UNL     1       3.345   2.695  20.973  0.00  0.00    +0.000 C 
ATOM     10  C   UNL     1       3.897   3.878  18.722  0.00  0.00    +0.000 A 
ATOM     11  C   UNL     1       5.340   3.981  18.814  0.00  0.00    +0.000 A 
ATOM     12  O   UNL     1       5.955   3.513  19.771  0.00  0.00    +0.000 OA
ENDROOT
BRANCH   1  13
ATOM     13  C   UNL     1       7.398   4.833  17.889  0.00  0.00    +0.000 C 
BRANCH  13  15
ATOM     14  C   UNL     1       7.890   7.292  18.169  0.00  0.00    +0.000 C 
ATOM     15  C   UNL     1       7.689   6.073  18.689  0.00  0.00    +0.000 C 
ENDBRANCH  13  15
ENDBRANCH   1  13
BRANCH   2  16
ATOM     16  S   UNL     1       6.061   5.903  15.344  0.00  0.00    +0.000 S 
BRANCH  16  17
ATOM     17  C   UNL     1       6.681   4.593  14.265  0.00  0.00    +0.000 C 
ATOM     18  C   UNL     1       5.649   3.699  13.618  0.00  0.00    +0.000 C 
ATOM     19  C   UNL     1       6.164   3.473  12.214  0.00  0.00    +0.000 C 
ATOM     20  O   UNL     1       7.369   4.218  12.055  0.00  0.00    +0.000 OA
ATOM     21  C   UNL     1       7.583   5.017  13.142  0.00  0.00    +0.000 C 
ATOM     22  O   UNL     1       8.486   5.837  13.206  0.00  0.00    +0.000 OA
ENDBRANCH  16  17
ENDBRANCH   2  16
TORSDOF 4
ENDMDL
MODEL 2
REMARK VINA RESULT:      -6.9      3.392      5.173
REMARK  Name = 
REMARK  6 active torsions:
REMARK  status: ('A' for Active; 'I' for Inactive)
REMARK    1  A    between atoms: C_2  and  C_3
REMARK    2  A    between atoms: C_3  and  N_4
REMARK    3  A    between atoms: C_5  and  S_6
REMARK    4  A    between atoms: S_6  and  C_7
REMARK    5  A    between atoms: C_16  and  C_17
REMARK    6  A    between atoms: C_18  and  C_19
REMARK                            x       y       z     vdW  Elec       q    Type
REMARK                         _______ _______ _______ _____ _____    ______ ____
ROOT
ATOM      1  N   UNL     1       3.079   4.909  19.402  0.00  0.00    +0.000 N 
ATOM      2  C   UNL     1       3.629   5.349  18.191  0.00  0.00    +0.000 A 
ATOM      3  N   UNL     1       3.424   6.516  17.670  0.00  0.00    +0.000 NA
ATOM      4  C   UNL     1       2.641   7.350  18.406  0.00  0.00    +0.000 A 
ATOM      5  S   UNL     1       2.341   8.949  17.917  0.00  0.00    +0.000 S 
ATOM      6  C   UNL     1       1.411   9.285  19.318  0.00  0.00    +0.000 A 
ATOM      7  C   UNL     1       0.864  10.661  19.525  0.00  0.00    +0.000 C 
ATOM      8  C   UNL     1       1.280   8.173  20.137  0.00  0.00    +0.000 A 
ATOM      9  C   UNL     1       0.504   8.129  21.420  0.00  0.00    +0.000 C 
ATOM     10  C   UNL     1       2.028   7.063  19.600  0.00  0.00    +0.000 A 
ATOM     11  C   UNL     1       2.224   5.736  20.151  0.00  0.00    +0.000 A 
ATOM     12  O   UNL     1       1.674   5.390  21.194  0.00  0.00    +0.000 OA
ENDROOT
BRANCH   1  13
ATOM     13  C   UNL     1       3.347   3.606  20.017  0.00  0.00    +0.000 C 
BRANCH  13  15
ATOM     14  C   UNL     1       1.473   2.630  18.637  0.00  0.00    +0.000 C 
ATOM     15  C   UNL     1       2.206   2.660  19.759  0.00  0.00    +0.000 C 
ENDBRANCH  13  15
ENDBRANCH   1  13
BRANCH   2  16
ATOM     16  S   UNL     1       4.661   4.226  17.315  0.00  0.00    +0.000 S 
BRANCH  16  17
ATOM     17  C   UNL     1       6.339   4.889  17.407  0.00  0.00    +0.000 C 
ATOM     18  C   UNL     1       6.700   5.970  16.416  0.00  0.00    +0.000 C 
ATOM     19  C   UNL     1       7.538   6.950  17.205  0.00  0.00    +0.000 C 
ATOM     20  O   UNL     1       7.610   6.491  18.553  0.00  0.00    +0.000 OA
ATOM     21  C   UNL     1       6.778   5.425  18.740  0.00  0.00    +0.000 C 
ATOM     22  O   UNL     1       6.570   4.918  19.831  0.00  0.00    +0.000 OA
ENDBRANCH  16  17
ENDBRANCH   2  16
TORSDOF 4
ENDMDL
MODEL 3
REMARK VINA RESULT:      -6.9      3.723      5.120
REMARK  Name = 
REMARK  6 active torsions:
REMARK  status: ('A' for Active; 'I' for Inactive)
REMARK    1  A    between atoms: C_2  and  C_3
REMARK    2  A    between atoms: C_3  and  N_4
REMARK    3  A    between atoms: C_5  and  S_6
REMARK    4  A    between atoms: S_6  and  C_7
REMARK    5  A    between atoms: C_16  and  C_17
REMARK    6  A    between atoms: C_18  and  C_19
REMARK                            x       y       z     vdW  Elec       q    Type
REMARK                         _______ _______ _______ _____ _____    ______ ____
ROOT
ATOM      1  N   UNL     1       2.730   5.355  19.360  0.00  0.00    +0.000 N 
ATOM      2  C   UNL     1       3.172   5.774  18.098  0.00  0.00    +0.000 A 
ATOM      3  N   UNL     1       2.969   6.951  17.600  0.00  0.00    +0.000 NA
ATOM      4  C   UNL     1       2.306   7.817  18.411  0.00  0.00    +0.000 A 
ATOM      5  S   UNL     1       2.033   9.430  17.953  0.00  0.00    +0.000 S 
ATOM      6  C   UNL     1       1.268   9.804  19.442  0.00  0.00    +0.000 A 
ATOM      7  C   UNL     1       0.811  11.204  19.703  0.00  0.00    +0.000 C 
ATOM      8  C   UNL     1       1.170   8.697  20.272  0.00  0.00    +0.000 A 
ATOM      9  C   UNL     1       0.529   8.685  21.628  0.00  0.00    +0.000 C 
ATOM     10  C   UNL     1       1.806   7.555  19.662  0.00  0.00    +0.000 A 
ATOM     11  C   UNL     1       1.995   6.219  20.192  0.00  0.00    +0.000 A 
ATOM     12  O   UNL     1       1.540   5.895  21.287  0.00  0.00    +0.000 OA
ENDROOT
BRANCH   1  13
ATOM     13  C   UNL     1       2.998   4.039  19.946  0.00  0.00    +0.000 C 
BRANCH  13  15
ATOM     14  C   UNL     1       1.298   2.583  18.780  0.00  0.00    +0.000 C 
ATOM     15  C   UNL     1       1.766   3.178  19.887  0.00  0.00    +0.000 C 
ENDBRANCH  13  15
ENDBRANCH   1  13
BRANCH   2  16
ATOM     16  S   UNL     1       4.054   4.607  17.123  0.00  0.00    +0.000 S 
BRANCH  16  17
ATOM     17  C   UNL     1       5.769   5.175  17.064  0.00  0.00    +0.000 C 
ATOM     18  C   UNL     1       6.480   5.332  18.387  0.00  0.00    +0.000 C 
ATOM     19  C   UNL     1       7.881   4.824  18.133  0.00  0.00    +0.000 C 
ATOM     20  O   UNL     1       7.952   4.368  16.783  0.00  0.00    +0.000 OA
ATOM     21  C   UNL     1       6.712   4.377  16.210  0.00  0.00    +0.000 C 
ATOM     22  O   UNL     1       6.483   3.927  15.099  0.00  0.00    +0.000 OA
ENDBRANCH  16  17
ENDBRANCH   2  16
TORSDOF 4
ENDMDL
MODEL 4
REMARK VINA RESULT:      -6.8      4.509      5.853
REMARK  Name = 
REMARK  6 active torsions:
REMARK  status: ('A' for Active; 'I' for Inactive)
REMARK    1  A    between atoms: C_2  and  C_3
REMARK    2  A    between atoms: C_3  and  N_4
REMARK    3  A    between atoms: C_5  and  S_6
REMARK    4  A    between atoms: S_6  and  C_7
REMARK    5  A    between atoms: C_16  and  C_17
REMARK    6  A    between atoms: C_18  and  C_19
REMARK                            x       y       z     vdW  Elec       q    Type
REMARK                         _______ _______ _______ _____ _____    ______ ____
ROOT
ATOM      1  N   UNL     1       2.223   6.456  19.849  0.00  0.00    +0.000 N 
ATOM      2  C   UNL     1       2.763   6.665  18.572  0.00  0.00    +0.000 A 
ATOM      3  N   UNL     1       2.673   7.770  17.906  0.00  0.00    +0.000 NA
ATOM      4  C   UNL     1       2.028   8.782  18.547  0.00  0.00    +0.000 A 
ATOM      5  S   UNL     1       1.896  10.328  17.857  0.00  0.00    +0.000 S 
ATOM      6  C   UNL     1       1.079  10.955  19.228  0.00  0.00    +0.000 A 
ATOM      7  C   UNL     1       0.708  12.403  19.265  0.00  0.00    +0.000 C 
ATOM      8  C   UNL     1       0.857   9.984  20.193  0.00  0.00    +0.000 A 
ATOM      9  C   UNL     1       0.142  10.202  21.493  0.00  0.00    +0.000 C 
ATOM     10  C   UNL     1       1.443   8.730  19.787  0.00  0.00    +0.000 A 
ATOM     11  C   UNL     1       1.507   7.472  20.505  0.00  0.00    +0.000 A 
ATOM     12  O   UNL     1       0.970   7.334  21.602  0.00  0.00    +0.000 OA
ENDROOT
BRANCH   1  13
ATOM     13  C   UNL     1       2.364   5.221  20.624  0.00  0.00    +0.000 C 
BRANCH  13  15
ATOM     14  C   UNL     1       1.192   2.988  20.536  0.00  0.00    +0.000 C 
ATOM     15  C   UNL     1       1.180   4.321  20.397  0.00  0.00    +0.000 C 
ENDBRANCH  13  15
ENDBRANCH   1  13
BRANCH   2  16
ATOM     16  S   UNL     1       3.613   5.319  17.824  0.00  0.00    +0.000 S 
BRANCH  16  17
ATOM     17  C   UNL     1       5.367   5.754  17.822  0.00  0.00    +0.000 C 
ATOM     18  C   UNL     1       6.312   4.775  18.478  0.00  0.00    +0.000 C 
ATOM     19  C   UNL     1       7.529   4.757  17.581  0.00  0.00    +0.000 C 
ATOM     20  O   UNL     1       7.280   5.620  16.474  0.00  0.00    +0.000 OA
ATOM     21  C   UNL     1       5.984   6.050  16.485  0.00  0.00    +0.000 C 
ATOM     22  O   UNL     1       5.487   6.708  15.585  0.00  0.00    +0.000 OA
ENDBRANCH  16  17
ENDBRANCH   2  16
TORSDOF 4
ENDMDL
MODEL 5
REMARK VINA RESULT:      -6.6      3.974      6.273
REMARK  Name = 
REMARK  6 active torsions:
REMARK  status: ('A' for Active; 'I' for Inactive)
REMARK    1  A    between atoms: C_2  and  C_3
REMARK    2  A    between atoms: C_3  and  N_4
REMARK    3  A    between atoms: C_5  and  S_6
REMARK    4  A    between atoms: S_6  and  C_7
REMARK    5  A    between atoms: C_16  and  C_17
REMARK    6  A    between atoms: C_18  and  C_19
REMARK                            x       y       z     vdW  Elec       q    Type
REMARK                         _______ _______ _______ _____ _____    ______ ____
ROOT
ATOM      1  N   UNL     1       3.732   6.305  17.941  0.00  0.00    +0.000 N 
ATOM      2  C   UNL     1       3.542   5.583  19.128  0.00  0.00    +0.000 A 
ATOM      3  N   UNL     1       2.828   5.986  20.128  0.00  0.00    +0.000 NA
ATOM      4  C   UNL     1       2.210   7.185  19.954  0.00  0.00    +0.000 A 
ATOM      5  S   UNL     1       1.162   7.824  21.129  0.00  0.00    +0.000 S 
ATOM      6  C   UNL     1       0.797   9.197  20.168  0.00  0.00    +0.000 A 
ATOM      7  C   UNL     1      -0.196  10.199  20.665  0.00  0.00    +0.000 C 
ATOM      8  C   UNL     1       1.507   9.204  18.976  0.00  0.00    +0.000 A 
ATOM      9  C   UNL     1       1.436  10.279  17.933  0.00  0.00    +0.000 C 
ATOM     10  C   UNL     1       2.304   8.008  18.859  0.00  0.00    +0.000 A 
ATOM     11  C   UNL     1       3.146   7.570  17.763  0.00  0.00    +0.000 A 
ATOM     12  O   UNL     1       3.314   8.270  16.767  0.00  0.00    +0.000 OA
ENDROOT
BRANCH   1  13
ATOM     13  C   UNL     1       4.502   5.830  16.789  0.00  0.00    +0.000 C 
BRANCH  13  15
ATOM     14  C   UNL     1       7.010   5.549  16.777  0.00  0.00    +0.000 C 
ATOM     15  C   UNL     1       5.921   6.325  16.866  0.00  0.00    +0.000 C 
ENDBRANCH  13  15
ENDBRANCH   1  13
BRANCH   2  16
ATOM     16  S   UNL     1       4.345   4.025  19.264  0.00  0.00    +0.000 S 
BRANCH  16  17
ATOM     17  C   UNL     1       3.084   2.838  19.781  0.00  0.00    +0.000 C 
ATOM     18  C   UNL     1       2.722   2.825  21.248  0.00  0.00    +0.000 C 
ATOM     19  C   UNL     1       1.223   2.635  21.272  0.00  0.00    +0.000 C 
ATOM     20  O   UNL     1       0.757   2.592  19.925  0.00  0.00    +0.000 OA
ATOM     21  C   UNL     1       1.769   2.898  19.060  0.00  0.00    +0.000 C 
ATOM     22  O   UNL     1       1.605   3.040  17.858  0.00  0.00    +0.000 OA
ENDBRANCH  16  17
ENDBRANCH   2  16
TORSDOF 4
ENDMDL
MODEL 6
REMARK VINA RESULT:      -6.6      5.239      7.367
REMARK  Name = 
REMARK  6 active torsions:
REMARK  status: ('A' for Active; 'I' for Inactive)
REMARK    1  A    between atoms: C_2  and  C_3
REMARK    2  A    between atoms: C_3  and  N_4
REMARK    3  A    between atoms: C_5  and  S_6
REMARK    4  A    between atoms: S_6  and  C_7
REMARK    5  A    between atoms: C_16  and  C_17
REMARK    6  A    between atoms: C_18  and  C_19
REMARK                            x       y       z     vdW  Elec       q    Type
REMARK                         _______ _______ _______ _____ _____    ______ ____
ROOT
ATOM      1  N   UNL     1       2.248   7.691  18.724  0.00  0.00    +0.000 N 
ATOM      2  C   UNL     1       2.181   7.051  19.969  0.00  0.00    +0.000 A 
ATOM      3  N   UNL     1       1.617   7.547  21.022  0.00  0.00    +0.000 NA
ATOM      4  C   UNL     1       1.032   8.763  20.848  0.00  0.00    +0.000 A 
ATOM      5  S   UNL     1       0.169   9.520  22.100  0.00  0.00    +0.000 S 
ATOM      6  C   UNL     1      -0.257  10.851  21.105  0.00  0.00    +0.000 A 
ATOM      7  C   UNL     1      -1.137  11.928  21.655  0.00  0.00    +0.000 C 
ATOM      8  C   UNL     1       0.294  10.752  19.836  0.00  0.00    +0.000 A 
ATOM      9  C   UNL     1       0.136  11.766  18.742  0.00  0.00    +0.000 C 
ATOM     10  C   UNL     1       1.020   9.513  19.699  0.00  0.00    +0.000 A 
ATOM     11  C   UNL     1       1.698   8.970  18.538  0.00  0.00    +0.000 A 
ATOM     12  O   UNL     1       1.767   9.602  17.485  0.00  0.00    +0.000 OA
ENDROOT
BRANCH   1  13
ATOM     13  C   UNL     1       2.845   7.111  17.517  0.00  0.00    +0.000 C 
BRANCH  13  15
ATOM     14  C   UNL     1       5.206   6.640  16.759  0.00  0.00    +0.000 C 
ATOM     15  C   UNL     1       4.335   7.321  17.517  0.00  0.00    +0.000 C 
ENDBRANCH  13  15
ENDBRANCH   1  13
BRANCH   2  16
ATOM     16  S   UNL     1       2.929   5.465  20.105  0.00  0.00    +0.000 S 
BRANCH  16  17
ATOM     17  C   UNL     1       1.603   4.252  19.927  0.00  0.00    +0.000 C 
ATOM     18  C   UNL     1       1.351   3.715  18.537  0.00  0.00    +0.000 C 
ATOM     19  C   UNL     1       1.066   2.245  18.739  0.00  0.00    +0.000 C 
ATOM     20  O   UNL     1       1.192   1.952  20.129  0.00  0.00    +0.000 OA
ATOM     21  C   UNL     1       1.685   3.033  20.802  0.00  0.00    +0.000 C 
ATOM     22  O   UNL     1       1.992   3.006  21.983  0.00  0.00    +0.000 OA
ENDBRANCH  16  17
ENDBRANCH   2  16
TORSDOF 4
ENDMDL
MODEL 7
REMARK VINA RESULT:      -6.6      2.000      2.388
REMARK  Name = 
REMARK  6 active torsions:
REMARK  status: ('A' for Active; 'I' for Inactive)
REMARK    1  A    between atoms: C_2  and  C_3
REMARK    2  A    between atoms: C_3  and  N_4
REMARK    3  A    between atoms: C_5  and  S_6
REMARK    4  A    between atoms: S_6  and  C_7
REMARK    5  A    between atoms: C_16  and  C_17
REMARK    6  A    between atoms: C_18  and  C_19
REMARK                            x       y       z     vdW  Elec       q    Type
REMARK                         _______ _______ _______ _____ _____    ______ ____
ROOT
ATOM      1  N   UNL     1       5.175   5.831  17.922  0.00  0.00    +0.000 N 
ATOM      2  C   UNL     1       5.966   4.683  18.062  0.00  0.00    +0.000 A 
ATOM      3  N   UNL     1       5.677   3.680  18.827  0.00  0.00    +0.000 NA
ATOM      4  C   UNL     1       4.497   3.780  19.495  0.00  0.00    +0.000 A 
ATOM      5  S   UNL     1       3.919   2.517  20.472  0.00  0.00    +0.000 S 
ATOM      6  C   UNL     1       2.474   3.362  20.844  0.00  0.00    +0.000 A 
ATOM      7  C   UNL     1       1.434   2.702  21.692  0.00  0.00    +0.000 C 
ATOM      8  C   UNL     1       2.445   4.625  20.271  0.00  0.00    +0.000 A 
ATOM      9  C   UNL     1       1.336   5.623  20.430  0.00  0.00    +0.000 C 
ATOM     10  C   UNL     1       3.623   4.838  19.466  0.00  0.00    +0.000 A 
ATOM     11  C   UNL     1       3.978   5.978  18.644  0.00  0.00    +0.000 A 
ATOM     12  O   UNL     1       3.268   6.980  18.599  0.00  0.00    +0.000 OA
ENDROOT
BRANCH   1  13
ATOM     13  C   UNL     1       5.476   6.948  17.021  0.00  0.00    +0.000 C 
BRANCH  13  15
ATOM     14  C   UNL     1       7.730   7.973  17.507  0.00  0.00    +0.000 C 
ATOM     15  C   UNL     1       6.403   7.926  17.690  0.00  0.00    +0.000 C 
ENDBRANCH  13  15
ENDBRANCH   1  13
BRANCH   2  16
ATOM     16  S   UNL     1       7.461   4.612  17.139  0.00  0.00    +0.000 S 
BRANCH  16  17
ATOM     17  C   UNL     1       7.025   3.990  15.499  0.00  0.00    +0.000 C 
ATOM     18  C   UNL     1       5.625   3.451  15.325  0.00  0.00    +0.000 C 
ATOM     19  C   UNL     1       5.195   3.933  13.959  0.00  0.00    +0.000 C 
ATOM     20  O   UNL     1       6.247   4.727  13.414  0.00  0.00    +0.000 OA
ATOM     21  C   UNL     1       7.221   4.935  14.348  0.00  0.00    +0.000 C 
ATOM     22  O   UNL     1       8.175   5.676  14.171  0.00  0.00    +0.000 OA
ENDBRANCH  16  17
ENDBRANCH   2  16
TORSDOF 4
ENDMDL
MODEL 8
REMARK VINA RESULT:      -6.5      4.190      5.490
REMARK  Name = 
REMARK  6 active torsions:
REMARK  status: ('A' for Active; 'I' for Inactive)
REMARK    1  A    between atoms: C_2  and  C_3
REMARK    2  A    between atoms: C_3  and  N_4
REMARK    3  A    between atoms: C_5  and  S_6
REMARK    4  A    between atoms: S_6  and  C_7
REMARK    5  A    between atoms: C_16  and  C_17
REMARK    6  A    between atoms: C_18  and  C_19
REMARK                            x       y       z     vdW  Elec       q    Type
REMARK                         _______ _______ _______ _____ _____    ______ ____
ROOT
ATOM      1  N   UNL     1       2.519   6.082  19.567  0.00  0.00    +0.000 N 
ATOM      2  C   UNL     1       2.988   6.445  18.297  0.00  0.00    +0.000 A 
ATOM      3  N   UNL     1       2.781   7.591  17.735  0.00  0.00    +0.000 NA
ATOM      4  C   UNL     1       2.082   8.486  18.483  0.00  0.00    +0.000 A 
ATOM      5  S   UNL     1       1.796  10.069  17.938  0.00  0.00    +0.000 S 
ATOM      6  C   UNL     1       0.987  10.504  19.386  0.00  0.00    +0.000 A 
ATOM      7  C   UNL     1       0.500  11.907  19.563  0.00  0.00    +0.000 C 
ATOM      8  C   UNL     1       0.884   9.438  20.268  0.00  0.00    +0.000 A 
ATOM      9  C   UNL     1       0.206   9.483  21.605  0.00  0.00    +0.000 C 
ATOM     10  C   UNL     1       1.553   8.278  19.733  0.00  0.00    +0.000 A 
ATOM     11  C   UNL     1       1.749   6.974  20.334  0.00  0.00    +0.000 A 
ATOM     12  O   UNL     1       1.269   6.697  21.432  0.00  0.00    +0.000 OA
ENDROOT
BRANCH   1  13
ATOM     13  C   UNL     1       2.792   4.802  20.225  0.00  0.00    +0.000 C 
BRANCH  13  15
ATOM     14  C   UNL     1       1.234   2.964  20.976  0.00  0.00    +0.000 C 
ATOM     15  C   UNL     1       1.619   3.872  20.068  0.00  0.00    +0.000 C 
ENDBRANCH  13  15
ENDBRANCH   1  13
BRANCH   2  16
ATOM     16  S   UNL     1       3.915   5.245  17.405  0.00  0.00    +0.000 S 
BRANCH  16  17
ATOM     17  C   UNL     1       5.276   6.130  16.612  0.00  0.00    +0.000 C 
ATOM     18  C   UNL     1       6.077   7.070  17.483  0.00  0.00    +0.000 C 
ATOM     19  C   UNL     1       7.509   6.876  17.042  0.00  0.00    +0.000 C 
ATOM     20  O   UNL     1       7.533   5.869  16.032  0.00  0.00    +0.000 OA
ATOM     21  C   UNL     1       6.302   5.292  15.905  0.00  0.00    +0.000 C 
ATOM     22  O   UNL     1       6.083   4.327  15.189  0.00  0.00    +0.000 OA
ENDBRANCH  16  17
ENDBRANCH   2  16
TORSDOF 4
ENDMDL
MODEL 9
REMARK VINA RESULT:      -6.1      3.357      4.601
REMARK  Name = 
REMARK  6 active torsions:
REMARK  status: ('A' for Active; 'I' for Inactive)
REMARK    1  A    between atoms: C_2  and  C_3
REMARK    2  A    between atoms: C_3  and  N_4
REMARK    3  A    between atoms: C_5  and  S_6
REMARK    4  A    between atoms: S_6  and  C_7
REMARK    5  A    between atoms: C_16  and  C_17
REMARK    6  A    between atoms: C_18  and  C_19
REMARK                            x       y       z     vdW  Elec       q    Type
REMARK                         _______ _______ _______ _____ _____    ______ ____
ROOT
ATOM      1  N   UNL     1       2.943   4.840  19.258  0.00  0.00    +0.000 N 
ATOM      2  C   UNL     1       3.312   5.253  17.970  0.00  0.00    +0.000 A 
ATOM      3  N   UNL     1       3.076   6.425  17.477  0.00  0.00    +0.000 NA
ATOM      4  C   UNL     1       2.454   7.294  18.318  0.00  0.00    +0.000 A 
ATOM      5  S   UNL     1       2.148   8.903  17.866  0.00  0.00    +0.000 S 
ATOM      6  C   UNL     1       1.466   9.283  19.393  0.00  0.00    +0.000 A 
ATOM      7  C   UNL     1       1.017  10.682  19.670  0.00  0.00    +0.000 C 
ATOM      8  C   UNL     1       1.421   8.181  20.235  0.00  0.00    +0.000 A 
ATOM      9  C   UNL     1       0.856   8.174  21.624  0.00  0.00    +0.000 C 
ATOM     10  C   UNL     1       2.027   7.038  19.597  0.00  0.00    +0.000 A 
ATOM     11  C   UNL     1       2.252   5.706  20.124  0.00  0.00    +0.000 A 
ATOM     12  O   UNL     1       1.860   5.387  21.244  0.00  0.00    +0.000 OA
ENDROOT
BRANCH   1  13
ATOM     13  C   UNL     1       3.250   3.529  19.835  0.00  0.00    +0.000 C 
BRANCH  13  15
ATOM     14  C   UNL     1       1.290   2.305  18.821  0.00  0.00    +0.000 C 
ATOM     15  C   UNL     1       2.012   2.676  19.888  0.00  0.00    +0.000 C 
ENDBRANCH  13  15
ENDBRANCH   1  13
BRANCH   2  16
ATOM     16  S   UNL     1       4.144   4.083  16.954  0.00  0.00    +0.000 S 
BRANCH  16  17
ATOM     17  C   UNL     1       5.364   5.009  15.995  0.00  0.00    +0.000 C 
ATOM     18  C   UNL     1       6.694   5.274  16.660  0.00  0.00    +0.000 C 
ATOM     19  C   UNL     1       7.716   5.088  15.561  0.00  0.00    +0.000 C 
ATOM     20  O   UNL     1       7.029   4.700  14.374  0.00  0.00    +0.000 OA
ATOM     21  C   UNL     1       5.711   4.460  14.641  0.00  0.00    +0.000 C 
ATOM     22  O   UNL     1       4.931   4.006  13.819  0.00  0.00    +0.000 OA
ENDBRANCH  16  17
ENDBRANCH   2  16
TORSDOF 4
ENDMDL
