MODEL 1
REMARK VINA RESULT:      -6.7      0.000      0.000
REMARK  Name = 
REMARK  3 active torsions:
REMARK  status: ('A' for Active; 'I' for Inactive)
REMARK    1  A    between atoms: C_2  and  C_12
REMARK    2  A    between atoms: N_3  and  N_4
REMARK    3  A    between atoms: C_5  and  C_7
REMARK                            x       y       z     vdW  Elec       q    Type
REMARK                         _______ _______ _______ _____ _____    ______ ____
ROOT
ATOM      1  O   UNL     1       1.891   8.403  19.226  0.00  0.00    +0.000 OA
ATOM      2  C   UNL     1       1.516   8.196  20.373  0.00  0.00    +0.000 C 
ATOM      3  N   UNL     1       1.861   7.063  21.092  0.00  0.00    +0.000 N 
ATOM      4  H   UNL     1       1.362   6.758  21.925  0.00  0.00    +0.000 HD
ENDROOT
BRANCH   2   5
ATOM      5  C   UNL     1       0.636   9.182  21.062  0.00  0.00    +0.000 A 
ATOM      6  C   UNL     1       0.118  10.252  20.315  0.00  0.00    +0.000 A 
ATOM      7  C   UNL     1      -0.705  11.205  20.922  0.00  0.00    +0.000 A 
ATOM      8  C   UNL     1      -0.993  11.101  22.282  0.00  0.00    +0.000 A 
ATOM      9 BR   UNL     1      -2.106  12.388  23.107  0.00  0.00    +0.000 Br
ATOM     10  C   UNL     1      -0.458  10.058  23.041  0.00  0.00    +0.000 A 
ATOM     11  C   UNL     1       0.357   9.098  22.431  0.00  0.00    +0.000 A 
ENDBRANCH   2   5
BRANCH   3  12
ATOM     12  N   UNL     1       2.647   6.096  20.447  0.00  0.00    +0.000 N 
ATOM     13  C   UNL     1       2.140   4.821  20.239  0.00  0.00    +0.000 C 
ATOM     14  O   UNL     1       1.004   4.488  20.559  0.00  0.00    +0.000 OA
ATOM     15  H   UNL     1       3.656   6.254  20.424  0.00  0.00    +0.000 HD
BRANCH  13  16
ATOM     16  C   UNL     1       3.116   3.922  19.450  0.00  0.00    +0.000 C 
ATOM     17  C   UNL     1       3.544   4.479  18.098  0.00  0.00    +0.000 C 
ATOM     18  C   UNL     1       3.715   3.229  17.265  0.00  0.00    +0.000 C 
ATOM     19  C   UNL     1       2.625   2.338  17.809  0.00  0.00    +0.000 C 
ATOM     20  O   UNL     1       2.534   2.625  19.207  0.00  0.00    +0.000 OA
ENDBRANCH  13  16
ENDBRANCH   3  12
TORSDOF 3
ENDMDL
MODEL 2
REMARK VINA RESULT:      -6.7      0.181      1.155
REMARK  Name = 
REMARK  3 active torsions:
REMARK  status: ('A' for Active; 'I' for Inactive)
REMARK    1  A    between atoms: C_2  and  C_12
REMARK    2  A    between atoms: N_3  and  N_4
REMARK    3  A    between atoms: C_5  and  C_7
REMARK                            x       y       z     vdW  Elec       q    Type
REMARK                         _______ _______ _______ _____ _____    ______ ____
ROOT
ATOM      1  O   UNL     1       1.812   8.557  19.111  0.00  0.00    +0.000 OA
ATOM      2  C   UNL     1       1.454   8.366  20.266  0.00  0.00    +0.000 C 
ATOM      3  N   UNL     1       1.816   7.246  20.998  0.00  0.00    +0.000 N 
ATOM      4  H   UNL     1       1.331   6.951  21.843  0.00  0.00    +0.000 HD
ENDROOT
BRANCH   2   5
ATOM      5  C   UNL     1       0.576   9.356  20.951  0.00  0.00    +0.000 A 
ATOM      6  C   UNL     1       0.285   9.163  22.311  0.00  0.00    +0.000 A 
ATOM      7  C   UNL     1      -0.543  10.061  22.991  0.00  0.00    +0.000 A 
ATOM      8  C   UNL     1      -1.096  11.142  22.308  0.00  0.00    +0.000 A 
ATOM      9 BR   UNL     1      -2.214  12.361  23.225  0.00  0.00    +0.000 Br
ATOM     10  C   UNL     1      -0.837  11.327  20.948  0.00  0.00    +0.000 A 
ATOM     11  C   UNL     1      -0.001  10.433  20.269  0.00  0.00    +0.000 A 
ENDBRANCH   2   5
BRANCH   3  12
ATOM     12  N   UNL     1       2.601   6.275  20.358  0.00  0.00    +0.000 N 
ATOM     13  C   UNL     1       2.124   4.978  20.228  0.00  0.00    +0.000 C 
ATOM     14  O   UNL     1       1.015   4.627  20.615  0.00  0.00    +0.000 OA
ATOM     15  H   UNL     1       3.602   6.460  20.281  0.00  0.00    +0.000 HD
BRANCH  13  16
ATOM     16  C   UNL     1       3.089   4.073  19.432  0.00  0.00    +0.000 C 
ATOM     17  C   UNL     1       3.357   4.530  18.003  0.00  0.00    +0.000 C 
ATOM     18  C   UNL     1       3.544   3.222  17.269  0.00  0.00    +0.000 C 
ATOM     19  C   UNL     1       2.572   2.318  17.986  0.00  0.00    +0.000 C 
ATOM     20  O   UNL     1       2.582   2.726  19.357  0.00  0.00    +0.000 OA
ENDBRANCH  13  16
ENDBRANCH   3  12
TORSDOF 3
ENDMDL
MODEL 3
REMARK VINA RESULT:      -6.7      7.004      7.768
REMARK  Name = 
REMARK  3 active torsions:
REMARK  status: ('A' for Active; 'I' for Inactive)
REMARK    1  A    between atoms: C_2  and  C_12
REMARK    2  A    between atoms: N_3  and  N_4
REMARK    3  A    between atoms: C_5  and  C_7
REMARK                            x       y       z     vdW  Elec       q    Type
REMARK                         _______ _______ _______ _____ _____    ______ ____
ROOT
ATOM      1  O   UNL     1       7.438   9.100  17.155  0.00  0.00    +0.000 OA
ATOM      2  C   UNL     1       8.199   8.984  18.108  0.00  0.00    +0.000 C 
ATOM      3  N   UNL     1       8.478   7.769  18.713  0.00  0.00    +0.000 N 
ATOM      4  H   UNL     1       8.891   7.689  19.640  0.00  0.00    +0.000 HD
ENDROOT
BRANCH   2   5
ATOM      5  C   UNL     1       8.869  10.185  18.682  0.00  0.00    +0.000 A 
ATOM      6  C   UNL     1       9.065  11.301  17.853  0.00  0.00    +0.000 A 
ATOM      7  C   UNL     1       9.697  12.446  18.348  0.00  0.00    +0.000 A 
ATOM      8  C   UNL     1      10.153  12.468  19.664  0.00  0.00    +0.000 A 
ATOM      9 BR   UNL     1      11.007  14.015  20.337  0.00  0.00    +0.000 Br
ATOM     10  C   UNL     1       9.990  11.352  20.488  0.00  0.00    +0.000 A 
ATOM     11  C   UNL     1       9.348  10.210  19.997  0.00  0.00    +0.000 A 
ENDBRANCH   2   5
BRANCH   3  12
ATOM     12  N   UNL     1       7.821   6.630  18.222  0.00  0.00    +0.000 N 
ATOM     13  C   UNL     1       7.507   5.589  19.085  0.00  0.00    +0.000 C 
ATOM     14  O   UNL     1       7.741   5.619  20.288  0.00  0.00    +0.000 OA
ATOM     15  H   UNL     1       7.864   6.463  17.216  0.00  0.00    +0.000 HD
BRANCH  13  16
ATOM     16  C   UNL     1       6.720   4.462  18.384  0.00  0.00    +0.000 C 
ATOM     17  C   UNL     1       6.100   4.852  17.048  0.00  0.00    +0.000 C 
ATOM     18  C   UNL     1       4.834   4.027  17.018  0.00  0.00    +0.000 C 
ATOM     19  C   UNL     1       4.432   4.016  18.473  0.00  0.00    +0.000 C 
ATOM     20  O   UNL     1       5.649   3.986  19.223  0.00  0.00    +0.000 OA
ENDBRANCH  13  16
ENDBRANCH   3  12
TORSDOF 3
ENDMDL
MODEL 4
REMARK VINA RESULT:      -6.6      6.914      7.771
REMARK  Name = 
REMARK  3 active torsions:
REMARK  status: ('A' for Active; 'I' for Inactive)
REMARK    1  A    between atoms: C_2  and  C_12
REMARK    2  A    between atoms: N_3  and  N_4
REMARK    3  A    between atoms: C_5  and  C_7
REMARK                            x       y       z     vdW  Elec       q    Type
REMARK                         _______ _______ _______ _____ _____    ______ ____
ROOT
ATOM      1  O   UNL     1       7.279   9.043  17.103  0.00  0.00    +0.000 OA
ATOM      2  C   UNL     1       8.091   8.933  18.013  0.00  0.00    +0.000 C 
ATOM      3  N   UNL     1       8.409   7.722  18.606  0.00  0.00    +0.000 N 
ATOM      4  H   UNL     1       8.872   7.647  19.509  0.00  0.00    +0.000 HD
ENDROOT
BRANCH   2   5
ATOM      5  C   UNL     1       8.787  10.139  18.545  0.00  0.00    +0.000 A 
ATOM      6  C   UNL     1       9.324  10.084  19.841  0.00  0.00    +0.000 A 
ATOM      7  C   UNL     1       9.976  11.195  20.383  0.00  0.00    +0.000 A 
ATOM      8  C   UNL     1      10.074  12.369  19.639  0.00  0.00    +0.000 A 
ATOM      9 BR   UNL     1      10.957  13.873  20.369  0.00  0.00    +0.000 Br
ATOM     10  C   UNL     1       9.517  12.444  18.361  0.00  0.00    +0.000 A 
ATOM     11  C   UNL     1       8.873  11.329  17.813  0.00  0.00    +0.000 A 
ENDBRANCH   2   5
BRANCH   3  12
ATOM     12  N   UNL     1       7.730   6.579  18.157  0.00  0.00    +0.000 N 
ATOM     13  C   UNL     1       7.385   5.582  19.059  0.00  0.00    +0.000 C 
ATOM     14  O   UNL     1       7.609   5.656  20.262  0.00  0.00    +0.000 OA
ATOM     15  H   UNL     1       7.778   6.368  17.159  0.00  0.00    +0.000 HD
BRANCH  13  16
ATOM     16  C   UNL     1       6.579   4.443  18.398  0.00  0.00    +0.000 C 
ATOM     17  C   UNL     1       5.733   4.871  17.205  0.00  0.00    +0.000 C 
ATOM     18  C   UNL     1       4.538   3.950  17.301  0.00  0.00    +0.000 C 
ATOM     19  C   UNL     1       4.369   3.810  18.794  0.00  0.00    +0.000 C 
ATOM     20  O   UNL     1       5.687   3.828  19.349  0.00  0.00    +0.000 OA
ENDBRANCH  13  16
ENDBRANCH   3  12
TORSDOF 3
ENDMDL
MODEL 5
REMARK VINA RESULT:      -6.4      3.883      7.725
REMARK  Name = 
REMARK  3 active torsions:
REMARK  status: ('A' for Active; 'I' for Inactive)
REMARK    1  A    between atoms: C_2  and  C_12
REMARK    2  A    between atoms: N_3  and  N_4
REMARK    3  A    between atoms: C_5  and  C_7
REMARK                            x       y       z     vdW  Elec       q    Type
REMARK                         _______ _______ _______ _____ _____    ______ ____
ROOT
ATOM      1  O   UNL     1       2.054   5.759  19.842  0.00  0.00    +0.000 OA
ATOM      2  C   UNL     1       2.566   6.534  19.043  0.00  0.00    +0.000 C 
ATOM      3  N   UNL     1       2.294   7.893  19.022  0.00  0.00    +0.000 N 
ATOM      4  H   UNL     1       2.502   8.491  18.226  0.00  0.00    +0.000 HD
ENDROOT
BRANCH   2   5
ATOM      5  C   UNL     1       3.524   6.029  18.020  0.00  0.00    +0.000 A 
ATOM      6  C   UNL     1       4.285   6.962  17.299  0.00  0.00    +0.000 A 
ATOM      7  C   UNL     1       5.189   6.533  16.322  0.00  0.00    +0.000 A 
ATOM      8  C   UNL     1       5.317   5.173  16.051  0.00  0.00    +0.000 A 
ATOM      9 BR   UNL     1       6.541   4.589  14.732  0.00  0.00    +0.000 Br
ATOM     10  C   UNL     1       4.543   4.238  16.741  0.00  0.00    +0.000 A 
ATOM     11  C   UNL     1       3.645   4.665  17.726  0.00  0.00    +0.000 A 
ENDBRANCH   2   5
BRANCH   3  12
ATOM     12  N   UNL     1       1.357   8.384  19.944  0.00  0.00    +0.000 N 
ATOM     13  C   UNL     1       0.650   9.544  19.657  0.00  0.00    +0.000 C 
ATOM     14  O   UNL     1       0.769  10.161  18.604  0.00  0.00    +0.000 OA
ATOM     15  H   UNL     1       1.438   8.062  20.909  0.00  0.00    +0.000 HD
BRANCH  13  16
ATOM     16  C   UNL     1      -0.386   9.886  20.748  0.00  0.00    +0.000 C 
ATOM     17  C   UNL     1      -0.220  11.264  21.376  0.00  0.00    +0.000 C 
ATOM     18  C   UNL     1      -0.675  11.036  22.799  0.00  0.00    +0.000 C 
ATOM     19  C   UNL     1      -0.199   9.628  23.059  0.00  0.00    +0.000 C 
ATOM     20  O   UNL     1      -0.336   8.925  21.821  0.00  0.00    +0.000 OA
ENDBRANCH  13  16
ENDBRANCH   3  12
TORSDOF 3
ENDMDL
MODEL 6
REMARK VINA RESULT:      -6.4      3.940      7.786
REMARK  Name = 
REMARK  3 active torsions:
REMARK  status: ('A' for Active; 'I' for Inactive)
REMARK    1  A    between atoms: C_2  and  C_12
REMARK    2  A    between atoms: N_3  and  N_4
REMARK    3  A    between atoms: C_5  and  C_7
REMARK                            x       y       z     vdW  Elec       q    Type
REMARK                         _______ _______ _______ _____ _____    ______ ____
ROOT
ATOM      1  O   UNL     1       2.238   5.893  19.820  0.00  0.00    +0.000 OA
ATOM      2  C   UNL     1       2.646   6.628  18.930  0.00  0.00    +0.000 C 
ATOM      3  N   UNL     1       2.291   7.964  18.826  0.00  0.00    +0.000 N 
ATOM      4  H   UNL     1       2.407   8.507  17.974  0.00  0.00    +0.000 HD
ENDROOT
BRANCH   2   5
ATOM      5  C   UNL     1       3.561   6.097  17.881  0.00  0.00    +0.000 A 
ATOM      6  C   UNL     1       3.591   4.711  17.659  0.00  0.00    +0.000 A 
ATOM      7  C   UNL     1       4.441   4.169  16.691  0.00  0.00    +0.000 A 
ATOM      8  C   UNL     1       5.278   5.009  15.960  0.00  0.00    +0.000 A 
ATOM      9 BR   UNL     1       6.429   4.278  14.648  0.00  0.00    +0.000 Br
ATOM     10  C   UNL     1       5.279   6.385  16.194  0.00  0.00    +0.000 A 
ATOM     11  C   UNL     1       4.421   6.931  17.155  0.00  0.00    +0.000 A 
ENDBRANCH   2   5
BRANCH   3  12
ATOM     12  N   UNL     1       1.390   8.474  19.773  0.00  0.00    +0.000 N 
ATOM     13  C   UNL     1       0.578   9.551  19.443  0.00  0.00    +0.000 C 
ATOM     14  O   UNL     1       0.573  10.074  18.334  0.00  0.00    +0.000 OA
ATOM     15  H   UNL     1       1.566   8.250  20.754  0.00  0.00    +0.000 HD
BRANCH  13  16
ATOM     16  C   UNL     1      -0.397   9.922  20.580  0.00  0.00    +0.000 C 
ATOM     17  C   UNL     1      -0.045  11.201  21.330  0.00  0.00    +0.000 C 
ATOM     18  C   UNL     1      -0.519  10.902  22.734  0.00  0.00    +0.000 C 
ATOM     19  C   UNL     1      -0.233   9.425  22.853  0.00  0.00    +0.000 C 
ATOM     20  O   UNL     1      -0.469   8.866  21.559  0.00  0.00    +0.000 OA
ENDBRANCH  13  16
ENDBRANCH   3  12
TORSDOF 3
ENDMDL
MODEL 7
REMARK VINA RESULT:      -6.3      4.197      5.547
REMARK  Name = 
REMARK  3 active torsions:
REMARK  status: ('A' for Active; 'I' for Inactive)
REMARK    1  A    between atoms: C_2  and  C_12
REMARK    2  A    between atoms: N_3  and  N_4
REMARK    3  A    between atoms: C_5  and  C_7
REMARK                            x       y       z     vdW  Elec       q    Type
REMARK                         _______ _______ _______ _____ _____    ______ ____
ROOT
ATOM      1  O   UNL     1       3.287   4.259  17.261  0.00  0.00    +0.000 OA
ATOM      2  C   UNL     1       3.563   5.444  17.408  0.00  0.00    +0.000 C 
ATOM      3  N   UNL     1       4.504   6.105  16.636  0.00  0.00    +0.000 N 
ATOM      4  H   UNL     1       4.923   6.993  16.905  0.00  0.00    +0.000 HD
ENDROOT
BRANCH   2   5
ATOM      5  C   UNL     1       2.886   6.244  18.466  0.00  0.00    +0.000 A 
ATOM      6  C   UNL     1       2.614   7.598  18.210  0.00  0.00    +0.000 A 
ATOM      7  C   UNL     1       1.989   8.389  19.178  0.00  0.00    +0.000 A 
ATOM      8  C   UNL     1       1.653   7.834  20.411  0.00  0.00    +0.000 A 
ATOM      9 BR   UNL     1       0.805   8.900  21.722  0.00  0.00    +0.000 Br
ATOM     10  C   UNL     1       1.945   6.496  20.687  0.00  0.00    +0.000 A 
ATOM     11  C   UNL     1       2.562   5.701  19.715  0.00  0.00    +0.000 A 
ENDBRANCH   2   5
BRANCH   3  12
ATOM     12  N   UNL     1       5.192   5.360  15.666  0.00  0.00    +0.000 N 
ATOM     13  C   UNL     1       6.566   5.503  15.533  0.00  0.00    +0.000 C 
ATOM     14  O   UNL     1       7.240   6.230  16.254  0.00  0.00    +0.000 OA
ATOM     15  H   UNL     1       4.643   4.974  14.896  0.00  0.00    +0.000 HD
BRANCH  13  16
ATOM     16  C   UNL     1       7.156   4.550  14.472  0.00  0.00    +0.000 C 
ATOM     17  C   UNL     1       7.583   5.226  13.175  0.00  0.00    +0.000 C 
ATOM     18  C   UNL     1       7.302   4.162  12.139  0.00  0.00    +0.000 C 
ATOM     19  C   UNL     1       6.066   3.500  12.697  0.00  0.00    +0.000 C 
ATOM     20  O   UNL     1       6.207   3.524  14.120  0.00  0.00    +0.000 OA
ENDBRANCH  13  16
ENDBRANCH   3  12
TORSDOF 3
ENDMDL
MODEL 8
REMARK VINA RESULT:      -6.3      2.377      3.081
REMARK  Name = 
REMARK  3 active torsions:
REMARK  status: ('A' for Active; 'I' for Inactive)
REMARK    1  A    between atoms: C_2  and  C_12
REMARK    2  A    between atoms: N_3  and  N_4
REMARK    3  A    between atoms: C_5  and  C_7
REMARK                            x       y       z     vdW  Elec       q    Type
REMARK                         _______ _______ _______ _____ _____    ______ ____
ROOT
ATOM      1  O   UNL     1       2.595   8.276  17.557  0.00  0.00    +0.000 OA
ATOM      2  C   UNL     1       2.384   7.815  18.672  0.00  0.00    +0.000 C 
ATOM      3  N   UNL     1       2.863   6.582  19.087  0.00  0.00    +0.000 N 
ATOM      4  H   UNL     1       2.492   6.081  19.891  0.00  0.00    +0.000 HD
ENDROOT
BRANCH   2   5
ATOM      5  C   UNL     1       1.567   8.579  19.656  0.00  0.00    +0.000 A 
ATOM      6  C   UNL     1       1.479   8.095  20.971  0.00  0.00    +0.000 A 
ATOM      7  C   UNL     1       0.716   8.775  21.925  0.00  0.00    +0.000 A 
ATOM      8  C   UNL     1       0.023   9.927  21.560  0.00  0.00    +0.000 A 
ATOM      9 BR   UNL     1      -1.009  10.850  22.849  0.00  0.00    +0.000 Br
ATOM     10  C   UNL     1       0.080  10.401  20.248  0.00  0.00    +0.000 A 
ATOM     11  C   UNL     1       0.851   9.726  19.295  0.00  0.00    +0.000 A 
ENDBRANCH   2   5
BRANCH   3  12
ATOM     12  N   UNL     1       3.592   5.821  18.161  0.00  0.00    +0.000 N 
ATOM     13  C   UNL     1       4.821   5.286  18.523  0.00  0.00    +0.000 C 
ATOM     14  O   UNL     1       5.305   5.410  19.642  0.00  0.00    +0.000 OA
ATOM     15  H   UNL     1       3.356   5.934  17.174  0.00  0.00    +0.000 HD
BRANCH  13  16
ATOM     16  C   UNL     1       5.437   4.419  17.404  0.00  0.00    +0.000 C 
ATOM     17  C   UNL     1       6.897   4.724  17.091  0.00  0.00    +0.000 C 
ATOM     18  C   UNL     1       6.980   4.452  15.607  0.00  0.00    +0.000 C 
ATOM     19  C   UNL     1       5.621   4.899  15.129  0.00  0.00    +0.000 C 
ATOM     20  O   UNL     1       4.701   4.571  16.174  0.00  0.00    +0.000 OA
ENDBRANCH  13  16
ENDBRANCH   3  12
TORSDOF 3
ENDMDL
MODEL 9
REMARK VINA RESULT:      -6.3      2.345      2.843
REMARK  Name = 
REMARK  3 active torsions:
REMARK  status: ('A' for Active; 'I' for Inactive)
REMARK    1  A    between atoms: C_2  and  C_12
REMARK    2  A    between atoms: N_3  and  N_4
REMARK    3  A    between atoms: C_5  and  C_7
REMARK                            x       y       z     vdW  Elec       q    Type
REMARK                         _______ _______ _______ _____ _____    ______ ____
ROOT
ATOM      1  O   UNL     1       2.754   8.206  17.702  0.00  0.00    +0.000 OA
ATOM      2  C   UNL     1       2.451   7.699  18.775  0.00  0.00    +0.000 C 
ATOM      3  N   UNL     1       2.837   6.421  19.147  0.00  0.00    +0.000 N 
ATOM      4  H   UNL     1       2.392   5.901  19.899  0.00  0.00    +0.000 HD
ENDROOT
BRANCH   2   5
ATOM      5  C   UNL     1       1.619   8.456  19.752  0.00  0.00    +0.000 A 
ATOM      6  C   UNL     1       1.004   9.645  19.327  0.00  0.00    +0.000 A 
ATOM      7  C   UNL     1       0.222  10.392  20.212  0.00  0.00    +0.000 A 
ATOM      8  C   UNL     1       0.070   9.962  21.529  0.00  0.00    +0.000 A 
ATOM      9 BR   UNL     1      -0.989  10.969  22.730  0.00  0.00    +0.000 Br
ATOM     10  C   UNL     1       0.701   8.797  21.970  0.00  0.00    +0.000 A 
ATOM     11  C   UNL     1       1.476   8.043  21.082  0.00  0.00    +0.000 A 
ENDBRANCH   2   5
BRANCH   3  12
ATOM     12  N   UNL     1       3.580   5.670  18.223  0.00  0.00    +0.000 N 
ATOM     13  C   UNL     1       4.855   5.233  18.555  0.00  0.00    +0.000 C 
ATOM     14  O   UNL     1       5.373   5.437  19.647  0.00  0.00    +0.000 OA
ATOM     15  H   UNL     1       3.298   5.723  17.243  0.00  0.00    +0.000 HD
BRANCH  13  16
ATOM     16  C   UNL     1       5.483   4.360  17.448  0.00  0.00    +0.000 C 
ATOM     17  C   UNL     1       6.894   4.766  17.040  0.00  0.00    +0.000 C 
ATOM     18  C   UNL     1       6.924   4.421  15.569  0.00  0.00    +0.000 C 
ATOM     19  C   UNL     1       5.509   4.730  15.146  0.00  0.00    +0.000 C 
ATOM     20  O   UNL     1       4.675   4.385  16.255  0.00  0.00    +0.000 OA
ENDBRANCH  13  16
ENDBRANCH   3  12
TORSDOF 3
ENDMDL
