MODEL 1
REMARK VINA RESULT:      -7.6      0.000      0.000
REMARK  Name = 
REMARK  6 active torsions:
REMARK  status: ('A' for Active; 'I' for Inactive)
REMARK    1  A    between atoms: C_1  and  C_2
REMARK    2  A    between atoms: C_7  and  C_8
REMARK    3  A    between atoms: C_8  and  N_9
REMARK    4  A    between atoms: C_13  and  C_15
REMARK    5  A    between atoms: C_15  and  C_16
REMARK    6  A    between atoms: C_20  and  O_21
REMARK                            x       y       z     vdW  Elec       q    Type
REMARK                         _______ _______ _______ _____ _____    ______ ____
ROOT
ATOM      1  N   UNL     1       5.031   5.311  19.289  0.00  0.00    +0.000 NA
ATOM      2  C   UNL     1       6.394   5.119  18.774  0.00  0.00    +0.000 C 
ATOM      3  C   UNL     1       6.956   6.086  17.718  0.00  0.00    +0.000 C 
ATOM      4  N   UNL     1       6.261   5.971  16.439  0.00  0.00    +0.000 N 
ATOM      5  C   UNL     1       6.787   5.123  15.464  0.00  0.00    +0.000 C 
ATOM      6  O   UNL     1       7.811   4.470  15.661  0.00  0.00    +0.000 OA
ATOM      7  C   UNL     1       5.064   6.782  16.272  0.00  0.00    +0.000 C 
ATOM      8  C   UNL     1       4.282   7.103  17.555  0.00  0.00    +0.000 C 
ATOM      9  C   UNL     1       3.979   5.863  18.427  0.00  0.00    +0.000 C 
ENDROOT
BRANCH   8  10
ATOM     10  O   UNL     1       3.039   7.719  17.163  0.00  0.00    +0.000 OA
ATOM     11  H   UNL     1       2.922   7.563  16.208  0.00  0.00    +0.000 HD
ENDBRANCH   8  10
BRANCH   1  12
ATOM     12  C   UNL     1       4.557   4.105  20.035  0.00  0.00    +0.000 C 
BRANCH  12  19
ATOM     13  C   UNL     1       1.831   4.971  21.152  0.00  0.00    +0.000 C 
ATOM     14  C   UNL     1       1.986   3.876  20.139  0.00  0.00    +0.000 A 
ATOM     15  C   UNL     1       0.823   3.257  19.653  0.00  0.00    +0.000 A 
ATOM     16  C   UNL     1       0.905   2.265  18.683  0.00  0.00    +0.000 A 
ATOM     17  C   UNL     1       2.158   1.931  18.214  0.00  0.00    +0.000 A 
ATOM     18  N   UNL     1       3.301   2.506  18.643  0.00  0.00    +0.000 NA
ATOM     19  C   UNL     1       3.227   3.468  19.609  0.00  0.00    +0.000 A 
ENDBRANCH  12  19
ENDBRANCH   1  12
BRANCH   5  20
ATOM     20  C   UNL     1       6.021   5.019  14.137  0.00  0.00    +0.000 C 
BRANCH  20  21
ATOM     21  C   UNL     1       6.189   3.697  13.426  0.00  0.00    +0.000 C 
ATOM     22  C   UNL     1       5.326   3.370  12.233  0.00  0.00    +0.000 C 
ATOM     23  C   UNL     1       6.795   3.630  12.047  0.00  0.00    +0.000 C 
ENDBRANCH  20  21
ENDBRANCH   5  20
TORSDOF 5
ENDMDL
MODEL 2
REMARK VINA RESULT:      -7.5      0.788      1.489
REMARK  Name = 
REMARK  6 active torsions:
REMARK  status: ('A' for Active; 'I' for Inactive)
REMARK    1  A    between atoms: C_1  and  C_2
REMARK    2  A    between atoms: C_7  and  C_8
REMARK    3  A    between atoms: C_8  and  N_9
REMARK    4  A    between atoms: C_13  and  C_15
REMARK    5  A    between atoms: C_15  and  C_16
REMARK    6  A    between atoms: C_20  and  O_21
REMARK                            x       y       z     vdW  Elec       q    Type
REMARK                         _______ _______ _______ _____ _____    ______ ____
ROOT
ATOM      1  N   UNL     1       5.032   5.244  19.290  0.00  0.00    +0.000 NA
ATOM      2  C   UNL     1       6.395   5.054  18.777  0.00  0.00    +0.000 C 
ATOM      3  C   UNL     1       6.963   6.032  17.734  0.00  0.00    +0.000 C 
ATOM      4  N   UNL     1       6.272   5.936  16.452  0.00  0.00    +0.000 N 
ATOM      5  C   UNL     1       6.798   5.098  15.468  0.00  0.00    +0.000 C 
ATOM      6  O   UNL     1       7.819   4.439  15.660  0.00  0.00    +0.000 OA
ATOM      7  C   UNL     1       5.078   6.751  16.291  0.00  0.00    +0.000 C 
ATOM      8  C   UNL     1       4.292   7.059  17.576  0.00  0.00    +0.000 C 
ATOM      9  C   UNL     1       3.984   5.810  18.432  0.00  0.00    +0.000 C 
ENDROOT
BRANCH   8  10
ATOM     10  O   UNL     1       3.052   7.684  17.187  0.00  0.00    +0.000 OA
ATOM     11  H   UNL     1       2.536   7.841  17.999  0.00  0.00    +0.000 HD
ENDBRANCH   8  10
BRANCH   1  12
ATOM     12  C   UNL     1       4.552   4.030  20.020  0.00  0.00    +0.000 C 
BRANCH  12  19
ATOM     13  C   UNL     1       3.746   1.813  18.055  0.00  0.00    +0.000 C 
ATOM     14  C   UNL     1       2.750   2.566  18.887  0.00  0.00    +0.000 A 
ATOM     15  C   UNL     1       1.398   2.201  18.789  0.00  0.00    +0.000 A 
ATOM     16  C   UNL     1       0.438   2.836  19.567  0.00  0.00    +0.000 A 
ATOM     17  C   UNL     1       0.867   3.815  20.439  0.00  0.00    +0.000 A 
ATOM     18  N   UNL     1       2.157   4.190  20.576  0.00  0.00    +0.000 NA
ATOM     19  C   UNL     1       3.100   3.581  19.800  0.00  0.00    +0.000 A 
ENDBRANCH  12  19
ENDBRANCH   1  12
BRANCH   5  20
ATOM     20  C   UNL     1       6.036   5.012  14.138  0.00  0.00    +0.000 C 
BRANCH  20  21
ATOM     21  C   UNL     1       6.206   3.700  13.409  0.00  0.00    +0.000 C 
ATOM     22  C   UNL     1       5.345   3.389  12.209  0.00  0.00    +0.000 C 
ATOM     23  C   UNL     1       6.814   3.652  12.031  0.00  0.00    +0.000 C 
ENDBRANCH  20  21
ENDBRANCH   5  20
TORSDOF 5
ENDMDL
MODEL 3
REMARK VINA RESULT:      -6.9      1.694      2.188
REMARK  Name = 
REMARK  6 active torsions:
REMARK  status: ('A' for Active; 'I' for Inactive)
REMARK    1  A    between atoms: C_1  and  C_2
REMARK    2  A    between atoms: C_7  and  C_8
REMARK    3  A    between atoms: C_8  and  N_9
REMARK    4  A    between atoms: C_13  and  C_15
REMARK    5  A    between atoms: C_15  and  C_16
REMARK    6  A    between atoms: C_20  and  O_21
REMARK                            x       y       z     vdW  Elec       q    Type
REMARK                         _______ _______ _______ _____ _____    ______ ____
ROOT
ATOM      1  N   UNL     1       4.661   5.934  18.878  0.00  0.00    +0.000 NA
ATOM      2  C   UNL     1       4.978   4.528  18.591  0.00  0.00    +0.000 C 
ATOM      3  C   UNL     1       6.330   4.163  17.954  0.00  0.00    +0.000 C 
ATOM      4  N   UNL     1       6.447   4.658  16.585  0.00  0.00    +0.000 N 
ATOM      5  C   UNL     1       6.096   3.812  15.534  0.00  0.00    +0.000 C 
ATOM      6  O   UNL     1       5.687   2.669  15.735  0.00  0.00    +0.000 OA
ATOM      7  C   UNL     1       6.948   6.014  16.423  0.00  0.00    +0.000 C 
ATOM      8  C   UNL     1       6.657   6.986  17.578  0.00  0.00    +0.000 C 
ATOM      9  C   UNL     1       5.175   7.005  18.016  0.00  0.00    +0.000 C 
ENDROOT
BRANCH   8  10
ATOM     10  O   UNL     1       7.039   8.306  17.142  0.00  0.00    +0.000 OA
ATOM     11  H   UNL     1       7.580   8.204  16.338  0.00  0.00    +0.000 HD
ENDBRANCH   8  10
BRANCH   1  12
ATOM     12  C   UNL     1       3.206   6.114  19.175  0.00  0.00    +0.000 C 
BRANCH  12  19
ATOM     13  C   UNL     1       1.386   4.285  17.510  0.00  0.00    +0.000 C 
ATOM     14  C   UNL     1       1.600   4.100  18.984  0.00  0.00    +0.000 A 
ATOM     15  C   UNL     1       0.972   3.012  19.610  0.00  0.00    +0.000 A 
ATOM     16  C   UNL     1       1.168   2.768  20.964  0.00  0.00    +0.000 A 
ATOM     17  C   UNL     1       2.007   3.619  21.652  0.00  0.00    +0.000 A 
ATOM     18  N   UNL     1       2.641   4.670  21.089  0.00  0.00    +0.000 NA
ATOM     19  C   UNL     1       2.437   4.923  19.764  0.00  0.00    +0.000 A 
ENDBRANCH  12  19
ENDBRANCH   1  12
BRANCH   5  20
ATOM     20  C   UNL     1       6.219   4.372  14.110  0.00  0.00    +0.000 C 
BRANCH  20  21
ATOM     21  C   UNL     1       6.230   3.319  13.028  0.00  0.00    +0.000 C 
ATOM     22  C   UNL     1       5.233   3.392  11.897  0.00  0.00    +0.000 C 
ATOM     23  C   UNL     1       6.691   3.647  11.630  0.00  0.00    +0.000 C 
ENDBRANCH  20  21
ENDBRANCH   5  20
TORSDOF 5
ENDMDL
MODEL 4
REMARK VINA RESULT:      -6.6      3.208      5.116
REMARK  Name = 
REMARK  6 active torsions:
REMARK  status: ('A' for Active; 'I' for Inactive)
REMARK    1  A    between atoms: C_1  and  C_2
REMARK    2  A    between atoms: C_7  and  C_8
REMARK    3  A    between atoms: C_8  and  N_9
REMARK    4  A    between atoms: C_13  and  C_15
REMARK    5  A    between atoms: C_15  and  C_16
REMARK    6  A    between atoms: C_20  and  O_21
REMARK                            x       y       z     vdW  Elec       q    Type
REMARK                         _______ _______ _______ _____ _____    ______ ____
ROOT
ATOM      1  N   UNL     1       5.341   5.836  18.189  0.00  0.00    +0.000 NA
ATOM      2  C   UNL     1       5.815   6.708  17.106  0.00  0.00    +0.000 C 
ATOM      3  C   UNL     1       7.326   6.897  16.882  0.00  0.00    +0.000 C 
ATOM      4  N   UNL     1       7.962   7.614  17.984  0.00  0.00    +0.000 N 
ATOM      5  C   UNL     1       8.109   8.998  17.888  0.00  0.00    +0.000 C 
ATOM      6  O   UNL     1       7.710   9.622  16.905  0.00  0.00    +0.000 OA
ATOM      7  C   UNL     1       8.419   6.810  19.107  0.00  0.00    +0.000 C 
ATOM      8  C   UNL     1       7.637   5.513  19.372  0.00  0.00    +0.000 C 
ATOM      9  C   UNL     1       6.106   5.711  19.435  0.00  0.00    +0.000 C 
ENDROOT
BRANCH   8  10
ATOM     10  O   UNL     1       8.098   4.978  20.630  0.00  0.00    +0.000 OA
ATOM     11  H   UNL     1       7.842   5.608  21.328  0.00  0.00    +0.000 HD
ENDBRANCH   8  10
BRANCH   1  12
ATOM     12  C   UNL     1       3.883   6.042  18.455  0.00  0.00    +0.000 C 
BRANCH  12  19
ATOM     13  C   UNL     1       1.755   5.676  20.637  0.00  0.00    +0.000 C 
ATOM     14  C   UNL     1       2.019   4.649  19.575  0.00  0.00    +0.000 A 
ATOM     15  C   UNL     1       1.221   3.495  19.562  0.00  0.00    +0.000 A 
ATOM     16  C   UNL     1       1.394   2.530  18.577  0.00  0.00    +0.000 A 
ATOM     17  C   UNL     1       2.358   2.760  17.618  0.00  0.00    +0.000 A 
ATOM     18  N   UNL     1       3.140   3.860  17.585  0.00  0.00    +0.000 NA
ATOM     19  C   UNL     1       2.986   4.801  18.561  0.00  0.00    +0.000 A 
ENDBRANCH  12  19
ENDBRANCH   1  12
BRANCH   5  20
ATOM     20  C   UNL     1       8.770   9.718  19.071  0.00  0.00    +0.000 C 
BRANCH  20  21
ATOM     21  C   UNL     1       9.222  11.126  18.767  0.00  0.00    +0.000 C 
ATOM     22  C   UNL     1      10.390  11.720  19.516  0.00  0.00    +0.000 C 
ATOM     23  C   UNL     1      10.527  11.386  18.057  0.00  0.00    +0.000 C 
ENDBRANCH  20  21
ENDBRANCH   5  20
TORSDOF 5
ENDMDL
MODEL 5
REMARK VINA RESULT:      -6.6      1.742      6.680
REMARK  Name = 
REMARK  6 active torsions:
REMARK  status: ('A' for Active; 'I' for Inactive)
REMARK    1  A    between atoms: C_1  and  C_2
REMARK    2  A    between atoms: C_7  and  C_8
REMARK    3  A    between atoms: C_8  and  N_9
REMARK    4  A    between atoms: C_13  and  C_15
REMARK    5  A    between atoms: C_15  and  C_16
REMARK    6  A    between atoms: C_20  and  O_21
REMARK                            x       y       z     vdW  Elec       q    Type
REMARK                         _______ _______ _______ _____ _____    ______ ____
ROOT
ATOM      1  N   UNL     1       6.095   5.072  16.414  0.00  0.00    +0.000 NA
ATOM      2  C   UNL     1       4.792   5.720  16.206  0.00  0.00    +0.000 C 
ATOM      3  C   UNL     1       4.169   6.563  17.332  0.00  0.00    +0.000 C 
ATOM      4  N   UNL     1       3.787   5.751  18.484  0.00  0.00    +0.000 N 
ATOM      5  C   UNL     1       2.478   5.276  18.564  0.00  0.00    +0.000 C 
ATOM      6  O   UNL     1       1.648   5.519  17.688  0.00  0.00    +0.000 OA
ATOM      7  C   UNL     1       4.815   5.514  19.485  0.00  0.00    +0.000 C 
ATOM      8  C   UNL     1       6.265   5.505  18.975  0.00  0.00    +0.000 C 
ATOM      9  C   UNL     1       6.487   4.596  17.745  0.00  0.00    +0.000 C 
ENDROOT
BRANCH   8  10
ATOM     10  O   UNL     1       7.103   5.050  20.057  0.00  0.00    +0.000 OA
ATOM     11  H   UNL     1       6.819   4.147  20.289  0.00  0.00    +0.000 HD
ENDBRANCH   8  10
BRANCH   1  12
ATOM     12  C   UNL     1       6.367   4.048  15.359  0.00  0.00    +0.000 C 
BRANCH  12  19
ATOM     13  C   UNL     1       5.374   3.054  12.628  0.00  0.00    +0.000 C 
ATOM     14  C   UNL     1       6.485   4.052  12.778  0.00  0.00    +0.000 A 
ATOM     15  C   UNL     1       7.057   4.582  11.611  0.00  0.00    +0.000 A 
ATOM     16  C   UNL     1       8.060   5.540  11.690  0.00  0.00    +0.000 A 
ATOM     17  C   UNL     1       8.452   5.953  12.946  0.00  0.00    +0.000 A 
ATOM     18  N   UNL     1       7.923   5.480  14.094  0.00  0.00    +0.000 NA
ATOM     19  C   UNL     1       6.950   4.526  14.021  0.00  0.00    +0.000 A 
ENDBRANCH  12  19
ENDBRANCH   1  12
BRANCH   5  20
ATOM     20  C   UNL     1       2.116   4.415  19.782  0.00  0.00    +0.000 C 
BRANCH  20  21
ATOM     21  C   UNL     1       2.211   2.927  19.541  0.00  0.00    +0.000 C 
ATOM     22  C   UNL     1       1.018   2.175  19.006  0.00  0.00    +0.000 C 
ATOM     23  C   UNL     1       2.232   2.368  18.140  0.00  0.00    +0.000 C 
ENDBRANCH  20  21
ENDBRANCH   5  20
TORSDOF 5
ENDMDL
MODEL 6
REMARK VINA RESULT:      -6.6      1.738      7.067
REMARK  Name = 
REMARK  6 active torsions:
REMARK  status: ('A' for Active; 'I' for Inactive)
REMARK    1  A    between atoms: C_1  and  C_2
REMARK    2  A    between atoms: C_7  and  C_8
REMARK    3  A    between atoms: C_8  and  N_9
REMARK    4  A    between atoms: C_13  and  C_15
REMARK    5  A    between atoms: C_15  and  C_16
REMARK    6  A    between atoms: C_20  and  O_21
REMARK                            x       y       z     vdW  Elec       q    Type
REMARK                         _______ _______ _______ _____ _____    ______ ____
ROOT
ATOM      1  N   UNL     1       6.258   5.094  16.252  0.00  0.00    +0.000 NA
ATOM      2  C   UNL     1       4.917   5.687  16.335  0.00  0.00    +0.000 C 
ATOM      3  C   UNL     1       4.520   6.510  17.574  0.00  0.00    +0.000 C 
ATOM      4  N   UNL     1       4.430   5.688  18.777  0.00  0.00    +0.000 N 
ATOM      5  C   UNL     1       3.190   5.161  19.137  0.00  0.00    +0.000 C 
ATOM      6  O   UNL     1       2.180   5.367  18.464  0.00  0.00    +0.000 OA
ATOM      7  C   UNL     1       5.660   5.496  19.530  0.00  0.00    +0.000 C 
ATOM      8  C   UNL     1       6.964   5.543  18.717  0.00  0.00    +0.000 C 
ATOM      9  C   UNL     1       6.949   4.639  17.463  0.00  0.00    +0.000 C 
ENDROOT
BRANCH   8  10
ATOM     10  O   UNL     1       8.034   5.126  19.589  0.00  0.00    +0.000 OA
ATOM     11  H   UNL     1       8.668   4.615  19.052  0.00  0.00    +0.000 HD
ENDBRANCH   8  10
BRANCH   1  12
ATOM     12  C   UNL     1       6.335   4.077  15.157  0.00  0.00    +0.000 C 
BRANCH  12  19
ATOM     13  C   UNL     1       5.416   2.927  12.462  0.00  0.00    +0.000 C 
ATOM     14  C   UNL     1       6.492   3.966  12.581  0.00  0.00    +0.000 A 
ATOM     15  C   UNL     1       7.065   4.460  11.399  0.00  0.00    +0.000 A 
ATOM     16  C   UNL     1       8.037   5.452  11.447  0.00  0.00    +0.000 A 
ATOM     17  C   UNL     1       8.396   5.935  12.688  0.00  0.00    +0.000 A 
ATOM     18  N   UNL     1       7.864   5.499  13.850  0.00  0.00    +0.000 NA
ATOM     19  C   UNL     1       6.923   4.511  13.807  0.00  0.00    +0.000 A 
ENDBRANCH  12  19
ENDBRANCH   1  12
BRANCH   5  20
ATOM     20  C   UNL     1       3.137   4.290  20.401  0.00  0.00    +0.000 C 
BRANCH  20  21
ATOM     21  C   UNL     1       2.219   3.096  20.294  0.00  0.00    +0.000 C 
ATOM     22  C   UNL     1       1.488   2.597  21.515  0.00  0.00    +0.000 C 
ATOM     23  C   UNL     1       0.723   3.255  20.401  0.00  0.00    +0.000 C 
ENDBRANCH  20  21
ENDBRANCH   5  20
TORSDOF 5
ENDMDL
MODEL 7
REMARK VINA RESULT:      -6.6      2.116      7.122
REMARK  Name = 
REMARK  6 active torsions:
REMARK  status: ('A' for Active; 'I' for Inactive)
REMARK    1  A    between atoms: C_1  and  C_2
REMARK    2  A    between atoms: C_7  and  C_8
REMARK    3  A    between atoms: C_8  and  N_9
REMARK    4  A    between atoms: C_13  and  C_15
REMARK    5  A    between atoms: C_15  and  C_16
REMARK    6  A    between atoms: C_20  and  O_21
REMARK                            x       y       z     vdW  Elec       q    Type
REMARK                         _______ _______ _______ _____ _____    ______ ____
ROOT
ATOM      1  N   UNL     1       6.292   4.790  16.238  0.00  0.00    +0.000 NA
ATOM      2  C   UNL     1       4.850   4.797  15.954  0.00  0.00    +0.000 C 
ATOM      3  C   UNL     1       3.863   5.299  17.022  0.00  0.00    +0.000 C 
ATOM      4  N   UNL     1       3.814   4.419  18.186  0.00  0.00    +0.000 N 
ATOM      5  C   UNL     1       2.842   3.419  18.229  0.00  0.00    +0.000 C 
ATOM      6  O   UNL     1       2.037   3.260  17.312  0.00  0.00    +0.000 OA
ATOM      7  C   UNL     1       4.788   4.672  19.236  0.00  0.00    +0.000 C 
ATOM      8  C   UNL     1       6.121   5.292  18.787  0.00  0.00    +0.000 C 
ATOM      9  C   UNL     1       6.782   4.554  17.601  0.00  0.00    +0.000 C 
ENDROOT
BRANCH   8  10
ATOM     10  O   UNL     1       7.014   5.267  19.918  0.00  0.00    +0.000 OA
ATOM     11  H   UNL     1       6.624   5.826  20.613  0.00  0.00    +0.000 HD
ENDBRANCH   8  10
BRANCH   1  12
ATOM     12  C   UNL     1       7.040   3.973  15.233  0.00  0.00    +0.000 C 
BRANCH  12  19
ATOM     13  C   UNL     1       5.626   3.178  12.625  0.00  0.00    +0.000 C 
ATOM     14  C   UNL     1       6.697   4.228  12.685  0.00  0.00    +0.000 A 
ATOM     15  C   UNL     1       7.028   4.901  11.499  0.00  0.00    +0.000 A 
ATOM     16  C   UNL     1       7.983   5.910  11.503  0.00  0.00    +0.000 A 
ATOM     17  C   UNL     1       8.572   6.228  12.709  0.00  0.00    +0.000 A 
ATOM     18  N   UNL     1       8.277   5.616  13.876  0.00  0.00    +0.000 NA
ATOM     19  C   UNL     1       7.353   4.612  13.872  0.00  0.00    +0.000 A 
ENDBRANCH  12  19
ENDBRANCH   1  12
BRANCH   5  20
ATOM     20  C   UNL     1       2.830   2.505  19.463  0.00  0.00    +0.000 C 
BRANCH  20  21
ATOM     21  C   UNL     1       1.542   2.541  20.250  0.00  0.00    +0.000 C 
ATOM     22  C   UNL     1       1.573   2.829  21.730  0.00  0.00    +0.000 C 
ATOM     23  C   UNL     1       0.994   3.841  20.782  0.00  0.00    +0.000 C 
ENDBRANCH  20  21
ENDBRANCH   5  20
TORSDOF 5
ENDMDL
MODEL 8
REMARK VINA RESULT:      -6.4      5.000      7.482
REMARK  Name = 
REMARK  6 active torsions:
REMARK  status: ('A' for Active; 'I' for Inactive)
REMARK    1  A    between atoms: C_1  and  C_2
REMARK    2  A    between atoms: C_7  and  C_8
REMARK    3  A    between atoms: C_8  and  N_9
REMARK    4  A    between atoms: C_13  and  C_15
REMARK    5  A    between atoms: C_15  and  C_16
REMARK    6  A    between atoms: C_20  and  O_21
REMARK                            x       y       z     vdW  Elec       q    Type
REMARK                         _______ _______ _______ _____ _____    ______ ____
ROOT
ATOM      1  N   UNL     1       2.048   7.598  20.054  0.00  0.00    +0.000 NA
ATOM      2  C   UNL     1       1.878   8.145  18.701  0.00  0.00    +0.000 C 
ATOM      3  C   UNL     1       1.535   9.633  18.515  0.00  0.00    +0.000 C 
ATOM      4  N   UNL     1       0.201   9.958  19.011  0.00  0.00    +0.000 N 
ATOM      5  C   UNL     1      -0.869   9.939  18.118  0.00  0.00    +0.000 C 
ATOM      6  O   UNL     1      -0.715   9.650  16.932  0.00  0.00    +0.000 OA
ATOM      7  C   UNL     1       0.096  10.303  20.421  0.00  0.00    +0.000 C 
ATOM      8  C   UNL     1       1.136   9.661  21.353  0.00  0.00    +0.000 C 
ATOM      9  C   UNL     1       1.270   8.131  21.177  0.00  0.00    +0.000 C 
ENDROOT
BRANCH   8  10
ATOM     10  O   UNL     1       0.740   9.948  22.709  0.00  0.00    +0.000 OA
ATOM     11  H   UNL     1       1.461   9.653  23.295  0.00  0.00    +0.000 HD
ENDBRANCH   8  10
BRANCH   1  12
ATOM     12  C   UNL     1       2.044   6.102  20.040  0.00  0.00    +0.000 C 
BRANCH  12  19
ATOM     13  C   UNL     1       1.396   4.325  17.620  0.00  0.00    +0.000 C 
ATOM     14  C   UNL     1       2.797   4.567  18.103  0.00  0.00    +0.000 A 
ATOM     15  C   UNL     1       3.852   3.987  17.382  0.00  0.00    +0.000 A 
ATOM     16  C   UNL     1       5.170   4.211  17.759  0.00  0.00    +0.000 A 
ATOM     17  C   UNL     1       5.394   5.028  18.847  0.00  0.00    +0.000 A 
ATOM     18  N   UNL     1       4.412   5.616  19.562  0.00  0.00    +0.000 NA
ATOM     19  C   UNL     1       3.115   5.384  19.206  0.00  0.00    +0.000 A 
ENDBRANCH  12  19
ENDBRANCH   1  12
BRANCH   5  20
ATOM     20  C   UNL     1      -2.259  10.274  18.679  0.00  0.00    +0.000 C 
BRANCH  20  21
ATOM     21  C   UNL     1      -3.388  10.084  17.694  0.00  0.00    +0.000 C 
ATOM     22  C   UNL     1      -4.691  10.819  17.893  0.00  0.00    +0.000 C 
ATOM     23  C   UNL     1      -3.788  11.190  16.750  0.00  0.00    +0.000 C 
ENDBRANCH  20  21
ENDBRANCH   5  20
TORSDOF 5
ENDMDL
MODEL 9
REMARK VINA RESULT:      -6.4      1.847      6.542
REMARK  Name = 
REMARK  6 active torsions:
REMARK  status: ('A' for Active; 'I' for Inactive)
REMARK    1  A    between atoms: C_1  and  C_2
REMARK    2  A    between atoms: C_7  and  C_8
REMARK    3  A    between atoms: C_8  and  N_9
REMARK    4  A    between atoms: C_13  and  C_15
REMARK    5  A    between atoms: C_15  and  C_16
REMARK    6  A    between atoms: C_20  and  O_21
REMARK                            x       y       z     vdW  Elec       q    Type
REMARK                         _______ _______ _______ _____ _____    ______ ____
ROOT
ATOM      1  N   UNL     1       7.027   5.678  16.615  0.00  0.00    +0.000 NA
ATOM      2  C   UNL     1       5.600   5.788  16.282  0.00  0.00    +0.000 C 
ATOM      3  C   UNL     1       4.580   6.119  17.386  0.00  0.00    +0.000 C 
ATOM      4  N   UNL     1       4.457   5.043  18.365  0.00  0.00    +0.000 N 
ATOM      5  C   UNL     1       3.457   4.086  18.186  0.00  0.00    +0.000 C 
ATOM      6  O   UNL     1       2.689   4.126  17.225  0.00  0.00    +0.000 OA
ATOM      7  C   UNL     1       5.390   5.065  19.480  0.00  0.00    +0.000 C 
ATOM      8  C   UNL     1       6.758   5.710  19.204  0.00  0.00    +0.000 C 
ATOM      9  C   UNL     1       7.450   5.180  17.928  0.00  0.00    +0.000 C 
ENDROOT
BRANCH   8  10
ATOM     10  O   UNL     1       7.600   5.447  20.344  0.00  0.00    +0.000 OA
ATOM     11  H   UNL     1       8.515   5.664  20.089  0.00  0.00    +0.000 HD
ENDBRANCH   8  10
BRANCH   1  12
ATOM     12  C   UNL     1       7.795   5.034  15.505  0.00  0.00    +0.000 C 
BRANCH  12  19
ATOM     13  C   UNL     1       8.516   5.820  12.625  0.00  0.00    +0.000 C 
ATOM     14  C   UNL     1       7.360   4.924  12.961  0.00  0.00    +0.000 A 
ATOM     15  C   UNL     1       6.609   4.391  11.902  0.00  0.00    +0.000 A 
ATOM     16  C   UNL     1       5.553   3.523  12.152  0.00  0.00    +0.000 A 
ATOM     17  C   UNL     1       5.289   3.200  13.467  0.00  0.00    +0.000 A 
ATOM     18  N   UNL     1       5.991   3.679  14.516  0.00  0.00    +0.000 NA
ATOM     19  C   UNL     1       7.017   4.546  14.275  0.00  0.00    +0.000 A 
ENDBRANCH  12  19
ENDBRANCH   1  12
BRANCH   5  20
ATOM     20  C   UNL     1       3.367   2.962  19.228  0.00  0.00    +0.000 C 
BRANCH  20  21
ATOM     21  C   UNL     1       1.980   2.740  19.783  0.00  0.00    +0.000 C 
ATOM     22  C   UNL     1       1.751   2.776  21.274  0.00  0.00    +0.000 C 
ATOM     23  C   UNL     1       1.203   3.873  20.405  0.00  0.00    +0.000 C 
ENDBRANCH  20  21
ENDBRANCH   5  20
TORSDOF 5
ENDMDL
