MODEL 1
REMARK VINA RESULT:      -8.6      0.000      0.000
REMARK  Name = 
REMARK  5 active torsions:
REMARK  status: ('A' for Active; 'I' for Inactive)
REMARK    1  A    between atoms: C_1  and  C_2
REMARK    2  A    between atoms: C_4  and  C_5
REMARK    3  A    between atoms: C_8  and  C_9
REMARK    4  A    between atoms: N_11  and  C_12
REMARK    5  A    between atoms: N_14  and  C_15
REMARK                            x       y       z     vdW  Elec       q    Type
REMARK                         _______ _______ _______ _____ _____    ______ ____
ROOT
ATOM      1  C   UNL     1       6.736   6.303  16.754  0.00  0.00    +0.000 C 
ATOM      2  O   UNL     1       7.547   6.070  15.863  0.00  0.00    +0.000 OA
ATOM      3  N   UNL     1       6.831   7.404  17.586  0.00  0.00    +0.000 N 
ATOM      4  H   UNL     1       6.251   7.422  18.415  0.00  0.00    +0.000 HD
ENDROOT
BRANCH   1  12
ATOM      5  C   UNL     1       0.367   2.096  18.850  0.00  0.00    +0.000 C 
ATOM      6  C   UNL     1       1.456   3.105  18.648  0.00  0.00    +0.000 A 
ATOM      7  C   UNL     1       1.432   4.327  19.306  0.00  0.00    +0.000 A 
ATOM      8  C   UNL     1       2.468   5.241  19.090  0.00  0.00    +0.000 A 
ATOM      9  C   UNL     1       2.437   6.560  19.813  0.00  0.00    +0.000 C 
ATOM     10  C   UNL     1       3.512   4.899  18.198  0.00  0.00    +0.000 A 
ATOM     11  C   UNL     1       4.606   5.746  17.901  0.00  0.00    +0.000 A 
ATOM     12  C   UNL     1       5.610   5.358  17.007  0.00  0.00    +0.000 A 
ATOM     13  C   UNL     1       5.544   4.100  16.415  0.00  0.00    +0.000 A 
ATOM     14  C   UNL     1       4.466   3.258  16.710  0.00  0.00    +0.000 A 
ATOM     15  C   UNL     1       3.452   3.628  17.583  0.00  0.00    +0.000 A 
ATOM     16  N   UNL     1       2.451   2.760  17.799  0.00  0.00    +0.000 NA
ENDBRANCH   1  12
BRANCH   3  17
ATOM     17  C   UNL     1       7.984   8.331  17.491  0.00  0.00    +0.000 C 
ATOM     18  C   UNL     1       7.690   9.838  17.632  0.00  0.00    +0.000 C 
ATOM     19  N   UNL     1       8.822   9.896  18.505  0.00  0.00    +0.000 N 
ATOM     20  C   UNL     1       8.822   8.497  18.773  0.00  0.00    +0.000 C 
BRANCH  19  21
ATOM     21  C   UNL     1       9.632  10.948  18.939  0.00  0.00    +0.000 A 
ATOM     22  C   UNL     1       9.551  11.424  20.258  0.00  0.00    +0.000 A 
ATOM     23  C   UNL     1      10.348  12.487  20.697  0.00  0.00    +0.000 A 
ATOM     24  C   UNL     1      11.234  13.086  19.813  0.00  0.00    +0.000 A 
ATOM     25  F   UNL     1      12.000  14.103  20.232  0.00  0.00    +0.000 F 
ATOM     26  C   UNL     1      11.324  12.633  18.504  0.00  0.00    +0.000 A 
ATOM     27  F   UNL     1      12.173  13.216  17.646  0.00  0.00    +0.000 F 
ATOM     28  C   UNL     1      10.532  11.572  18.067  0.00  0.00    +0.000 A 
ENDBRANCH  19  21
ENDBRANCH   3  17
TORSDOF 3
ENDMDL
MODEL 2
REMARK VINA RESULT:      -8.4      0.561      1.301
REMARK  Name = 
REMARK  5 active torsions:
REMARK  status: ('A' for Active; 'I' for Inactive)
REMARK    1  A    between atoms: C_1  and  C_2
REMARK    2  A    between atoms: C_4  and  C_5
REMARK    3  A    between atoms: C_8  and  C_9
REMARK    4  A    between atoms: N_11  and  C_12
REMARK    5  A    between atoms: N_14  and  C_15
REMARK                            x       y       z     vdW  Elec       q    Type
REMARK                         _______ _______ _______ _____ _____    ______ ____
ROOT
ATOM      1  C   UNL     1       6.685   6.174  16.835  0.00  0.00    +0.000 C 
ATOM      2  O   UNL     1       7.498   5.926  15.950  0.00  0.00    +0.000 OA
ATOM      3  N   UNL     1       6.780   7.286  17.651  0.00  0.00    +0.000 N 
ATOM      4  H   UNL     1       6.197   7.318  18.478  0.00  0.00    +0.000 HD
ENDROOT
BRANCH   1  12
ATOM      5  C   UNL     1       0.281   2.028  18.948  0.00  0.00    +0.000 C 
ATOM      6  C   UNL     1       1.374   3.031  18.734  0.00  0.00    +0.000 A 
ATOM      7  C   UNL     1       1.337   4.273  19.354  0.00  0.00    +0.000 A 
ATOM      8  C   UNL     1       2.376   5.181  19.128  0.00  0.00    +0.000 A 
ATOM      9  C   UNL     1       2.332   6.522  19.808  0.00  0.00    +0.000 C 
ATOM     10  C   UNL     1       3.436   4.813  18.266  0.00  0.00    +0.000 A 
ATOM     11  C   UNL     1       4.535   5.650  17.961  0.00  0.00    +0.000 A 
ATOM     12  C   UNL     1       5.554   5.236  17.098  0.00  0.00    +0.000 A 
ATOM     13  C   UNL     1       5.500   3.960  16.543  0.00  0.00    +0.000 A 
ATOM     14  C   UNL     1       4.416   3.127  16.846  0.00  0.00    +0.000 A 
ATOM     15  C   UNL     1       3.387   3.523  17.689  0.00  0.00    +0.000 A 
ATOM     16  N   UNL     1       2.383   2.661  17.914  0.00  0.00    +0.000 NA
ENDBRANCH   1  12
BRANCH   3  17
ATOM     17  C   UNL     1       7.936   8.208  17.547  0.00  0.00    +0.000 C 
ATOM     18  C   UNL     1       7.649   9.717  17.686  0.00  0.00    +0.000 C 
ATOM     19  N   UNL     1       8.786   9.773  18.552  0.00  0.00    +0.000 N 
ATOM     20  C   UNL     1       8.782   8.375  18.825  0.00  0.00    +0.000 C 
BRANCH  19  21
ATOM     21  C   UNL     1       9.603  10.822  18.978  0.00  0.00    +0.000 A 
ATOM     22  C   UNL     1      10.682  11.262  18.192  0.00  0.00    +0.000 A 
ATOM     23  C   UNL     1      11.515  12.302  18.618  0.00  0.00    +0.000 A 
ATOM     24  C   UNL     1      11.275  12.912  19.842  0.00  0.00    +0.000 A 
ATOM     25  F   UNL     1      12.069  13.910  20.250  0.00  0.00    +0.000 F 
ATOM     26  C   UNL     1      10.217  12.487  20.634  0.00  0.00    +0.000 A 
ATOM     27  F   UNL     1       9.989  13.068  21.821  0.00  0.00    +0.000 F 
ATOM     28  C   UNL     1       9.385  11.453  20.210  0.00  0.00    +0.000 A 
ENDBRANCH  19  21
ENDBRANCH   3  17
TORSDOF 3
ENDMDL
MODEL 3
REMARK VINA RESULT:      -8.0      4.356     10.514
REMARK  Name = 
REMARK  5 active torsions:
REMARK  status: ('A' for Active; 'I' for Inactive)
REMARK    1  A    between atoms: C_1  and  C_2
REMARK    2  A    between atoms: C_4  and  C_5
REMARK    3  A    between atoms: C_8  and  C_9
REMARK    4  A    between atoms: N_11  and  C_12
REMARK    5  A    between atoms: N_14  and  C_15
REMARK                            x       y       z     vdW  Elec       q    Type
REMARK                         _______ _______ _______ _____ _____    ______ ____
ROOT
ATOM      1  C   UNL     1       8.497   9.063  18.180  0.00  0.00    +0.000 C 
ATOM      2  O   UNL     1       7.944   9.175  17.090  0.00  0.00    +0.000 OA
ATOM      3  N   UNL     1       8.535   7.873  18.883  0.00  0.00    +0.000 N 
ATOM      4  H   UNL     1       8.827   7.904  19.852  0.00  0.00    +0.000 HD
ENDROOT
BRANCH   1  12
ATOM      5  C   UNL     1      12.195  15.659  20.521  0.00  0.00    +0.000 C 
ATOM      6  C   UNL     1      11.583  14.500  19.793  0.00  0.00    +0.000 A 
ATOM      7  C   UNL     1      11.667  14.397  18.411  0.00  0.00    +0.000 A 
ATOM      8  C   UNL     1      11.083  13.300  17.771  0.00  0.00    +0.000 A 
ATOM      9  C   UNL     1      11.184  13.193  16.274  0.00  0.00    +0.000 C 
ATOM     10  C   UNL     1      10.412  12.327  18.548  0.00  0.00    +0.000 A 
ATOM     11  C   UNL     1       9.782  11.181  18.008  0.00  0.00    +0.000 A 
ATOM     12  C   UNL     1       9.130  10.251  18.825  0.00  0.00    +0.000 A 
ATOM     13  C   UNL     1       9.120  10.444  20.203  0.00  0.00    +0.000 A 
ATOM     14  C   UNL     1       9.747  11.574  20.742  0.00  0.00    +0.000 A 
ATOM     15  C   UNL     1      10.388  12.516  19.949  0.00  0.00    +0.000 A 
ATOM     16  N   UNL     1      10.954  13.575  20.551  0.00  0.00    +0.000 NA
ENDBRANCH   1  12
BRANCH   3  17
ATOM     17  C   UNL     1       7.828   6.671  18.381  0.00  0.00    +0.000 C 
ATOM     18  C   UNL     1       7.176   5.746  19.429  0.00  0.00    +0.000 C 
ATOM     19  N   UNL     1       6.031   5.717  18.575  0.00  0.00    +0.000 N 
ATOM     20  C   UNL     1       6.393   6.899  17.867  0.00  0.00    +0.000 C 
BRANCH  19  21
ATOM     21  C   UNL     1       4.945   4.843  18.474  0.00  0.00    +0.000 A 
ATOM     22  C   UNL     1       4.934   3.814  17.517  0.00  0.00    +0.000 A 
ATOM     23  C   UNL     1       3.845   2.944  17.398  0.00  0.00    +0.000 A 
ATOM     24  C   UNL     1       2.751   3.101  18.239  0.00  0.00    +0.000 A 
ATOM     25  F   UNL     1       1.708   2.267  18.129  0.00  0.00    +0.000 F 
ATOM     26  C   UNL     1       2.742   4.115  19.186  0.00  0.00    +0.000 A 
ATOM     27  F   UNL     1       1.683   4.274  19.992  0.00  0.00    +0.000 F 
ATOM     28  C   UNL     1       3.828   4.981  19.307  0.00  0.00    +0.000 A 
ENDBRANCH  19  21
ENDBRANCH   3  17
TORSDOF 3
ENDMDL
MODEL 4
REMARK VINA RESULT:      -8.0      4.511     10.529
REMARK  Name = 
REMARK  5 active torsions:
REMARK  status: ('A' for Active; 'I' for Inactive)
REMARK    1  A    between atoms: C_1  and  C_2
REMARK    2  A    between atoms: C_4  and  C_5
REMARK    3  A    between atoms: C_8  and  C_9
REMARK    4  A    between atoms: N_11  and  C_12
REMARK    5  A    between atoms: N_14  and  C_15
REMARK                            x       y       z     vdW  Elec       q    Type
REMARK                         _______ _______ _______ _____ _____    ______ ____
ROOT
ATOM      1  C   UNL     1       8.092   8.937  18.167  0.00  0.00    +0.000 C 
ATOM      2  O   UNL     1       8.649   8.176  18.952  0.00  0.00    +0.000 OA
ATOM      3  N   UNL     1       7.073   8.532  17.325  0.00  0.00    +0.000 N 
ATOM      4  H   UNL     1       6.804   9.154  16.573  0.00  0.00    +0.000 HD
ENDROOT
BRANCH   1  12
ATOM      5  C   UNL     1      11.365  16.145  18.241  0.00  0.00    +0.000 C 
ATOM      6  C   UNL     1      10.996  14.700  18.393  0.00  0.00    +0.000 A 
ATOM      7  C   UNL     1      11.819  13.818  19.081  0.00  0.00    +0.000 A 
ATOM      8  C   UNL     1      11.438  12.479  19.200  0.00  0.00    +0.000 A 
ATOM      9  C   UNL     1      12.333  11.531  19.952  0.00  0.00    +0.000 C 
ATOM     10  C   UNL     1      10.225  12.053  18.609  0.00  0.00    +0.000 A 
ATOM     11  C   UNL     1       9.743  10.724  18.663  0.00  0.00    +0.000 A 
ATOM     12  C   UNL     1       8.537  10.357  18.057  0.00  0.00    +0.000 A 
ATOM     13  C   UNL     1       7.780  11.328  17.407  0.00  0.00    +0.000 A 
ATOM     14  C   UNL     1       8.251  12.645  17.356  0.00  0.00    +0.000 A 
ATOM     15  C   UNL     1       9.451  13.027  17.938  0.00  0.00    +0.000 A 
ATOM     16  N   UNL     1       9.829  14.311  17.831  0.00  0.00    +0.000 NA
ENDBRANCH   1  12
BRANCH   3  17
ATOM     17  C   UNL     1       6.648   7.113  17.273  0.00  0.00    +0.000 C 
ATOM     18  C   UNL     1       5.908   6.553  18.505  0.00  0.00    +0.000 C 
ATOM     19  N   UNL     1       4.986   5.964  17.584  0.00  0.00    +0.000 N 
ATOM     20  C   UNL     1       5.340   6.828  16.509  0.00  0.00    +0.000 C 
BRANCH  19  21
ATOM     21  C   UNL     1       4.067   4.918  17.700  0.00  0.00    +0.000 A 
ATOM     22  C   UNL     1       2.702   5.177  17.911  0.00  0.00    +0.000 A 
ATOM     23  C   UNL     1       1.777   4.137  18.044  0.00  0.00    +0.000 A 
ATOM     24  C   UNL     1       2.214   2.821  17.969  0.00  0.00    +0.000 A 
ATOM     25  F   UNL     1       1.329   1.823  18.093  0.00  0.00    +0.000 F 
ATOM     26  C   UNL     1       3.559   2.546  17.767  0.00  0.00    +0.000 A 
ATOM     27  F   UNL     1       3.984   1.276  17.705  0.00  0.00    +0.000 F 
ATOM     28  C   UNL     1       4.481   3.582  17.632  0.00  0.00    +0.000 A 
ENDBRANCH  19  21
ENDBRANCH   3  17
TORSDOF 3
ENDMDL
MODEL 5
REMARK VINA RESULT:      -7.9      6.954      9.467
REMARK  Name = 
REMARK  5 active torsions:
REMARK  status: ('A' for Active; 'I' for Inactive)
REMARK    1  A    between atoms: C_1  and  C_2
REMARK    2  A    between atoms: C_4  and  C_5
REMARK    3  A    between atoms: C_8  and  C_9
REMARK    4  A    between atoms: N_11  and  C_12
REMARK    5  A    between atoms: N_14  and  C_15
REMARK                            x       y       z     vdW  Elec       q    Type
REMARK                         _______ _______ _______ _____ _____    ______ ____
ROOT
ATOM      1  C   UNL     1       0.455  10.792  19.118  0.00  0.00    +0.000 C 
ATOM      2  O   UNL     1       1.358  11.606  18.952  0.00  0.00    +0.000 OA
ATOM      3  N   UNL     1       0.681   9.431  19.220  0.00  0.00    +0.000 N 
ATOM      4  H   UNL     1      -0.117   8.812  19.153  0.00  0.00    +0.000 HD
ENDROOT
BRANCH   1  12
ATOM      5  C   UNL     1      -7.151  12.832  18.308  0.00  0.00    +0.000 C 
ATOM      6  C   UNL     1      -5.742  12.339  18.171  0.00  0.00    +0.000 A 
ATOM      7  C   UNL     1      -5.310  11.720  17.006  0.00  0.00    +0.000 A 
ATOM      8  C   UNL     1      -3.988  11.274  16.918  0.00  0.00    +0.000 A 
ATOM      9  C   UNL     1      -3.525  10.610  15.650  0.00  0.00    +0.000 C 
ATOM     10  C   UNL     1      -3.125  11.458  18.024  0.00  0.00    +0.000 A 
ATOM     11  C   UNL     1      -1.772  11.044  18.049  0.00  0.00    +0.000 A 
ATOM     12  C   UNL     1      -0.965  11.249  19.173  0.00  0.00    +0.000 A 
ATOM     13  C   UNL     1      -1.497  11.897  20.285  0.00  0.00    +0.000 A 
ATOM     14  C   UNL     1      -2.833  12.312  20.262  0.00  0.00    +0.000 A 
ATOM     15  C   UNL     1      -3.656  12.107  19.163  0.00  0.00    +0.000 A 
ATOM     16  N   UNL     1      -4.928  12.530  19.233  0.00  0.00    +0.000 NA
ENDBRANCH   1  12
BRANCH   3  17
ATOM     17  C   UNL     1       2.043   8.872  19.053  0.00  0.00    +0.000 C 
ATOM     18  C   UNL     1       2.223   7.363  19.312  0.00  0.00    +0.000 C 
ATOM     19  N   UNL     1       2.998   7.330  18.110  0.00  0.00    +0.000 N 
ATOM     20  C   UNL     1       2.467   8.552  17.606  0.00  0.00    +0.000 C 
BRANCH  19  21
ATOM     21  C   UNL     1       3.936   6.423  17.611  0.00  0.00    +0.000 A 
ATOM     22  C   UNL     1       3.598   5.073  17.410  0.00  0.00    +0.000 A 
ATOM     23  C   UNL     1       4.535   4.155  16.924  0.00  0.00    +0.000 A 
ATOM     24  C   UNL     1       5.825   4.582  16.638  0.00  0.00    +0.000 A 
ATOM     25  F   UNL     1       6.723   3.704  16.171  0.00  0.00    +0.000 F 
ATOM     26  C   UNL     1       6.178   5.909  16.836  0.00  0.00    +0.000 A 
ATOM     27  F   UNL     1       7.425   6.321  16.570  0.00  0.00    +0.000 F 
ATOM     28  C   UNL     1       5.244   6.825  17.317  0.00  0.00    +0.000 A 
ENDBRANCH  19  21
ENDBRANCH   3  17
TORSDOF 3
ENDMDL
MODEL 6
REMARK VINA RESULT:      -7.9      6.739      8.770
REMARK  Name = 
REMARK  5 active torsions:
REMARK  status: ('A' for Active; 'I' for Inactive)
REMARK    1  A    between atoms: C_1  and  C_2
REMARK    2  A    between atoms: C_4  and  C_5
REMARK    3  A    between atoms: C_8  and  C_9
REMARK    4  A    between atoms: N_11  and  C_12
REMARK    5  A    between atoms: N_14  and  C_15
REMARK                            x       y       z     vdW  Elec       q    Type
REMARK                         _______ _______ _______ _____ _____    ______ ____
ROOT
ATOM      1  C   UNL     1       2.103   8.709  18.310  0.00  0.00    +0.000 C 
ATOM      2  O   UNL     1       2.378   9.583  17.494  0.00  0.00    +0.000 OA
ATOM      3  N   UNL     1       1.327   8.945  19.430  0.00  0.00    +0.000 N 
ATOM      4  H   UNL     1       1.311   8.236  20.153  0.00  0.00    +0.000 HD
ENDROOT
BRANCH   1  12
ATOM      5  C   UNL     1       4.191   1.073  18.208  0.00  0.00    +0.000 C 
ATOM      6  C   UNL     1       3.580   2.424  18.430  0.00  0.00    +0.000 A 
ATOM      7  C   UNL     1       2.499   2.589  19.285  0.00  0.00    +0.000 A 
ATOM      8  C   UNL     1       1.958   3.866  19.464  0.00  0.00    +0.000 A 
ATOM      9  C   UNL     1       0.790   4.037  20.398  0.00  0.00    +0.000 C 
ATOM     10  C   UNL     1       2.522   4.957  18.762  0.00  0.00    +0.000 A 
ATOM     11  C   UNL     1       2.054   6.289  18.863  0.00  0.00    +0.000 A 
ATOM     12  C   UNL     1       2.648   7.330  18.142  0.00  0.00    +0.000 A 
ATOM     13  C   UNL     1       3.741   7.054  17.324  0.00  0.00    +0.000 A 
ATOM     14  C   UNL     1       4.209   5.739  17.226  0.00  0.00    +0.000 A 
ATOM     15  C   UNL     1       3.626   4.689  17.921  0.00  0.00    +0.000 A 
ATOM     16  N   UNL     1       4.136   3.457  17.758  0.00  0.00    +0.000 NA
ENDBRANCH   1  12
BRANCH   3  17
ATOM     17  C   UNL     1       0.844  10.310  19.746  0.00  0.00    +0.000 C 
ATOM     18  C   UNL     1      -0.680  10.541  19.729  0.00  0.00    +0.000 C 
ATOM     19  N   UNL     1      -0.507  11.251  20.958  0.00  0.00    +0.000 N 
ATOM     20  C   UNL     1       0.759  10.663  21.244  0.00  0.00    +0.000 C 
BRANCH  19  21
ATOM     21  C   UNL     1      -1.297  12.183  21.635  0.00  0.00    +0.000 A 
ATOM     22  C   UNL     1      -1.304  13.536  21.253  0.00  0.00    +0.000 A 
ATOM     23  C   UNL     1      -2.080  14.479  21.935  0.00  0.00    +0.000 A 
ATOM     24  C   UNL     1      -2.858  14.074  23.011  0.00  0.00    +0.000 A 
ATOM     25  F   UNL     1      -3.604  14.975  23.663  0.00  0.00    +0.000 F 
ATOM     26  C   UNL     1      -2.860  12.743  23.406  0.00  0.00    +0.000 A 
ATOM     27  F   UNL     1      -3.603  12.352  24.450  0.00  0.00    +0.000 F 
ATOM     28  C   UNL     1      -2.088  11.802  22.725  0.00  0.00    +0.000 A 
ENDBRANCH  19  21
ENDBRANCH   3  17
TORSDOF 3
ENDMDL
MODEL 7
REMARK VINA RESULT:      -7.8      7.345      9.891
REMARK  Name = 
REMARK  5 active torsions:
REMARK  status: ('A' for Active; 'I' for Inactive)
REMARK    1  A    between atoms: C_1  and  C_2
REMARK    2  A    between atoms: C_4  and  C_5
REMARK    3  A    between atoms: C_8  and  C_9
REMARK    4  A    between atoms: N_11  and  C_12
REMARK    5  A    between atoms: N_14  and  C_15
REMARK                            x       y       z     vdW  Elec       q    Type
REMARK                         _______ _______ _______ _____ _____    ______ ____
ROOT
ATOM      1  C   UNL     1       0.372  10.855  19.064  0.00  0.00    +0.000 C 
ATOM      2  O   UNL     1       1.246  11.616  18.660  0.00  0.00    +0.000 OA
ATOM      3  N   UNL     1       0.610   9.522  19.344  0.00  0.00    +0.000 N 
ATOM      4  H   UNL     1      -0.190   8.916  19.477  0.00  0.00    +0.000 HD
ENDROOT
BRANCH   1  12
ATOM      5  C   UNL     1      -7.230  13.055  18.854  0.00  0.00    +0.000 C 
ATOM      6  C   UNL     1      -5.847  12.531  18.608  0.00  0.00    +0.000 A 
ATOM      7  C   UNL     1      -5.523  11.896  17.416  0.00  0.00    +0.000 A 
ATOM      8  C   UNL     1      -4.223  11.421  17.226  0.00  0.00    +0.000 A 
ATOM      9  C   UNL     1      -3.878  10.741  15.929  0.00  0.00    +0.000 C 
ATOM     10  C   UNL     1      -3.270  11.593  18.258  0.00  0.00    +0.000 A 
ATOM     11  C   UNL     1      -1.928  11.150  18.177  0.00  0.00    +0.000 A 
ATOM     12  C   UNL     1      -1.029  11.343  19.230  0.00  0.00    +0.000 A 
ATOM     13  C   UNL     1      -1.456  12.008  20.376  0.00  0.00    +0.000 A 
ATOM     14  C   UNL     1      -2.781  12.453  20.458  0.00  0.00    +0.000 A 
ATOM     15  C   UNL     1      -3.693  12.259  19.430  0.00  0.00    +0.000 A 
ATOM     16  N   UNL     1      -4.947  12.710  19.600  0.00  0.00    +0.000 NA
ENDBRANCH   1  12
BRANCH   3  17
ATOM     17  C   UNL     1       1.939   8.917  19.092  0.00  0.00    +0.000 C 
ATOM     18  C   UNL     1       2.106   7.419  19.416  0.00  0.00    +0.000 C 
ATOM     19  N   UNL     1       2.772   7.302  18.156  0.00  0.00    +0.000 N 
ATOM     20  C   UNL     1       2.228   8.510  17.634  0.00  0.00    +0.000 C 
BRANCH  19  21
ATOM     21  C   UNL     1       3.641   6.344  17.628  0.00  0.00    +0.000 A 
ATOM     22  C   UNL     1       4.828   6.727  16.980  0.00  0.00    +0.000 A 
ATOM     23  C   UNL     1       5.697   5.775  16.435  0.00  0.00    +0.000 A 
ATOM     24  C   UNL     1       5.381   4.427  16.532  0.00  0.00    +0.000 A 
ATOM     25  F   UNL     1       6.213   3.514  16.013  0.00  0.00    +0.000 F 
ATOM     26  C   UNL     1       4.211   4.031  17.163  0.00  0.00    +0.000 A 
ATOM     27  F   UNL     1       3.899   2.730  17.250  0.00  0.00    +0.000 F 
ATOM     28  C   UNL     1       3.345   4.978  17.709  0.00  0.00    +0.000 A 
ENDBRANCH  19  21
ENDBRANCH   3  17
TORSDOF 3
ENDMDL
MODEL 8
REMARK VINA RESULT:      -7.7      7.277      9.597
REMARK  Name = 
REMARK  5 active torsions:
REMARK  status: ('A' for Active; 'I' for Inactive)
REMARK    1  A    between atoms: C_1  and  C_2
REMARK    2  A    between atoms: C_4  and  C_5
REMARK    3  A    between atoms: C_8  and  C_9
REMARK    4  A    between atoms: N_11  and  C_12
REMARK    5  A    between atoms: N_14  and  C_15
REMARK                            x       y       z     vdW  Elec       q    Type
REMARK                         _______ _______ _______ _____ _____    ______ ____
ROOT
ATOM      1  C   UNL     1       1.450   8.325  20.306  0.00  0.00    +0.000 C 
ATOM      2  O   UNL     1       1.767   9.195  19.501  0.00  0.00    +0.000 OA
ATOM      3  N   UNL     1       0.796   8.603  21.492  0.00  0.00    +0.000 N 
ATOM      4  H   UNL     1       0.749   7.871  22.190  0.00  0.00    +0.000 HD
ENDROOT
BRANCH   1  12
ATOM      5  C   UNL     1       3.960   1.171  18.027  0.00  0.00    +0.000 C 
ATOM      6  C   UNL     1       3.658   2.627  18.221  0.00  0.00    +0.000 A 
ATOM      7  C   UNL     1       4.216   3.591  17.392  0.00  0.00    +0.000 A 
ATOM      8  C   UNL     1       3.909   4.938  17.606  0.00  0.00    +0.000 A 
ATOM      9  C   UNL     1       4.513   5.975  16.699  0.00  0.00    +0.000 C 
ATOM     10  C   UNL     1       3.042   5.285  18.669  0.00  0.00    +0.000 A 
ATOM     11  C   UNL     1       2.666   6.613  18.981  0.00  0.00    +0.000 A 
ATOM     12  C   UNL     1       1.807   6.899  20.047  0.00  0.00    +0.000 A 
ATOM     13  C   UNL     1       1.291   5.852  20.805  0.00  0.00    +0.000 A 
ATOM     14  C   UNL     1       1.656   4.536  20.497  0.00  0.00    +0.000 A 
ATOM     15  C   UNL     1       2.518   4.231  19.452  0.00  0.00    +0.000 A 
ATOM     16  N   UNL     1       2.822   2.941  19.235  0.00  0.00    +0.000 NA
ENDBRANCH   1  12
BRANCH   3  17
ATOM     17  C   UNL     1       0.511  10.001  21.893  0.00  0.00    +0.000 C 
ATOM     18  C   UNL     1      -0.755  10.659  21.308  0.00  0.00    +0.000 C 
ATOM     19  N   UNL     1      -1.021  11.137  22.629  0.00  0.00    +0.000 N 
ATOM     20  C   UNL     1      -0.174  10.183  23.262  0.00  0.00    +0.000 C 
BRANCH  19  21
ATOM     21  C   UNL     1      -1.825  12.169  23.120  0.00  0.00    +0.000 A 
ATOM     22  C   UNL     1      -1.321  13.473  23.259  0.00  0.00    +0.000 A 
ATOM     23  C   UNL     1      -2.115  14.508  23.764  0.00  0.00    +0.000 A 
ATOM     24  C   UNL     1      -3.425  14.244  24.139  0.00  0.00    +0.000 A 
ATOM     25  F   UNL     1      -4.187  15.235  24.621  0.00  0.00    +0.000 F 
ATOM     26  C   UNL     1      -3.938  12.961  24.014  0.00  0.00    +0.000 A 
ATOM     27  F   UNL     1      -5.200  12.701  24.385  0.00  0.00    +0.000 F 
ATOM     28  C   UNL     1      -3.149  11.929  23.509  0.00  0.00    +0.000 A 
ENDBRANCH  19  21
ENDBRANCH   3  17
TORSDOF 3
ENDMDL
MODEL 9
REMARK VINA RESULT:      -7.7      6.482      8.550
REMARK  Name = 
REMARK  5 active torsions:
REMARK  status: ('A' for Active; 'I' for Inactive)
REMARK    1  A    between atoms: C_1  and  C_2
REMARK    2  A    between atoms: C_4  and  C_5
REMARK    3  A    between atoms: C_8  and  C_9
REMARK    4  A    between atoms: N_11  and  C_12
REMARK    5  A    between atoms: N_14  and  C_15
REMARK                            x       y       z     vdW  Elec       q    Type
REMARK                         _______ _______ _______ _____ _____    ______ ____
ROOT
ATOM      1  C   UNL     1       2.034   8.642  18.321  0.00  0.00    +0.000 C 
ATOM      2  O   UNL     1       2.224   9.489  17.454  0.00  0.00    +0.000 OA
ATOM      3  N   UNL     1       1.341   8.907  19.489  0.00  0.00    +0.000 N 
ATOM      4  H   UNL     1       1.397   8.228  20.237  0.00  0.00    +0.000 HD
ENDROOT
BRANCH   1  12
ATOM      5  C   UNL     1       4.201   1.029  18.263  0.00  0.00    +0.000 C 
ATOM      6  C   UNL     1       3.573   2.373  18.474  0.00  0.00    +0.000 A 
ATOM      7  C   UNL     1       2.479   2.529  19.314  0.00  0.00    +0.000 A 
ATOM      8  C   UNL     1       1.922   3.800  19.483  0.00  0.00    +0.000 A 
ATOM      9  C   UNL     1       0.740   3.961  20.400  0.00  0.00    +0.000 C 
ATOM     10  C   UNL     1       2.485   4.896  18.787  0.00  0.00    +0.000 A 
ATOM     11  C   UNL     1       2.002   6.223  18.878  0.00  0.00    +0.000 A 
ATOM     12  C   UNL     1       2.595   7.269  18.164  0.00  0.00    +0.000 A 
ATOM     13  C   UNL     1       3.702   7.003  17.361  0.00  0.00    +0.000 A 
ATOM     14  C   UNL     1       4.185   5.692  17.272  0.00  0.00    +0.000 A 
ATOM     15  C   UNL     1       3.603   4.638  17.962  0.00  0.00    +0.000 A 
ATOM     16  N   UNL     1       4.128   3.411  17.808  0.00  0.00    +0.000 NA
ENDBRANCH   1  12
BRANCH   3  17
ATOM     17  C   UNL     1       0.854  10.274  19.790  0.00  0.00    +0.000 C 
ATOM     18  C   UNL     1      -0.673  10.479  19.861  0.00  0.00    +0.000 C 
ATOM     19  N   UNL     1      -0.437  11.233  21.052  0.00  0.00    +0.000 N 
ATOM     20  C   UNL     1       0.855  10.677  21.277  0.00  0.00    +0.000 C 
BRANCH  19  21
ATOM     21  C   UNL     1      -1.201  12.174  21.746  0.00  0.00    +0.000 A 
ATOM     22  C   UNL     1      -2.040  11.784  22.804  0.00  0.00    +0.000 A 
ATOM     23  C   UNL     1      -2.820  12.718  23.495  0.00  0.00    +0.000 A 
ATOM     24  C   UNL     1      -2.768  14.056  23.128  0.00  0.00    +0.000 A 
ATOM     25  F   UNL     1      -3.512  14.951  23.790  0.00  0.00    +0.000 F 
ATOM     26  C   UNL     1      -1.950  14.459  22.083  0.00  0.00    +0.000 A 
ATOM     27  F   UNL     1      -1.905  15.748  21.721  0.00  0.00    +0.000 F 
ATOM     28  C   UNL     1      -1.170  13.530  21.395  0.00  0.00    +0.000 A 
ENDBRANCH  19  21
ENDBRANCH   3  17
TORSDOF 3
ENDMDL
