MODEL 1
REMARK VINA RESULT:      -6.7      0.000      0.000
REMARK  Name = 
REMARK  9 active torsions:
REMARK  status: ('A' for Active; 'I' for Inactive)
REMARK    1  A    between atoms: C_1  and  O_2
REMARK    2  A    between atoms: O_2  and  C_3
REMARK    3  A    between atoms: C_6  and  C_7
REMARK    4  A    between atoms: C_24  and  O_25
REMARK    5  A    between atoms: O_25  and  C_26
REMARK    6  A    between atoms: C_27  and  O_28
REMARK    7  A    between atoms: O_28  and  C_29
REMARK    8  A    between atoms: C_34  and  O_35
REMARK    9  A    between atoms: O_35  and  C_36
REMARK                            x       y       z     vdW  Elec       q    Type
REMARK                         _______ _______ _______ _____ _____    ______ ____
ROOT
ATOM      1  C   UNL     1       0.544  12.866  19.863  0.00  0.00    +0.000 A 
ATOM      2  C   UNL     1       1.548  13.978  20.117  0.00  0.00    +0.000 A 
ATOM      3  C   UNL     1       2.871  14.341  19.633  0.00  0.00    +0.000 A 
ATOM      4  C   UNL     1       3.998  14.457  20.456  0.00  0.00    +0.000 A 
ATOM      5  C   UNL     1       5.169  15.070  19.968  0.00  0.00    +0.000 A 
ATOM      6  C   UNL     1       5.243  15.504  18.630  0.00  0.00    +0.000 A 
ATOM      7  C   UNL     1       4.087  15.509  17.864  0.00  0.00    +0.000 A 
ATOM      8  C   UNL     1       2.901  15.075  18.452  0.00  0.00    +0.000 A 
ATOM      9  O   UNL     1       1.708  15.835  18.131  0.00  0.00    +0.000 OA
ATOM     10  C   UNL     1       0.760  16.111  19.174  0.00  0.00    +0.000 A 
ATOM     11  O   UNL     1       0.026  17.089  19.137  0.00  0.00    +0.000 OA
ATOM     12  C   UNL     1       0.700  15.061  20.159  0.00  0.00    +0.000 A 
ATOM     13  N   UNL     1      -0.293  14.546  20.933  0.00  0.00    +0.000 N 
ATOM     14  C   UNL     1      -0.301  14.322  22.358  0.00  0.00    +0.000 A 
ATOM     15  C   UNL     1      -0.773  13.127  22.838  0.00  0.00    +0.000 A 
ATOM     16  C   UNL     1      -2.063  12.707  22.129  0.00  0.00    +0.000 A 
ATOM     17  C   UNL     1      -3.142  12.430  22.976  0.00  0.00    +0.000 A 
ATOM     18  C   UNL     1      -4.443  12.850  22.658  0.00  0.00    +0.000 A 
ATOM     19  C   UNL     1      -4.596  13.636  21.506  0.00  0.00    +0.000 A 
ATOM     20  C   UNL     1      -3.489  13.747  20.562  0.00  0.00    +0.000 A 
ATOM     21  C   UNL     1      -2.195  13.117  20.791  0.00  0.00    +0.000 A 
ATOM     22  C   UNL     1      -0.800  13.480  20.161  0.00  0.00    +0.000 A 
ENDROOT
BRANCH   1  26
ATOM     23  C   UNL     1       1.816   8.768  18.808  0.00  0.00    +0.000 A 
ATOM     24  C   UNL     1       2.045   9.857  17.941  0.00  0.00    +0.000 A 
ATOM     25  C   UNL     1       1.632  11.190  18.241  0.00  0.00    +0.000 A 
ATOM     26  C   UNL     1       0.958  11.480  19.427  0.00  0.00    +0.000 A 
ATOM     27  C   UNL     1       0.705  10.353  20.269  0.00  0.00    +0.000 A 
ATOM     28  C   UNL     1       1.114   9.014  19.978  0.00  0.00    +0.000 A 
BRANCH  23  30
ATOM     29  C   UNL     1       3.434   7.303  17.826  0.00  0.00    +0.000 C 
ATOM     30  O   UNL     1       2.204   7.482  18.521  0.00  0.00    +0.000 OA
ENDBRANCH  23  30
BRANCH  28  31
ATOM     31  O   UNL     1       0.772   8.109  20.969  0.00  0.00    +0.000 OA
ATOM     32  C   UNL     1      -0.216   8.440  21.941  0.00  0.00    +0.000 C 
ENDBRANCH  28  31
ENDBRANCH   1  26
BRANCH  18  33
ATOM     33  O   UNL     1      -5.309  12.499  23.662  0.00  0.00    +0.000 OA
ATOM     34  C   UNL     1      -4.937  12.318  25.011  0.00  0.00    +0.000 C 
ENDBRANCH  18  33
BRANCH  19  35
ATOM     35  O   UNL     1      -5.820  14.243  21.496  0.00  0.00    +0.000 OA
ATOM     36  C   UNL     1      -6.559  14.782  20.422  0.00  0.00    +0.000 C 
ENDBRANCH  19  35
TORSDOF 5
ENDMDL
MODEL 2
REMARK VINA RESULT:      -6.5      1.121      1.817
REMARK  Name = 
REMARK  9 active torsions:
REMARK  status: ('A' for Active; 'I' for Inactive)
REMARK    1  A    between atoms: C_1  and  O_2
REMARK    2  A    between atoms: O_2  and  C_3
REMARK    3  A    between atoms: C_6  and  C_7
REMARK    4  A    between atoms: C_24  and  O_25
REMARK    5  A    between atoms: O_25  and  C_26
REMARK    6  A    between atoms: C_27  and  O_28
REMARK    7  A    between atoms: O_28  and  C_29
REMARK    8  A    between atoms: C_34  and  O_35
REMARK    9  A    between atoms: O_35  and  C_36
REMARK                            x       y       z     vdW  Elec       q    Type
REMARK                         _______ _______ _______ _____ _____    ______ ____
ROOT
ATOM      1  C   UNL     1       0.248  12.307  20.482  0.00  0.00    +0.000 A 
ATOM      2  C   UNL     1       1.171  13.506  20.616  0.00  0.00    +0.000 A 
ATOM      3  C   UNL     1       2.546  13.827  20.267  0.00  0.00    +0.000 A 
ATOM      4  C   UNL     1       3.522  14.196  21.200  0.00  0.00    +0.000 A 
ATOM      5  C   UNL     1       4.742  14.751  20.764  0.00  0.00    +0.000 A 
ATOM      6  C   UNL     1       5.021  14.872  19.389  0.00  0.00    +0.000 A 
ATOM      7  C   UNL     1       4.004  14.631  18.477  0.00  0.00    +0.000 A 
ATOM      8  C   UNL     1       2.749  14.272  18.964  0.00  0.00    +0.000 A 
ATOM      9  O   UNL     1       1.606  14.865  18.297  0.00  0.00    +0.000 OA
ATOM     10  C   UNL     1       0.497  15.315  19.089  0.00  0.00    +0.000 A 
ATOM     11  O   UNL     1      -0.245  16.213  18.712  0.00  0.00    +0.000 OA
ATOM     12  C   UNL     1       0.303  14.517  20.274  0.00  0.00    +0.000 A 
ATOM     13  N   UNL     1      -0.790  14.133  20.987  0.00  0.00    +0.000 N 
ATOM     14  C   UNL     1      -1.022  14.242  22.407  0.00  0.00    +0.000 A 
ATOM     15  C   UNL     1      -1.538  13.162  23.077  0.00  0.00    +0.000 A 
ATOM     16  C   UNL     1      -2.687  12.514  22.300  0.00  0.00    +0.000 A 
ATOM     17  C   UNL     1      -3.881  12.374  23.016  0.00  0.00    +0.000 A 
ATOM     18  C   UNL     1      -5.123  12.630  22.415  0.00  0.00    +0.000 A 
ATOM     19  C   UNL     1      -5.107  13.122  21.100  0.00  0.00    +0.000 A 
ATOM     20  C   UNL     1      -3.865  13.080  20.336  0.00  0.00    +0.000 A 
ATOM     21  C   UNL     1      -2.610  12.598  20.900  0.00  0.00    +0.000 A 
ATOM     22  C   UNL     1      -1.141  12.891  20.421  0.00  0.00    +0.000 A 
ENDROOT
BRANCH   1  26
ATOM     23  C   UNL     1       1.630   8.120  20.196  0.00  0.00    +0.000 A 
ATOM     24  C   UNL     1       1.262   8.692  21.432  0.00  0.00    +0.000 A 
ATOM     25  C   UNL     1       0.828  10.046  21.565  0.00  0.00    +0.000 A 
ATOM     26  C   UNL     1       0.759  10.886  20.453  0.00  0.00    +0.000 A 
ATOM     27  C   UNL     1       1.174  10.293  19.221  0.00  0.00    +0.000 A 
ATOM     28  C   UNL     1       1.610   8.939  19.078  0.00  0.00    +0.000 A 
BRANCH  23  30
ATOM     29  C   UNL     1       1.465   5.843  20.913  0.00  0.00    +0.000 C 
ATOM     30  O   UNL     1       2.057   6.821  20.064  0.00  0.00    +0.000 OA
ENDBRANCH  23  30
BRANCH  28  31
ATOM     31  O   UNL     1       1.931   8.602  17.773  0.00  0.00    +0.000 OA
ATOM     32  C   UNL     1       3.180   7.986  17.471  0.00  0.00    +0.000 C 
ENDBRANCH  28  31
ENDBRANCH   1  26
BRANCH  18  33
ATOM     33  O   UNL     1      -6.131  12.467  23.331  0.00  0.00    +0.000 OA
ATOM     34  C   UNL     1      -6.766  13.524  24.016  0.00  0.00    +0.000 C 
ENDBRANCH  18  33
BRANCH  19  35
ATOM     35  O   UNL     1      -6.327  13.635  20.763  0.00  0.00    +0.000 OA
ATOM     36  C   UNL     1      -6.655  14.838  20.102  0.00  0.00    +0.000 C 
ENDBRANCH  19  35
TORSDOF 5
ENDMDL
MODEL 3
REMARK VINA RESULT:      -6.5      1.331      1.535
REMARK  Name = 
REMARK  9 active torsions:
REMARK  status: ('A' for Active; 'I' for Inactive)
REMARK    1  A    between atoms: C_1  and  O_2
REMARK    2  A    between atoms: O_2  and  C_3
REMARK    3  A    between atoms: C_6  and  C_7
REMARK    4  A    between atoms: C_24  and  O_25
REMARK    5  A    between atoms: O_25  and  C_26
REMARK    6  A    between atoms: C_27  and  O_28
REMARK    7  A    between atoms: O_28  and  C_29
REMARK    8  A    between atoms: C_34  and  O_35
REMARK    9  A    between atoms: O_35  and  C_36
REMARK                            x       y       z     vdW  Elec       q    Type
REMARK                         _______ _______ _______ _____ _____    ______ ____
ROOT
ATOM      1  C   UNL     1      -0.695  13.241  20.187  0.00  0.00    +0.000 A 
ATOM      2  C   UNL     1       0.139  14.487  20.436  0.00  0.00    +0.000 A 
ATOM      3  C   UNL     1       1.457  14.972  20.056  0.00  0.00    +0.000 A 
ATOM      4  C   UNL     1       2.464  15.293  20.973  0.00  0.00    +0.000 A 
ATOM      5  C   UNL     1       3.603  16.008  20.550  0.00  0.00    +0.000 A 
ATOM      6  C   UNL     1       3.774  16.340  19.192  0.00  0.00    +0.000 A 
ATOM      7  C   UNL     1       2.716  16.138  18.317  0.00  0.00    +0.000 A 
ATOM      8  C   UNL     1       1.531  15.608  18.820  0.00  0.00    +0.000 A 
ATOM      9  O   UNL     1       0.302  16.184  18.313  0.00  0.00    +0.000 OA
ATOM     10  C   UNL     1      -0.781  16.422  19.225  0.00  0.00    +0.000 A 
ATOM     11  O   UNL     1      -1.616  17.295  19.025  0.00  0.00    +0.000 OA
ATOM     12  C   UNL     1      -0.828  15.455  20.293  0.00  0.00    +0.000 A 
ATOM     13  N   UNL     1      -1.834  14.883  21.008  0.00  0.00    +0.000 N 
ATOM     14  C   UNL     1      -1.974  14.775  22.439  0.00  0.00    +0.000 A 
ATOM     15  C   UNL     1      -2.354  13.572  22.978  0.00  0.00    +0.000 A 
ATOM     16  C   UNL     1      -3.501  12.939  22.186  0.00  0.00    +0.000 A 
ATOM     17  C   UNL     1      -4.627  12.598  22.943  0.00  0.00    +0.000 A 
ATOM     18  C   UNL     1      -5.924  12.825  22.459  0.00  0.00    +0.000 A 
ATOM     19  C   UNL     1      -6.039  13.491  21.229  0.00  0.00    +0.000 A 
ATOM     20  C   UNL     1      -4.855  13.664  20.395  0.00  0.00    +0.000 A 
ATOM     21  C   UNL     1      -3.530  13.221  20.809  0.00  0.00    +0.000 A 
ATOM     22  C   UNL     1      -2.126  13.705  20.291  0.00  0.00    +0.000 A 
ENDROOT
BRANCH   1  26
ATOM     23  C   UNL     1       1.210   9.293  19.631  0.00  0.00    +0.000 A 
ATOM     24  C   UNL     1       1.090  10.211  18.566  0.00  0.00    +0.000 A 
ATOM     25  C   UNL     1       0.465  11.487  18.704  0.00  0.00    +0.000 A 
ATOM     26  C   UNL     1      -0.077  11.887  19.925  0.00  0.00    +0.000 A 
ATOM     27  C   UNL     1       0.023  10.925  20.977  0.00  0.00    +0.000 A 
ATOM     28  C   UNL     1       0.646   9.644  20.848  0.00  0.00    +0.000 A 
BRANCH  23  30
ATOM     29  C   UNL     1       2.585   7.825  18.335  0.00  0.00    +0.000 C 
ATOM     30  O   UNL     1       1.803   8.061  19.501  0.00  0.00    +0.000 OA
ENDBRANCH  23  30
BRANCH  28  31
ATOM     31  O   UNL     1       0.638   8.910  22.022  0.00  0.00    +0.000 OA
ATOM     32  C   UNL     1       0.074   9.455  23.212  0.00  0.00    +0.000 C 
ENDBRANCH  28  31
ENDBRANCH   1  26
BRANCH  18  33
ATOM     33  O   UNL     1      -6.850  12.449  23.400  0.00  0.00    +0.000 OA
ATOM     34  C   UNL     1      -7.498  13.339  24.281  0.00  0.00    +0.000 C 
ENDBRANCH  18  33
BRANCH  19  35
ATOM     35  O   UNL     1      -7.317  13.938  21.041  0.00  0.00    +0.000 OA
ATOM     36  C   UNL     1      -7.857  14.741  20.015  0.00  0.00    +0.000 C 
ENDBRANCH  19  35
TORSDOF 5
ENDMDL
MODEL 4
REMARK VINA RESULT:      -6.5      2.797      7.435
REMARK  Name = 
REMARK  9 active torsions:
REMARK  status: ('A' for Active; 'I' for Inactive)
REMARK    1  A    between atoms: C_1  and  O_2
REMARK    2  A    between atoms: O_2  and  C_3
REMARK    3  A    between atoms: C_6  and  C_7
REMARK    4  A    between atoms: C_24  and  O_25
REMARK    5  A    between atoms: O_25  and  C_26
REMARK    6  A    between atoms: C_27  and  O_28
REMARK    7  A    between atoms: O_28  and  C_29
REMARK    8  A    between atoms: C_34  and  O_35
REMARK    9  A    between atoms: O_35  and  C_36
REMARK                            x       y       z     vdW  Elec       q    Type
REMARK                         _______ _______ _______ _____ _____    ______ ____
ROOT
ATOM      1  C   UNL     1      -1.518  13.006  19.943  0.00  0.00    +0.000 A 
ATOM      2  C   UNL     1      -2.555  13.818  20.702  0.00  0.00    +0.000 A 
ATOM      3  C   UNL     1      -3.959  13.674  21.056  0.00  0.00    +0.000 A 
ATOM      4  C   UNL     1      -4.958  14.573  20.665  0.00  0.00    +0.000 A 
ATOM      5  C   UNL     1      -6.231  14.520  21.267  0.00  0.00    +0.000 A 
ATOM      6  C   UNL     1      -6.534  13.519  22.210  0.00  0.00    +0.000 A 
ATOM      7  C   UNL     1      -5.506  12.720  22.690  0.00  0.00    +0.000 A 
ATOM      8  C   UNL     1      -4.217  12.939  22.209  0.00  0.00    +0.000 A 
ATOM      9  O   UNL     1      -3.146  12.863  23.183  0.00  0.00    +0.000 OA
ATOM     10  C   UNL     1      -2.079  13.822  23.117  0.00  0.00    +0.000 A 
ATOM     11  O   UNL     1      -1.434  14.141  24.107  0.00  0.00    +0.000 OA
ATOM     12  C   UNL     1      -1.795  14.242  21.767  0.00  0.00    +0.000 A 
ATOM     13  N   UNL     1      -0.663  14.611  21.110  0.00  0.00    +0.000 N 
ATOM     14  C   UNL     1      -0.429  15.789  20.310  0.00  0.00    +0.000 A 
ATOM     15  C   UNL     1       0.198  15.651  19.098  0.00  0.00    +0.000 A 
ATOM     16  C   UNL     1       1.398  14.706  19.190  0.00  0.00    +0.000 A 
ATOM     17  C   UNL     1       2.608  15.236  18.726  0.00  0.00    +0.000 A 
ATOM     18  C   UNL     1       3.812  15.004  19.408  0.00  0.00    +0.000 A 
ATOM     19  C   UNL     1       3.734  14.300  20.619  0.00  0.00    +0.000 A 
ATOM     20  C   UNL     1       2.495  13.614  20.971  0.00  0.00    +0.000 A 
ATOM     21  C   UNL     1       1.300  13.673  20.138  0.00  0.00    +0.000 A 
ATOM     22  C   UNL     1      -0.195  13.407  20.546  0.00  0.00    +0.000 A 
ENDROOT
BRANCH   1  26
ATOM     23  C   UNL     1      -2.805  10.210  16.774  0.00  0.00    +0.000 A 
ATOM     24  C   UNL     1      -1.509  10.150  17.328  0.00  0.00    +0.000 A 
ATOM     25  C   UNL     1      -1.053  11.048  18.340  0.00  0.00    +0.000 A 
ATOM     26  C   UNL     1      -1.885  12.055  18.828  0.00  0.00    +0.000 A 
ATOM     27  C   UNL     1      -3.178  12.119  18.222  0.00  0.00    +0.000 A 
ATOM     28  C   UNL     1      -3.643  11.224  17.208  0.00  0.00    +0.000 A 
BRANCH  23  30
ATOM     29  C   UNL     1      -3.159   9.796  14.443  0.00  0.00    +0.000 C 
ATOM     30  O   UNL     1      -3.245   9.354  15.794  0.00  0.00    +0.000 OA
ENDBRANCH  23  30
BRANCH  28  31
ATOM     31  O   UNL     1      -4.944  11.480  16.808  0.00  0.00    +0.000 OA
ATOM     32  C   UNL     1      -5.778  12.350  17.569  0.00  0.00    +0.000 C 
ENDBRANCH  28  31
ENDBRANCH   1  26
BRANCH  18  33
ATOM     33  O   UNL     1       4.840  15.664  18.784  0.00  0.00    +0.000 OA
ATOM     34  C   UNL     1       5.807  15.044  17.966  0.00  0.00    +0.000 C 
ENDBRANCH  18  33
BRANCH  19  35
ATOM     35  O   UNL     1       4.894  14.433  21.329  0.00  0.00    +0.000 OA
ATOM     36  C   UNL     1       5.284  13.845  22.551  0.00  0.00    +0.000 C 
ENDBRANCH  19  35
TORSDOF 5
ENDMDL
MODEL 5
REMARK VINA RESULT:      -6.5      2.554      7.259
REMARK  Name = 
REMARK  9 active torsions:
REMARK  status: ('A' for Active; 'I' for Inactive)
REMARK    1  A    between atoms: C_1  and  O_2
REMARK    2  A    between atoms: O_2  and  C_3
REMARK    3  A    between atoms: C_6  and  C_7
REMARK    4  A    between atoms: C_24  and  O_25
REMARK    5  A    between atoms: O_25  and  C_26
REMARK    6  A    between atoms: C_27  and  O_28
REMARK    7  A    between atoms: O_28  and  C_29
REMARK    8  A    between atoms: C_34  and  O_35
REMARK    9  A    between atoms: O_35  and  C_36
REMARK                            x       y       z     vdW  Elec       q    Type
REMARK                         _______ _______ _______ _____ _____    ______ ____
ROOT
ATOM      1  C   UNL     1      -1.358  13.353  20.594  0.00  0.00    +0.000 A 
ATOM      2  C   UNL     1      -2.288  14.261  21.382  0.00  0.00    +0.000 A 
ATOM      3  C   UNL     1      -3.651  14.199  21.887  0.00  0.00    +0.000 A 
ATOM      4  C   UNL     1      -4.659  15.099  21.523  0.00  0.00    +0.000 A 
ATOM      5  C   UNL     1      -5.864  15.142  22.253  0.00  0.00    +0.000 A 
ATOM      6  C   UNL     1      -6.096  14.234  23.304  0.00  0.00    +0.000 A 
ATOM      7  C   UNL     1      -5.047  13.439  23.744  0.00  0.00    +0.000 A 
ATOM      8  C   UNL     1      -3.809  13.571  23.118  0.00  0.00    +0.000 A 
ATOM      9  O   UNL     1      -2.645  13.536  23.982  0.00  0.00    +0.000 OA
ATOM     10  C   UNL     1      -1.564  14.446  23.727  0.00  0.00    +0.000 A 
ATOM     11  O   UNL     1      -0.812  14.821  24.616  0.00  0.00    +0.000 OA
ATOM     12  C   UNL     1      -1.410  14.743  22.324  0.00  0.00    +0.000 A 
ATOM     13  N   UNL     1      -0.342  15.015  21.527  0.00  0.00    +0.000 N 
ATOM     14  C   UNL     1      -0.159  16.114  20.611  0.00  0.00    +0.000 A 
ATOM     15  C   UNL     1       0.334  15.854  19.357  0.00  0.00    +0.000 A 
ATOM     16  C   UNL     1       1.511  14.876  19.408  0.00  0.00    +0.000 A 
ATOM     17  C   UNL     1       2.680  15.322  18.781  0.00  0.00    +0.000 A 
ATOM     18  C   UNL     1       3.941  15.102  19.356  0.00  0.00    +0.000 A 
ATOM     19  C   UNL     1       3.970  14.503  20.624  0.00  0.00    +0.000 A 
ATOM     20  C   UNL     1       2.755  13.894  21.156  0.00  0.00    +0.000 A 
ATOM     21  C   UNL     1       1.483  13.929  20.446  0.00  0.00    +0.000 A 
ATOM     22  C   UNL     1       0.030  13.752  21.024  0.00  0.00    +0.000 A 
ENDROOT
BRANCH   1  26
ATOM     23  C   UNL     1      -2.646  10.383  17.586  0.00  0.00    +0.000 A 
ATOM     24  C   UNL     1      -3.562  11.278  18.179  0.00  0.00    +0.000 A 
ATOM     25  C   UNL     1      -3.186  12.238  19.166  0.00  0.00    +0.000 A 
ATOM     26  C   UNL     1      -1.866  12.327  19.607  0.00  0.00    +0.000 A 
ATOM     27  C   UNL     1      -0.966  11.384  19.021  0.00  0.00    +0.000 A 
ATOM     28  C   UNL     1      -1.334  10.419  18.032  0.00  0.00    +0.000 A 
BRANCH  23  30
ATOM     29  C   UNL     1      -3.058   9.876  15.284  0.00  0.00    +0.000 C 
ATOM     30  O   UNL     1      -3.005   9.452  16.642  0.00  0.00    +0.000 OA
ENDBRANCH  23  30
BRANCH  28  31
ATOM     31  O   UNL     1      -0.271   9.642  17.603  0.00  0.00    +0.000 OA
ATOM     32  C   UNL     1       0.986   9.704  18.271  0.00  0.00    +0.000 C 
ENDBRANCH  28  31
ENDBRANCH   1  26
BRANCH  18  33
ATOM     33  O   UNL     1       4.917  15.671  18.577  0.00  0.00    +0.000 OA
ATOM     34  C   UNL     1       5.905  14.945  17.878  0.00  0.00    +0.000 C 
ENDBRANCH  18  33
BRANCH  19  35
ATOM     35  O   UNL     1       5.200  14.652  21.199  0.00  0.00    +0.000 OA
ATOM     36  C   UNL     1       5.684  15.658  22.062  0.00  0.00    +0.000 C 
ENDBRANCH  19  35
TORSDOF 5
ENDMDL
MODEL 6
REMARK VINA RESULT:      -6.4      2.672      7.356
REMARK  Name = 
REMARK  9 active torsions:
REMARK  status: ('A' for Active; 'I' for Inactive)
REMARK    1  A    between atoms: C_1  and  O_2
REMARK    2  A    between atoms: O_2  and  C_3
REMARK    3  A    between atoms: C_6  and  C_7
REMARK    4  A    between atoms: C_24  and  O_25
REMARK    5  A    between atoms: O_25  and  C_26
REMARK    6  A    between atoms: C_27  and  O_28
REMARK    7  A    between atoms: O_28  and  C_29
REMARK    8  A    between atoms: C_34  and  O_35
REMARK    9  A    between atoms: O_35  and  C_36
REMARK                            x       y       z     vdW  Elec       q    Type
REMARK                         _______ _______ _______ _____ _____    ______ ____
ROOT
ATOM      1  C   UNL     1      -2.627  12.998  20.234  0.00  0.00    +0.000 A 
ATOM      2  C   UNL     1      -3.816  13.705  20.866  0.00  0.00    +0.000 A 
ATOM      3  C   UNL     1      -5.236  13.441  21.034  0.00  0.00    +0.000 A 
ATOM      4  C   UNL     1      -6.248  14.268  20.532  0.00  0.00    +0.000 A 
ATOM      5  C   UNL     1      -7.579  14.098  20.963  0.00  0.00    +0.000 A 
ATOM      6  C   UNL     1      -7.916  13.051  21.843  0.00  0.00    +0.000 A 
ATOM      7  C   UNL     1      -6.896  12.324  22.438  0.00  0.00    +0.000 A 
ATOM      8  C   UNL     1      -5.578  12.657  22.132  0.00  0.00    +0.000 A 
ATOM      9  O   UNL     1      -4.637  12.641  23.234  0.00  0.00    +0.000 OA
ATOM     10  C   UNL     1      -3.653  13.683  23.322  0.00  0.00    +0.000 A 
ATOM     11  O   UNL     1      -3.168  14.025  24.392  0.00  0.00    +0.000 OA
ATOM     12  C   UNL     1      -3.235  14.159  22.027  0.00  0.00    +0.000 A 
ATOM     13  N   UNL     1      -2.063  14.634  21.528  0.00  0.00    +0.000 N 
ATOM     14  C   UNL     1      -1.826  15.848  20.784  0.00  0.00    +0.000 A 
ATOM     15  C   UNL     1      -1.041  15.793  19.661  0.00  0.00    +0.000 A 
ATOM     16  C   UNL     1       0.212  14.943  19.892  0.00  0.00    +0.000 A 
ATOM     17  C   UNL     1       1.423  15.580  19.597  0.00  0.00    +0.000 A 
ATOM     18  C   UNL     1       2.545  15.426  20.425  0.00  0.00    +0.000 A 
ATOM     19  C   UNL     1       2.372  14.686  21.604  0.00  0.00    +0.000 A 
ATOM     20  C   UNL     1       1.159  13.895  21.782  0.00  0.00    +0.000 A 
ATOM     21  C   UNL     1       0.079  13.881  20.803  0.00  0.00    +0.000 A 
ATOM     22  C   UNL     1      -1.430  13.487  21.009  0.00  0.00    +0.000 A 
ENDROOT
BRANCH   1  26
ATOM     23  C   UNL     1      -2.824  10.275  16.761  0.00  0.00    +0.000 A 
ATOM     24  C   UNL     1      -3.923  11.080  17.130  0.00  0.00    +0.000 A 
ATOM     25  C   UNL     1      -3.901  11.957  18.256  0.00  0.00    +0.000 A 
ATOM     26  C   UNL     1      -2.770  12.051  19.066  0.00  0.00    +0.000 A 
ATOM     27  C   UNL     1      -1.686  11.197  18.694  0.00  0.00    +0.000 A 
ATOM     28  C   UNL     1      -1.699  10.315  17.569  0.00  0.00    +0.000 A 
BRANCH  23  30
ATOM     29  C   UNL     1      -3.060   9.991  14.396  0.00  0.00    +0.000 C 
ATOM     30  O   UNL     1      -2.843   9.423  15.684  0.00  0.00    +0.000 OA
ENDBRANCH  23  30
BRANCH  28  31
ATOM     31  O   UNL     1      -0.514   9.616  17.407  0.00  0.00    +0.000 OA
ATOM     32  C   UNL     1       0.595   9.863  18.269  0.00  0.00    +0.000 C 
ENDBRANCH  28  31
ENDBRANCH   1  26
BRANCH  18  33
ATOM     33  O   UNL     1       3.587  16.182  19.950  0.00  0.00    +0.000 OA
ATOM     34  C   UNL     1       3.872  16.379  18.583  0.00  0.00    +0.000 C 
ENDBRANCH  18  33
BRANCH  19  35
ATOM     35  O   UNL     1       3.417  14.892  22.460  0.00  0.00    +0.000 OA
ATOM     36  C   UNL     1       4.679  14.264  22.521  0.00  0.00    +0.000 C 
ENDBRANCH  19  35
TORSDOF 5
ENDMDL
MODEL 7
REMARK VINA RESULT:      -6.4      2.535      7.310
REMARK  Name = 
REMARK  9 active torsions:
REMARK  status: ('A' for Active; 'I' for Inactive)
REMARK    1  A    between atoms: C_1  and  O_2
REMARK    2  A    between atoms: O_2  and  C_3
REMARK    3  A    between atoms: C_6  and  C_7
REMARK    4  A    between atoms: C_24  and  O_25
REMARK    5  A    between atoms: O_25  and  C_26
REMARK    6  A    between atoms: C_27  and  O_28
REMARK    7  A    between atoms: O_28  and  C_29
REMARK    8  A    between atoms: C_34  and  O_35
REMARK    9  A    between atoms: O_35  and  C_36
REMARK                            x       y       z     vdW  Elec       q    Type
REMARK                         _______ _______ _______ _____ _____    ______ ____
ROOT
ATOM      1  C   UNL     1      -1.889  13.420  20.634  0.00  0.00    +0.000 A 
ATOM      2  C   UNL     1      -2.842  14.050  21.636  0.00  0.00    +0.000 A 
ATOM      3  C   UNL     1      -4.058  13.657  22.331  0.00  0.00    +0.000 A 
ATOM      4  C   UNL     1      -5.278  14.334  22.212  0.00  0.00    +0.000 A 
ATOM      5  C   UNL     1      -6.326  14.065  23.115  0.00  0.00    +0.000 A 
ATOM      6  C   UNL     1      -6.185  13.064  24.095  0.00  0.00    +0.000 A 
ATOM      7  C   UNL     1      -4.936  12.494  24.293  0.00  0.00    +0.000 A 
ATOM      8  C   UNL     1      -3.875  12.934  23.506  0.00  0.00    +0.000 A 
ATOM      9  O   UNL     1      -2.601  13.102  24.178  0.00  0.00    +0.000 OA
ATOM     10  C   UNL     1      -1.791  14.242  23.854  0.00  0.00    +0.000 A 
ATOM     11  O   UNL     1      -0.995  14.718  24.652  0.00  0.00    +0.000 OA
ATOM     12  C   UNL     1      -1.938  14.653  22.479  0.00  0.00    +0.000 A 
ATOM     13  N   UNL     1      -1.099  15.204  21.562  0.00  0.00    +0.000 N 
ATOM     14  C   UNL     1      -1.303  16.371  20.739  0.00  0.00    +0.000 A 
ATOM     15  C   UNL     1      -0.983  16.306  19.407  0.00  0.00    +0.000 A 
ATOM     16  C   UNL     1       0.362  15.609  19.186  0.00  0.00    +0.000 A 
ATOM     17  C   UNL     1       1.292  16.341  18.437  0.00  0.00    +0.000 A 
ATOM     18  C   UNL     1       2.649  16.369  18.792  0.00  0.00    +0.000 A 
ATOM     19  C   UNL     1       3.013  15.712  19.978  0.00  0.00    +0.000 A 
ATOM     20  C   UNL     1       2.057  14.819  20.624  0.00  0.00    +0.000 A 
ATOM     21  C   UNL     1       0.705  14.617  20.119  0.00  0.00    +0.000 A 
ATOM     22  C   UNL     1      -0.562  14.088  20.888  0.00  0.00    +0.000 A 
ENDROOT
BRANCH   1  26
ATOM     23  C   UNL     1      -2.980  10.389  17.610  0.00  0.00    +0.000 A 
ATOM     24  C   UNL     1      -3.943  11.262  18.160  0.00  0.00    +0.000 A 
ATOM     25  C   UNL     1      -3.630  12.241  19.151  0.00  0.00    +0.000 A 
ATOM     26  C   UNL     1      -2.330  12.372  19.639  0.00  0.00    +0.000 A 
ATOM     27  C   UNL     1      -1.383  11.450  19.095  0.00  0.00    +0.000 A 
ATOM     28  C   UNL     1      -1.687  10.467  18.102  0.00  0.00    +0.000 A 
BRANCH  23  30
ATOM     29  C   UNL     1      -3.209   9.830  15.294  0.00  0.00    +0.000 C 
ATOM     30  O   UNL     1      -3.278   9.440  16.662  0.00  0.00    +0.000 OA
ENDBRANCH  23  30
BRANCH  28  31
ATOM     31  O   UNL     1      -0.587   9.717  17.720  0.00  0.00    +0.000 OA
ATOM     32  C   UNL     1       0.689   9.952  18.309  0.00  0.00    +0.000 C 
ENDBRANCH  28  31
ENDBRANCH   1  26
BRANCH  18  33
ATOM     33  O   UNL     1       3.342  17.186  17.935  0.00  0.00    +0.000 OA
ATOM     34  C   UNL     1       3.084  17.296  16.553  0.00  0.00    +0.000 C 
ENDBRANCH  18  33
BRANCH  19  35
ATOM     35  O   UNL     1       4.264  16.092  20.374  0.00  0.00    +0.000 OA
ATOM     36  C   UNL     1       5.441  15.328  20.522  0.00  0.00    +0.000 C 
ENDBRANCH  19  35
TORSDOF 5
ENDMDL
MODEL 8
REMARK VINA RESULT:      -6.3      3.276      6.768
REMARK  Name = 
REMARK  9 active torsions:
REMARK  status: ('A' for Active; 'I' for Inactive)
REMARK    1  A    between atoms: C_1  and  O_2
REMARK    2  A    between atoms: O_2  and  C_3
REMARK    3  A    between atoms: C_6  and  C_7
REMARK    4  A    between atoms: C_24  and  O_25
REMARK    5  A    between atoms: O_25  and  C_26
REMARK    6  A    between atoms: C_27  and  O_28
REMARK    7  A    between atoms: O_28  and  C_29
REMARK    8  A    between atoms: C_34  and  O_35
REMARK    9  A    between atoms: O_35  and  C_36
REMARK                            x       y       z     vdW  Elec       q    Type
REMARK                         _______ _______ _______ _____ _____    ______ ____
ROOT
ATOM      1  C   UNL     1      -2.723  13.168  21.542  0.00  0.00    +0.000 A 
ATOM      2  C   UNL     1      -4.115  13.506  21.034  0.00  0.00    +0.000 A 
ATOM      3  C   UNL     1      -5.150  12.840  20.259  0.00  0.00    +0.000 A 
ATOM      4  C   UNL     1      -5.643  13.320  19.041  0.00  0.00    +0.000 A 
ATOM      5  C   UNL     1      -6.821  12.776  18.491  0.00  0.00    +0.000 A 
ATOM      6  C   UNL     1      -7.470  11.696  19.121  0.00  0.00    +0.000 A 
ATOM      7  C   UNL     1      -7.056  11.315  20.389  0.00  0.00    +0.000 A 
ATOM      8  C   UNL     1      -6.007  12.015  20.981  0.00  0.00    +0.000 A 
ATOM      9  O   UNL     1      -6.142  12.302  22.396  0.00  0.00    +0.000 OA
ATOM     10  C   UNL     1      -5.735  13.589  22.885  0.00  0.00    +0.000 A 
ATOM     11  O   UNL     1      -6.227  14.083  23.891  0.00  0.00    +0.000 OA
ATOM     12  C   UNL     1      -4.628  14.138  22.143  0.00  0.00    +0.000 A 
ATOM     13  N   UNL     1      -3.569  14.926  22.470  0.00  0.00    +0.000 N 
ATOM     14  C   UNL     1      -3.117  16.138  21.831  0.00  0.00    +0.000 A 
ATOM     15  C   UNL     1      -1.778  16.292  21.576  0.00  0.00    +0.000 A 
ATOM     16  C   UNL     1      -0.924  15.854  22.769  0.00  0.00    +0.000 A 
ATOM     17  C   UNL     1      -0.015  16.813  23.230  0.00  0.00    +0.000 A 
ATOM     18  C   UNL     1       0.194  17.015  24.603  0.00  0.00    +0.000 A 
ATOM     19  C   UNL     1      -0.614  16.283  25.486  0.00  0.00    +0.000 A 
ATOM     20  C   UNL     1      -1.412  15.174  24.975  0.00  0.00    +0.000 A 
ATOM     21  C   UNL     1      -1.453  14.821  23.562  0.00  0.00    +0.000 A 
ATOM     22  C   UNL     1      -2.550  14.004  22.784  0.00  0.00    +0.000 A 
ENDROOT
BRANCH   1  26
ATOM     23  C   UNL     1       0.122  10.418  19.576  0.00  0.00    +0.000 A 
ATOM     24  C   UNL     1      -0.990  10.945  18.886  0.00  0.00    +0.000 A 
ATOM     25  C   UNL     1      -1.939  11.821  19.494  0.00  0.00    +0.000 A 
ATOM     26  C   UNL     1      -1.812  12.194  20.832  0.00  0.00    +0.000 A 
ATOM     27  C   UNL     1      -0.700  11.615  21.518  0.00  0.00    +0.000 A 
ATOM     28  C   UNL     1       0.255  10.737  20.918  0.00  0.00    +0.000 A 
BRANCH  23  30
ATOM     29  C   UNL     1       1.904  10.107  18.009  0.00  0.00    +0.000 C 
ATOM     30  O   UNL     1       1.033   9.567  18.998  0.00  0.00    +0.000 OA
ENDBRANCH  23  30
BRANCH  28  31
ATOM     31  O   UNL     1       1.255  10.337  21.790  0.00  0.00    +0.000 OA
ATOM     32  C   UNL     1       1.167   9.085  22.466  0.00  0.00    +0.000 C 
ENDBRANCH  28  31
ENDBRANCH   1  26
BRANCH  18  33
ATOM     33  O   UNL     1       1.093  18.033  24.796  0.00  0.00    +0.000 OA
ATOM     34  C   UNL     1       2.494  17.885  24.733  0.00  0.00    +0.000 C 
ENDBRANCH  18  33
BRANCH  19  35
ATOM     35  O   UNL     1      -0.547  16.808  26.746  0.00  0.00    +0.000 OA
ATOM     36  C   UNL     1       0.346  16.526  27.801  0.00  0.00    +0.000 C 
ENDBRANCH  19  35
TORSDOF 5
ENDMDL
MODEL 9
REMARK VINA RESULT:      -6.3      3.383      7.850
REMARK  Name = 
REMARK  9 active torsions:
REMARK  status: ('A' for Active; 'I' for Inactive)
REMARK    1  A    between atoms: C_1  and  O_2
REMARK    2  A    between atoms: O_2  and  C_3
REMARK    3  A    between atoms: C_6  and  C_7
REMARK    4  A    between atoms: C_24  and  O_25
REMARK    5  A    between atoms: O_25  and  C_26
REMARK    6  A    between atoms: C_27  and  O_28
REMARK    7  A    between atoms: O_28  and  C_29
REMARK    8  A    between atoms: C_34  and  O_35
REMARK    9  A    between atoms: O_35  and  C_36
REMARK                            x       y       z     vdW  Elec       q    Type
REMARK                         _______ _______ _______ _____ _____    ______ ____
ROOT
ATOM      1  C   UNL     1      -0.905  10.606  18.852  0.00  0.00    +0.000 A 
ATOM      2  C   UNL     1      -0.753  11.837  19.731  0.00  0.00    +0.000 A 
ATOM      3  C   UNL     1      -1.586  12.958  20.135  0.00  0.00    +0.000 A 
ATOM      4  C   UNL     1      -1.271  14.297  19.877  0.00  0.00    +0.000 A 
ATOM      5  C   UNL     1      -1.977  15.328  20.529  0.00  0.00    +0.000 A 
ATOM      6  C   UNL     1      -3.051  15.025  21.388  0.00  0.00    +0.000 A 
ATOM      7  C   UNL     1      -3.271  13.702  21.742  0.00  0.00    +0.000 A 
ATOM      8  C   UNL     1      -2.421  12.727  21.225  0.00  0.00    +0.000 A 
ATOM      9  O   UNL     1      -2.019  11.674  22.137  0.00  0.00    +0.000 OA
ATOM     10  C   UNL     1      -0.658  11.216  22.111  0.00  0.00    +0.000 A 
ATOM     11  O   UNL     1      -0.123  10.724  23.096  0.00  0.00    +0.000 OA
ATOM     12  C   UNL     1      -0.074  11.289  20.795  0.00  0.00    +0.000 A 
ATOM     13  N   UNL     1       0.840  10.539  20.123  0.00  0.00    +0.000 N 
ATOM     14  C   UNL     1       2.026  10.975  19.427  0.00  0.00    +0.000 A 
ATOM     15  C   UNL     1       2.286  10.467  18.180  0.00  0.00    +0.000 A 
ATOM     16  C   UNL     1       2.046   8.956  18.127  0.00  0.00    +0.000 A 
ATOM     17  C   UNL     1       3.127   8.201  17.660  0.00  0.00    +0.000 A 
ATOM     18  C   UNL     1       3.475   6.981  18.260  0.00  0.00    +0.000 A 
ATOM     19  C   UNL     1       2.753   6.603  19.403  0.00  0.00    +0.000 A 
ATOM     20  C   UNL     1       1.529   7.318  19.745  0.00  0.00    +0.000 A 
ATOM     21  C   UNL     1       1.044   8.459  18.978  0.00  0.00    +0.000 A 
ATOM     22  C   UNL     1       0.056   9.597  19.428  0.00  0.00    +0.000 A 
ENDROOT
BRANCH   1  26
ATOM     23  C   UNL     1      -3.836  10.486  15.548  0.00  0.00    +0.000 A 
ATOM     24  C   UNL     1      -2.657   9.714  15.515  0.00  0.00    +0.000 A 
ATOM     25  C   UNL     1      -1.679   9.740  16.556  0.00  0.00    +0.000 A 
ATOM     26  C   UNL     1      -1.847  10.561  17.671  0.00  0.00    +0.000 A 
ATOM     27  C   UNL     1      -3.030  11.362  17.661  0.00  0.00    +0.000 A 
ATOM     28  C   UNL     1      -4.014  11.342  16.624  0.00  0.00    +0.000 A 
BRANCH  23  30
ATOM     29  C   UNL     1      -4.375   9.970  13.274  0.00  0.00    +0.000 C 
ATOM     30  O   UNL     1      -4.776  10.470  14.546  0.00  0.00    +0.000 OA
ENDBRANCH  23  30
BRANCH  28  31
ATOM     31  O   UNL     1      -5.082  12.190  16.866  0.00  0.00    +0.000 OA
ATOM     32  C   UNL     1      -6.158  11.778  17.705  0.00  0.00    +0.000 C 
ENDBRANCH  28  31
ENDBRANCH   1  26
BRANCH  18  33
ATOM     33  O   UNL     1       4.590   6.460  17.654  0.00  0.00    +0.000 OA
ATOM     34  C   UNL     1       4.949   6.689  16.309  0.00  0.00    +0.000 C 
ENDBRANCH  18  33
BRANCH  19  35
ATOM     35  O   UNL     1       3.396   5.597  20.067  0.00  0.00    +0.000 OA
ATOM     36  C   UNL     1       2.933   4.320  20.450  0.00  0.00    +0.000 C 
ENDBRANCH  19  35
TORSDOF 5
ENDMDL
