MODEL 1
REMARK VINA RESULT:      -7.7      0.000      0.000
REMARK  Name = 
REMARK  5 active torsions:
REMARK  status: ('A' for Active; 'I' for Inactive)
REMARK    1  A    between atoms: C_1  and  C_2
REMARK    2  A    between atoms: C_2  and  O_3
REMARK    3  A    between atoms: O_3  and  C_4
REMARK    4  A    between atoms: N_9  and  C_10
REMARK    5  A    between atoms: N_14  and  C_15
REMARK                            x       y       z     vdW  Elec       q    Type
REMARK                         _______ _______ _______ _____ _____    ______ ____
ROOT
ATOM      1  C   UNL     1       1.422   8.420  20.331  0.00  0.00    +0.000 A 
ATOM      2  C   UNL     1       1.317   8.519  21.660  0.00  0.00    +0.000 A 
ATOM      3  C   UNL     1       0.677   9.685  22.299  0.00  0.00    +0.000 A 
ATOM      4  O   UNL     1       0.682   9.722  23.530  0.00  0.00    +0.000 OA
ATOM      5  N   UNL     1       0.175  10.660  21.452  0.00  0.00    +0.000 N 
ATOM      6  C   UNL     1       0.311  10.576  20.068  0.00  0.00    +0.000 A 
ATOM      7  O   UNL     1      -0.110  11.391  19.246  0.00  0.00    +0.000 OA
ATOM      8  N   UNL     1       0.930   9.454  19.592  0.00  0.00    +0.000 N 
ATOM      9  H   UNL     1       0.957   9.393  18.584  0.00  0.00    +0.000 HD
ENDROOT
BRANCH   1  15
ATOM     10  C   UNL     1       3.886   4.183  17.774  0.00  0.00    +0.000 C 
ATOM     11  O   UNL     1       4.200   4.290  16.594  0.00  0.00    +0.000 OA
ATOM     12  N   UNL     1       3.675   5.257  18.606  0.00  0.00    +0.000 N 
ATOM     13  C   UNL     1       3.725   6.608  18.058  0.00  0.00    +0.000 C 
ATOM     14  C   UNL     1       2.387   7.334  18.272  0.00  0.00    +0.000 C 
ATOM     15  N   UNL     1       2.036   7.336  19.711  0.00  0.00    +0.000 N 
ATOM     16  C   UNL     1       1.957   5.960  20.275  0.00  0.00    +0.000 C 
ATOM     17  C   UNL     1       3.251   5.165  20.007  0.00  0.00    +0.000 C 
BRANCH  10  18
ATOM     18  O   UNL     1       3.622   2.997  18.382  0.00  0.00    +0.000 OA
BRANCH  18  20
ATOM     19  C   UNL     1       1.326   2.371  18.609  0.00  0.00    +0.000 C 
ATOM     20  C   UNL     1       2.582   2.225  17.768  0.00  0.00    +0.000 C 
ENDBRANCH  18  20
ENDBRANCH  10  18
ENDBRANCH   1  15
BRANCH   5  21
ATOM     21  C   UNL     1      -0.492  11.791  22.021  0.00  0.00    +0.000 A 
ATOM     22  C   UNL     1       0.052  13.081  21.910  0.00  0.00    +0.000 A 
ATOM     23  C   UNL     1      -0.586  14.174  22.501  0.00  0.00    +0.000 A 
ATOM     24  C   UNL     1      -1.792  13.998  23.177  0.00  0.00    +0.000 A 
ATOM     25  C   UNL     1      -2.350  12.725  23.268  0.00  0.00    +0.000 A 
ATOM     26 BR   UNL     1      -4.010  12.489  24.141  0.00  0.00    +0.000 Br
ATOM     27  C   UNL     1      -1.700  11.624  22.712  0.00  0.00    +0.000 A 
ENDBRANCH   5  21
TORSDOF 4
ENDMDL
MODEL 2
REMARK VINA RESULT:      -7.6      0.546      1.601
REMARK  Name = 
REMARK  5 active torsions:
REMARK  status: ('A' for Active; 'I' for Inactive)
REMARK    1  A    between atoms: C_1  and  C_2
REMARK    2  A    between atoms: C_2  and  O_3
REMARK    3  A    between atoms: O_3  and  C_4
REMARK    4  A    between atoms: N_9  and  C_10
REMARK    5  A    between atoms: N_14  and  C_15
REMARK                            x       y       z     vdW  Elec       q    Type
REMARK                         _______ _______ _______ _____ _____    ______ ____
ROOT
ATOM      1  C   UNL     1       1.468   8.392  20.154  0.00  0.00    +0.000 A 
ATOM      2  C   UNL     1       0.846   9.291  19.384  0.00  0.00    +0.000 A 
ATOM      3  C   UNL     1       0.165  10.464  19.963  0.00  0.00    +0.000 A 
ATOM      4  O   UNL     1      -0.435  11.205  19.184  0.00  0.00    +0.000 OA
ATOM      5  N   UNL     1       0.219  10.596  21.342  0.00  0.00    +0.000 N 
ATOM      6  C   UNL     1       0.838   9.644  22.150  0.00  0.00    +0.000 A 
ATOM      7  O   UNL     1       0.936   9.688  23.377  0.00  0.00    +0.000 OA
ATOM      8  N   UNL     1       1.426   8.596  21.500  0.00  0.00    +0.000 N 
ATOM      9  H   UNL     1       1.919   7.958  22.109  0.00  0.00    +0.000 HD
ENDROOT
BRANCH   1  15
ATOM     10  C   UNL     1       4.014   4.002  17.962  0.00  0.00    +0.000 C 
ATOM     11  O   UNL     1       4.410   4.049  16.804  0.00  0.00    +0.000 OA
ATOM     12  N   UNL     1       3.770   5.116  18.730  0.00  0.00    +0.000 N 
ATOM     13  C   UNL     1       3.883   6.440  18.127  0.00  0.00    +0.000 C 
ATOM     14  C   UNL     1       2.548   7.197  18.216  0.00  0.00    +0.000 C 
ATOM     15  N   UNL     1       2.101   7.270  19.627  0.00  0.00    +0.000 N 
ATOM     16  C   UNL     1       1.957   5.923  20.244  0.00  0.00    +0.000 C 
ATOM     17  C   UNL     1       3.250   5.095  20.101  0.00  0.00    +0.000 C 
BRANCH  10  18
ATOM     18  O   UNL     1       3.687   2.849  18.604  0.00  0.00    +0.000 OA
BRANCH  18  20
ATOM     19  C   UNL     1       1.351   2.341  18.631  0.00  0.00    +0.000 C 
ATOM     20  C   UNL     1       2.681   2.064  17.951  0.00  0.00    +0.000 C 
ENDBRANCH  18  20
ENDBRANCH  10  18
ENDBRANCH   1  15
BRANCH   5  21
ATOM     21  C   UNL     1      -0.392  11.739  21.949  0.00  0.00    +0.000 A 
ATOM     22  C   UNL     1       0.203  13.008  21.859  0.00  0.00    +0.000 A 
ATOM     23  C   UNL     1      -0.381  14.112  22.485  0.00  0.00    +0.000 A 
ATOM     24  C   UNL     1      -1.581  13.969  23.177  0.00  0.00    +0.000 A 
ATOM     25  C   UNL     1      -2.189  12.718  23.249  0.00  0.00    +0.000 A 
ATOM     26 BR   UNL     1      -3.843  12.529  24.144  0.00  0.00    +0.000 Br
ATOM     27  C   UNL     1      -1.594  11.605  22.656  0.00  0.00    +0.000 A 
ENDBRANCH   5  21
TORSDOF 4
ENDMDL
MODEL 3
REMARK VINA RESULT:      -7.5      1.235      2.161
REMARK  Name = 
REMARK  5 active torsions:
REMARK  status: ('A' for Active; 'I' for Inactive)
REMARK    1  A    between atoms: C_1  and  C_2
REMARK    2  A    between atoms: C_2  and  O_3
REMARK    3  A    between atoms: O_3  and  C_4
REMARK    4  A    between atoms: N_9  and  C_10
REMARK    5  A    between atoms: N_14  and  C_15
REMARK                            x       y       z     vdW  Elec       q    Type
REMARK                         _______ _______ _______ _____ _____    ______ ____
ROOT
ATOM      1  C   UNL     1       1.464   8.352  20.155  0.00  0.00    +0.000 A 
ATOM      2  C   UNL     1       0.788   9.236  19.413  0.00  0.00    +0.000 A 
ATOM      3  C   UNL     1       0.085  10.379  20.025  0.00  0.00    +0.000 A 
ATOM      4  O   UNL     1      -0.564  11.106  19.272  0.00  0.00    +0.000 OA
ATOM      5  N   UNL     1       0.176  10.500  21.403  0.00  0.00    +0.000 N 
ATOM      6  C   UNL     1       0.852   9.564  22.182  0.00  0.00    +0.000 A 
ATOM      7  O   UNL     1       0.987   9.600  23.406  0.00  0.00    +0.000 OA
ATOM      8  N   UNL     1       1.457   8.543  21.504  0.00  0.00    +0.000 N 
ATOM      9  H   UNL     1       1.990   7.917  22.090  0.00  0.00    +0.000 HD
ENDROOT
BRANCH   1  15
ATOM     10  C   UNL     1       4.093   4.075  17.842  0.00  0.00    +0.000 C 
ATOM     11  O   UNL     1       4.454   4.148  16.673  0.00  0.00    +0.000 OA
ATOM     12  N   UNL     1       3.833   5.172  18.629  0.00  0.00    +0.000 N 
ATOM     13  C   UNL     1       3.885   6.505  18.038  0.00  0.00    +0.000 C 
ATOM     14  C   UNL     1       2.528   7.215  18.174  0.00  0.00    +0.000 C 
ATOM     15  N   UNL     1       2.120   7.259  19.597  0.00  0.00    +0.000 N 
ATOM     16  C   UNL     1       2.038   5.901  20.202  0.00  0.00    +0.000 C 
ATOM     17  C   UNL     1       3.353   5.119  20.014  0.00  0.00    +0.000 C 
BRANCH  10  18
ATOM     18  O   UNL     1       3.823   2.905  18.478  0.00  0.00    +0.000 OA
BRANCH  18  20
ATOM     19  C   UNL     1       1.514   2.295  18.594  0.00  0.00    +0.000 C 
ATOM     20  C   UNL     1       2.822   2.096  17.848  0.00  0.00    +0.000 C 
ENDBRANCH  18  20
ENDBRANCH  10  18
ENDBRANCH   1  15
BRANCH   5  21
ATOM     21  C   UNL     1      -0.454  11.616  22.040  0.00  0.00    +0.000 A 
ATOM     22  C   UNL     1      -1.636  11.451  22.780  0.00  0.00    +0.000 A 
ATOM     23  C   UNL     1      -2.265  12.551  23.369  0.00  0.00    +0.000 A 
ATOM     24  C   UNL     1      -1.702  13.821  23.255  0.00  0.00    +0.000 A 
ATOM     25  C   UNL     1      -0.517  13.987  22.543  0.00  0.00    +0.000 A 
ATOM     26 BR   UNL     1       0.276  15.699  22.429  0.00  0.00    +0.000 Br
ATOM     27  C   UNL     1       0.097  12.899  21.924  0.00  0.00    +0.000 A 
ENDBRANCH   5  21
TORSDOF 4
ENDMDL
MODEL 4
REMARK VINA RESULT:      -7.5      1.103      1.453
REMARK  Name = 
REMARK  5 active torsions:
REMARK  status: ('A' for Active; 'I' for Inactive)
REMARK    1  A    between atoms: C_1  and  C_2
REMARK    2  A    between atoms: C_2  and  O_3
REMARK    3  A    between atoms: O_3  and  C_4
REMARK    4  A    between atoms: N_9  and  C_10
REMARK    5  A    between atoms: N_14  and  C_15
REMARK                            x       y       z     vdW  Elec       q    Type
REMARK                         _______ _______ _______ _____ _____    ______ ____
ROOT
ATOM      1  C   UNL     1       1.461   8.367  20.310  0.00  0.00    +0.000 A 
ATOM      2  C   UNL     1       1.379   8.473  21.640  0.00  0.00    +0.000 A 
ATOM      3  C   UNL     1       0.722   9.626  22.284  0.00  0.00    +0.000 A 
ATOM      4  O   UNL     1       0.749   9.672  23.514  0.00  0.00    +0.000 OA
ATOM      5  N   UNL     1       0.180  10.583  21.440  0.00  0.00    +0.000 N 
ATOM      6  C   UNL     1       0.292  10.493  20.054  0.00  0.00    +0.000 A 
ATOM      7  O   UNL     1      -0.166  11.291  19.236  0.00  0.00    +0.000 OA
ATOM      8  N   UNL     1       0.930   9.383  19.574  0.00  0.00    +0.000 N 
ATOM      9  H   UNL     1       0.939   9.316  18.566  0.00  0.00    +0.000 HD
ENDROOT
BRANCH   1  15
ATOM     10  C   UNL     1       3.985   4.177  17.734  0.00  0.00    +0.000 C 
ATOM     11  O   UNL     1       4.287   4.289  16.552  0.00  0.00    +0.000 OA
ATOM     12  N   UNL     1       3.761   5.247  18.567  0.00  0.00    +0.000 N 
ATOM     13  C   UNL     1       3.779   6.599  18.018  0.00  0.00    +0.000 C 
ATOM     14  C   UNL     1       2.429   7.299  18.243  0.00  0.00    +0.000 C 
ATOM     15  N   UNL     1       2.092   7.295  19.685  0.00  0.00    +0.000 N 
ATOM     16  C   UNL     1       2.044   5.918  20.251  0.00  0.00    +0.000 C 
ATOM     17  C   UNL     1       3.350   5.148  19.972  0.00  0.00    +0.000 C 
BRANCH  10  18
ATOM     18  O   UNL     1       3.750   2.986  18.345  0.00  0.00    +0.000 OA
BRANCH  18  20
ATOM     19  C   UNL     1       1.486   2.282  18.659  0.00  0.00    +0.000 C 
ATOM     20  C   UNL     1       2.704   2.204  17.754  0.00  0.00    +0.000 C 
ENDBRANCH  18  20
ENDBRANCH  10  18
ENDBRANCH   1  15
BRANCH   5  21
ATOM     21  C   UNL     1      -0.504  11.700  22.016  0.00  0.00    +0.000 A 
ATOM     22  C   UNL     1      -1.738  11.535  22.665  0.00  0.00    +0.000 A 
ATOM     23  C   UNL     1      -2.417  12.637  23.192  0.00  0.00    +0.000 A 
ATOM     24  C   UNL     1      -1.855  13.909  23.108  0.00  0.00    +0.000 A 
ATOM     25  C   UNL     1      -0.619  14.076  22.488  0.00  0.00    +0.000 A 
ATOM     26 BR   UNL     1       0.169  15.792  22.416  0.00  0.00    +0.000 Br
ATOM     27  C   UNL     1       0.047  12.986  21.929  0.00  0.00    +0.000 A 
ENDBRANCH   5  21
TORSDOF 4
ENDMDL
MODEL 5
REMARK VINA RESULT:      -7.4      3.612      9.200
REMARK  Name = 
REMARK  5 active torsions:
REMARK  status: ('A' for Active; 'I' for Inactive)
REMARK    1  A    between atoms: C_1  and  C_2
REMARK    2  A    between atoms: C_2  and  O_3
REMARK    3  A    between atoms: O_3  and  C_4
REMARK    4  A    between atoms: N_9  and  C_10
REMARK    5  A    between atoms: N_14  and  C_15
REMARK                            x       y       z     vdW  Elec       q    Type
REMARK                         _______ _______ _______ _____ _____    ______ ____
ROOT
ATOM      1  C   UNL     1       1.072   8.606  20.249  0.00  0.00    +0.000 A 
ATOM      2  C   UNL     1       1.590   8.846  19.041  0.00  0.00    +0.000 A 
ATOM      3  C   UNL     1       2.431   7.850  18.350  0.00  0.00    +0.000 A 
ATOM      4  O   UNL     1       2.919   8.181  17.269  0.00  0.00    +0.000 OA
ATOM      5  N   UNL     1       2.640   6.648  19.009  0.00  0.00    +0.000 N 
ATOM      6  C   UNL     1       2.128   6.407  20.282  0.00  0.00    +0.000 A 
ATOM      7  O   UNL     1       2.260   5.370  20.933  0.00  0.00    +0.000 OA
ATOM      8  N   UNL     1       1.372   7.408  20.825  0.00  0.00    +0.000 N 
ATOM      9  H   UNL     1       0.964   7.178  21.720  0.00  0.00    +0.000 HD
ENDROOT
BRANCH   1  15
ATOM     10  C   UNL     1      -2.071  12.228  22.999  0.00  0.00    +0.000 C 
ATOM     11  O   UNL     1      -2.857  11.824  23.847  0.00  0.00    +0.000 OA
ATOM     12  N   UNL     1      -0.975  11.515  22.574  0.00  0.00    +0.000 N 
ATOM     13  C   UNL     1      -0.768  10.158  23.070  0.00  0.00    +0.000 C 
ATOM     14  C   UNL     1      -0.744   9.150  21.910  0.00  0.00    +0.000 C 
ATOM     15  N   UNL     1       0.290   9.540  20.923  0.00  0.00    +0.000 N 
ATOM     16  C   UNL     1       0.073  10.913  20.390  0.00  0.00    +0.000 C 
ATOM     17  C   UNL     1      -0.044  11.947  21.527  0.00  0.00    +0.000 C 
BRANCH  10  18
ATOM     18  O   UNL     1      -2.231  13.390  22.312  0.00  0.00    +0.000 OA
BRANCH  18  20
ATOM     19  C   UNL     1      -3.696  13.017  20.459  0.00  0.00    +0.000 C 
ATOM     20  C   UNL     1      -3.564  13.631  21.842  0.00  0.00    +0.000 C 
ENDBRANCH  18  20
ENDBRANCH  10  18
ENDBRANCH   1  15
BRANCH   5  21
ATOM     21  C   UNL     1       3.415   5.634  18.363  0.00  0.00    +0.000 A 
ATOM     22  C   UNL     1       2.794   4.582  17.672  0.00  0.00    +0.000 A 
ATOM     23  C   UNL     1       3.557   3.575  17.075  0.00  0.00    +0.000 A 
ATOM     24  C   UNL     1       4.949   3.627  17.131  0.00  0.00    +0.000 A 
ATOM     25  C   UNL     1       5.571   4.682  17.793  0.00  0.00    +0.000 A 
ATOM     26 BR   UNL     1       7.459   4.783  17.828  0.00  0.00    +0.000 Br
ATOM     27  C   UNL     1       4.815   5.671  18.421  0.00  0.00    +0.000 A 
ENDBRANCH   5  21
TORSDOF 4
ENDMDL
MODEL 6
REMARK VINA RESULT:      -7.3      3.569      9.218
REMARK  Name = 
REMARK  5 active torsions:
REMARK  status: ('A' for Active; 'I' for Inactive)
REMARK    1  A    between atoms: C_1  and  C_2
REMARK    2  A    between atoms: C_2  and  O_3
REMARK    3  A    between atoms: O_3  and  C_4
REMARK    4  A    between atoms: N_9  and  C_10
REMARK    5  A    between atoms: N_14  and  C_15
REMARK                            x       y       z     vdW  Elec       q    Type
REMARK                         _______ _______ _______ _____ _____    ______ ____
ROOT
ATOM      1  C   UNL     1       1.119   8.989  20.232  0.00  0.00    +0.000 A 
ATOM      2  C   UNL     1       1.269   7.831  20.882  0.00  0.00    +0.000 A 
ATOM      3  C   UNL     1       1.952   6.680  20.262  0.00  0.00    +0.000 A 
ATOM      4  O   UNL     1       1.988   5.634  20.911  0.00  0.00    +0.000 OA
ATOM      5  N   UNL     1       2.446   6.867  18.981  0.00  0.00    +0.000 N 
ATOM      6  C   UNL     1       2.264   8.061  18.287  0.00  0.00    +0.000 A 
ATOM      7  O   UNL     1       2.674   8.312  17.153  0.00  0.00    +0.000 OA
ATOM      8  N   UNL     1       1.607   9.053  18.961  0.00  0.00    +0.000 N 
ATOM      9  H   UNL     1       1.547   9.925  18.455  0.00  0.00    +0.000 HD
ENDROOT
BRANCH   1  15
ATOM     10  C   UNL     1      -1.496  13.371  22.357  0.00  0.00    +0.000 C 
ATOM     11  O   UNL     1      -1.720  14.344  21.647  0.00  0.00    +0.000 OA
ATOM     12  N   UNL     1      -1.257  12.109  21.867  0.00  0.00    +0.000 N 
ATOM     13  C   UNL     1      -1.162  11.906  20.426  0.00  0.00    +0.000 C 
ATOM     14  C   UNL     1       0.213  11.333  20.044  0.00  0.00    +0.000 C 
ATOM     15  N   UNL     1       0.464  10.080  20.794  0.00  0.00    +0.000 N 
ATOM     16  C   UNL     1       0.395  10.281  22.268  0.00  0.00    +0.000 C 
ATOM     17  C   UNL     1      -0.937  10.935  22.687  0.00  0.00    +0.000 C 
BRANCH  10  18
ATOM     18  O   UNL     1      -1.370  13.435  23.709  0.00  0.00    +0.000 OA
BRANCH  18  20
ATOM     19  C   UNL     1      -2.900  14.745  24.997  0.00  0.00    +0.000 C 
ATOM     20  C   UNL     1      -1.567  14.740  24.269  0.00  0.00    +0.000 C 
ENDBRANCH  18  20
ENDBRANCH  10  18
ENDBRANCH   1  15
BRANCH   5  21
ATOM     21  C   UNL     1       3.153   5.793  18.351  0.00  0.00    +0.000 A 
ATOM     22  C   UNL     1       2.463   4.720  17.766  0.00  0.00    +0.000 A 
ATOM     23  C   UNL     1       3.162   3.658  17.186  0.00  0.00    +0.000 A 
ATOM     24  C   UNL     1       4.554   3.674  17.152  0.00  0.00    +0.000 A 
ATOM     25  C   UNL     1       5.244   4.748  17.708  0.00  0.00    +0.000 A 
ATOM     26 BR   UNL     1       7.132   4.797  17.620  0.00  0.00    +0.000 Br
ATOM     27  C   UNL     1       4.554   5.794  18.320  0.00  0.00    +0.000 A 
ENDBRANCH   5  21
TORSDOF 4
ENDMDL
MODEL 7
REMARK VINA RESULT:      -7.3      3.595      9.103
REMARK  Name = 
REMARK  5 active torsions:
REMARK  status: ('A' for Active; 'I' for Inactive)
REMARK    1  A    between atoms: C_1  and  C_2
REMARK    2  A    between atoms: C_2  and  O_3
REMARK    3  A    between atoms: O_3  and  C_4
REMARK    4  A    between atoms: N_9  and  C_10
REMARK    5  A    between atoms: N_14  and  C_15
REMARK                            x       y       z     vdW  Elec       q    Type
REMARK                         _______ _______ _______ _____ _____    ______ ____
ROOT
ATOM      1  C   UNL     1       1.120   8.489  20.364  0.00  0.00    +0.000 A 
ATOM      2  C   UNL     1       1.348   7.296  20.922  0.00  0.00    +0.000 A 
ATOM      3  C   UNL     1       2.162   6.270  20.242  0.00  0.00    +0.000 A 
ATOM      4  O   UNL     1       2.267   5.177  20.801  0.00  0.00    +0.000 OA
ATOM      5  N   UNL     1       2.691   6.612  19.007  0.00  0.00    +0.000 N 
ATOM      6  C   UNL     1       2.428   7.843  18.409  0.00  0.00    +0.000 A 
ATOM      7  O   UNL     1       2.861   8.229  17.323  0.00  0.00    +0.000 OA
ATOM      8  N   UNL     1       1.654   8.708  19.130  0.00  0.00    +0.000 N 
ATOM      9  H   UNL     1       1.534   9.613  18.697  0.00  0.00    +0.000 HD
ENDROOT
BRANCH   1  15
ATOM     10  C   UNL     1      -2.001  12.278  22.906  0.00  0.00    +0.000 C 
ATOM     11  O   UNL     1      -2.724  11.941  23.836  0.00  0.00    +0.000 OA
ATOM     12  N   UNL     1      -0.904  11.559  22.494  0.00  0.00    +0.000 N 
ATOM     13  C   UNL     1      -0.620  10.269  23.113  0.00  0.00    +0.000 C 
ATOM     14  C   UNL     1      -0.622   9.147  22.063  0.00  0.00    +0.000 C 
ATOM     15  N   UNL     1       0.341   9.463  20.983  0.00  0.00    +0.000 N 
ATOM     16  C   UNL     1       0.045  10.766  20.326  0.00  0.00    +0.000 C 
ATOM     17  C   UNL     1      -0.047  11.909  21.356  0.00  0.00    +0.000 C 
BRANCH  10  18
ATOM     18  O   UNL     1      -2.240  13.357  22.115  0.00  0.00    +0.000 OA
BRANCH  18  20
ATOM     19  C   UNL     1      -4.036  13.337  20.536  0.00  0.00    +0.000 C 
ATOM     20  C   UNL     1      -3.626  13.689  21.956  0.00  0.00    +0.000 C 
ENDBRANCH  18  20
ENDBRANCH  10  18
ENDBRANCH   1  15
BRANCH   5  21
ATOM     21  C   UNL     1       3.521   5.667  18.327  0.00  0.00    +0.000 A 
ATOM     22  C   UNL     1       2.961   4.669  17.512  0.00  0.00    +0.000 A 
ATOM     23  C   UNL     1       3.776   3.727  16.881  0.00  0.00    +0.000 A 
ATOM     24  C   UNL     1       5.161   3.792  17.025  0.00  0.00    +0.000 A 
ATOM     25  C   UNL     1       5.724   4.795  17.811  0.00  0.00    +0.000 A 
ATOM     26 BR   UNL     1       7.603   4.917  17.969  0.00  0.00    +0.000 Br
ATOM     27  C   UNL     1       4.914   5.716  18.472  0.00  0.00    +0.000 A 
ENDBRANCH   5  21
TORSDOF 4
ENDMDL
MODEL 8
REMARK VINA RESULT:      -7.2      1.107      2.536
REMARK  Name = 
REMARK  5 active torsions:
REMARK  status: ('A' for Active; 'I' for Inactive)
REMARK    1  A    between atoms: C_1  and  C_2
REMARK    2  A    between atoms: C_2  and  O_3
REMARK    3  A    between atoms: O_3  and  C_4
REMARK    4  A    between atoms: N_9  and  C_10
REMARK    5  A    between atoms: N_14  and  C_15
REMARK                            x       y       z     vdW  Elec       q    Type
REMARK                         _______ _______ _______ _____ _____    ______ ____
ROOT
ATOM      1  C   UNL     1       1.411   8.299  20.377  0.00  0.00    +0.000 A 
ATOM      2  C   UNL     1       0.806   9.177  19.570  0.00  0.00    +0.000 A 
ATOM      3  C   UNL     1       0.103  10.359  20.105  0.00  0.00    +0.000 A 
ATOM      4  O   UNL     1      -0.480  11.078  19.293  0.00  0.00    +0.000 OA
ATOM      5  N   UNL     1       0.119  10.522  21.481  0.00  0.00    +0.000 N 
ATOM      6  C   UNL     1       0.722   9.592  22.327  0.00  0.00    +0.000 A 
ATOM      7  O   UNL     1       0.787   9.664  23.554  0.00  0.00    +0.000 OA
ATOM      8  N   UNL     1       1.333   8.533  21.716  0.00  0.00    +0.000 N 
ATOM      9  H   UNL     1       1.813   7.912  22.352  0.00  0.00    +0.000 HD
ENDROOT
BRANCH   1  15
ATOM     10  C   UNL     1       3.962   3.751  18.542  0.00  0.00    +0.000 C 
ATOM     11  O   UNL     1       3.980   2.745  19.241  0.00  0.00    +0.000 OA
ATOM     12  N   UNL     1       3.037   4.758  18.680  0.00  0.00    +0.000 N 
ATOM     13  C   UNL     1       2.074   4.700  19.774  0.00  0.00    +0.000 C 
ATOM     14  C   UNL     1       2.209   5.929  20.688  0.00  0.00    +0.000 C 
ATOM     15  N   UNL     1       2.065   7.170  19.892  0.00  0.00    +0.000 N 
ATOM     16  C   UNL     1       3.061   7.252  18.789  0.00  0.00    +0.000 C 
ATOM     17  C   UNL     1       3.018   5.996  17.895  0.00  0.00    +0.000 C 
BRANCH  10  18
ATOM     18  O   UNL     1       4.903   4.036  17.604  0.00  0.00    +0.000 OA
BRANCH  18  20
ATOM     19  C   UNL     1       7.134   4.620  16.971  0.00  0.00    +0.000 C 
ATOM     20  C   UNL     1       6.164   4.471  18.130  0.00  0.00    +0.000 C 
ENDBRANCH  18  20
ENDBRANCH  10  18
ENDBRANCH   1  15
BRANCH   5  21
ATOM     21  C   UNL     1      -0.513  11.674  22.046  0.00  0.00    +0.000 A 
ATOM     22  C   UNL     1       0.058  12.950  21.911  0.00  0.00    +0.000 A 
ATOM     23  C   UNL     1      -0.547  14.065  22.496  0.00  0.00    +0.000 A 
ATOM     24  C   UNL     1      -1.746  13.925  23.191  0.00  0.00    +0.000 A 
ATOM     25  C   UNL     1      -2.331  12.666  23.307  0.00  0.00    +0.000 A 
ATOM     26 BR   UNL     1      -3.984  12.479  24.206  0.00  0.00    +0.000 Br
ATOM     27  C   UNL     1      -1.715  11.544  22.755  0.00  0.00    +0.000 A 
ENDBRANCH   5  21
TORSDOF 4
ENDMDL
MODEL 9
REMARK VINA RESULT:      -7.2      3.606      9.348
REMARK  Name = 
REMARK  5 active torsions:
REMARK  status: ('A' for Active; 'I' for Inactive)
REMARK    1  A    between atoms: C_1  and  C_2
REMARK    2  A    between atoms: C_2  and  O_3
REMARK    3  A    between atoms: O_3  and  C_4
REMARK    4  A    between atoms: N_9  and  C_10
REMARK    5  A    between atoms: N_14  and  C_15
REMARK                            x       y       z     vdW  Elec       q    Type
REMARK                         _______ _______ _______ _____ _____    ______ ____
ROOT
ATOM      1  C   UNL     1       1.010   9.181  20.049  0.00  0.00    +0.000 A 
ATOM      2  C   UNL     1       1.508   9.283  18.813  0.00  0.00    +0.000 A 
ATOM      3  C   UNL     1       2.254   8.175  18.186  0.00  0.00    +0.000 A 
ATOM      4  O   UNL     1       2.730   8.381  17.070  0.00  0.00    +0.000 OA
ATOM      5  N   UNL     1       2.396   7.019  18.937  0.00  0.00    +0.000 N 
ATOM      6  C   UNL     1       1.907   6.920  20.238  0.00  0.00    +0.000 A 
ATOM      7  O   UNL     1       1.984   5.932  20.969  0.00  0.00    +0.000 OA
ATOM      8  N   UNL     1       1.241   8.015  20.715  0.00  0.00    +0.000 N 
ATOM      9  H   UNL     1       0.846   7.889  21.636  0.00  0.00    +0.000 HD
ENDROOT
BRANCH   1  15
ATOM     10  C   UNL     1      -1.760  13.361  22.376  0.00  0.00    +0.000 C 
ATOM     11  O   UNL     1      -2.107  14.313  21.688  0.00  0.00    +0.000 OA
ATOM     12  N   UNL     1      -1.465  12.118  21.866  0.00  0.00    +0.000 N 
ATOM     13  C   UNL     1      -1.460  11.921  20.420  0.00  0.00    +0.000 C 
ATOM     14  C   UNL     1      -0.079  11.451  19.937  0.00  0.00    +0.000 C 
ATOM     15  N   UNL     1       0.318  10.221  20.662  0.00  0.00    +0.000 N 
ATOM     16  C   UNL     1       0.343  10.419  22.138  0.00  0.00    +0.000 C 
ATOM     17  C   UNL     1      -1.000  10.973  22.655  0.00  0.00    +0.000 C 
BRANCH  10  18
ATOM     18  O   UNL     1      -1.540  13.436  23.716  0.00  0.00    +0.000 OA
BRANCH  18  20
ATOM     19  C   UNL     1      -2.630  14.968  25.193  0.00  0.00    +0.000 C 
ATOM     20  C   UNL     1      -1.466  14.769  24.238  0.00  0.00    +0.000 C 
ENDBRANCH  18  20
ENDBRANCH  10  18
ENDBRANCH   1  15
BRANCH   5  21
ATOM     21  C   UNL     1       3.076   5.901  18.358  0.00  0.00    +0.000 A 
ATOM     22  C   UNL     1       2.359   4.824  17.813  0.00  0.00    +0.000 A 
ATOM     23  C   UNL     1       3.031   3.719  17.283  0.00  0.00    +0.000 A 
ATOM     24  C   UNL     1       4.424   3.694  17.258  0.00  0.00    +0.000 A 
ATOM     25  C   UNL     1       5.141   4.772  17.775  0.00  0.00    +0.000 A 
ATOM     26 BR   UNL     1       7.029   4.764  17.698  0.00  0.00    +0.000 Br
ATOM     27  C   UNL     1       4.477   5.860  18.337  0.00  0.00    +0.000 A 
ENDBRANCH   5  21
TORSDOF 4
ENDMDL
