MODEL 1
REMARK VINA RESULT:      -7.1      0.000      0.000
REMARK  Name = 
REMARK  6 active torsions:
REMARK  status: ('A' for Active; 'I' for Inactive)
REMARK    1  A    between atoms: C_1  and  C_2
REMARK    2  A    between atoms: C_2  and  S_3
REMARK    3  A    between atoms: S_3  and  C_6
REMARK    4  A    between atoms: C_6  and  C_7
REMARK    5  A    between atoms: C_7  and  N_8
REMARK    6  A    between atoms: C_9  and  C_11
REMARK                            x       y       z     vdW  Elec       q    Type
REMARK                         _______ _______ _______ _____ _____    ______ ____
ROOT
ATOM      1  N   UNL     1       4.598   5.198  18.151  0.00  0.00    +0.000 N 
ATOM      2  C   UNL     1       5.883   4.804  17.858  0.00  0.00    +0.000 C 
ATOM      3  O   UNL     1       6.706   4.535  18.735  0.00  0.00    +0.000 OA
ATOM      4  H   UNL     1       3.971   5.334  17.350  0.00  0.00    +0.000 HD
ENDROOT
BRANCH   2   5
ATOM      5  C   UNL     1       6.223   4.753  16.442  0.00  0.00    +0.000 A 
ATOM      6  C   UNL     1       5.672   3.873  15.534  0.00  0.00    +0.000 A 
ATOM      7  N   UNL     1       6.284   4.140  14.344  0.00  0.00    +0.000 N 
ATOM      8  C   UNL     1       6.093   3.549  13.105  0.00  0.00    +0.000 A 
ATOM      9  C   UNL     1       6.840   3.952  12.072  0.00  0.00    +0.000 A 
ATOM     10  C   UNL     1       7.830   5.018  12.390  0.00  0.00    +0.000 A 
ATOM     11  N   UNL     1       8.003   5.598  13.539  0.00  0.00    +0.000 NA
ATOM     12  C   UNL     1       7.201   5.164  14.559  0.00  0.00    +0.000 A 
ATOM     13  N   UNL     1       7.160   5.561  15.818  0.00  0.00    +0.000 NA
ENDBRANCH   2   5
BRANCH   1  14
ATOM     14  C   UNL     1       4.090   5.155  19.508  0.00  0.00    +0.000 C 
BRANCH  14  15
ATOM     15  C   UNL     1       2.575   5.098  19.587  0.00  0.00    +0.000 C 
BRANCH  15  16
ATOM     16  S   UNL     1       1.962   3.675  18.710  0.00  0.00    +0.000 S 
ATOM     17  O   UNL     1       3.066   2.743  18.570  0.00  0.00    +0.000 OA
ATOM     18  O   UNL     1       1.236   4.155  17.550  0.00  0.00    +0.000 OA
BRANCH  16  20
ATOM     19  C   UNL     1       1.362   2.783  21.212  0.00  0.00    +0.000 C 
ATOM     20  C   UNL     1       0.774   2.945  19.822  0.00  0.00    +0.000 C 
ENDBRANCH  16  20
ENDBRANCH  15  16
ENDBRANCH  14  15
ENDBRANCH   1  14
TORSDOF 5
ENDMDL
MODEL 2
REMARK VINA RESULT:      -7.0      0.988      1.002
REMARK  Name = 
REMARK  6 active torsions:
REMARK  status: ('A' for Active; 'I' for Inactive)
REMARK    1  A    between atoms: C_1  and  C_2
REMARK    2  A    between atoms: C_2  and  S_3
REMARK    3  A    between atoms: S_3  and  C_6
REMARK    4  A    between atoms: C_6  and  C_7
REMARK    5  A    between atoms: C_7  and  N_8
REMARK    6  A    between atoms: C_9  and  C_11
REMARK                            x       y       z     vdW  Elec       q    Type
REMARK                         _______ _______ _______ _____ _____    ______ ____
ROOT
ATOM      1  N   UNL     1       5.171   3.912  18.138  0.00  0.00    +0.000 N 
ATOM      2  C   UNL     1       6.402   4.378  17.739  0.00  0.00    +0.000 C 
ATOM      3  O   UNL     1       7.272   4.717  18.544  0.00  0.00    +0.000 OA
ATOM      4  H   UNL     1       4.542   3.593  17.393  0.00  0.00    +0.000 HD
ENDROOT
BRANCH   2   5
ATOM      5  C   UNL     1       6.607   4.473  16.300  0.00  0.00    +0.000 A 
ATOM      6  C   UNL     1       6.008   3.653  15.366  0.00  0.00    +0.000 A 
ATOM      7  N   UNL     1       6.492   4.058  14.156  0.00  0.00    +0.000 N 
ATOM      8  C   UNL     1       6.207   3.575  12.888  0.00  0.00    +0.000 A 
ATOM      9  C   UNL     1       6.835   4.106  11.835  0.00  0.00    +0.000 A 
ATOM     10  C   UNL     1       7.807   5.187  12.162  0.00  0.00    +0.000 A 
ATOM     11  N   UNL     1       8.065   5.667  13.341  0.00  0.00    +0.000 NA
ATOM     12  C   UNL     1       7.383   5.103  14.383  0.00  0.00    +0.000 A 
ATOM     13  N   UNL     1       7.446   5.381  15.673  0.00  0.00    +0.000 NA
ENDBRANCH   2   5
BRANCH   1  14
ATOM     14  C   UNL     1       4.888   3.636  19.534  0.00  0.00    +0.000 C 
BRANCH  14  15
ATOM     15  C   UNL     1       3.609   2.847  19.749  0.00  0.00    +0.000 C 
BRANCH  15  16
ATOM     16  S   UNL     1       2.262   3.597  18.858  0.00  0.00    +0.000 S 
ATOM     17  O   UNL     1       2.014   2.783  17.682  0.00  0.00    +0.000 OA
ATOM     18  O   UNL     1       2.549   5.013  18.742  0.00  0.00    +0.000 OA
BRANCH  16  20
ATOM     19  C   UNL     1       1.281   2.849  21.286  0.00  0.00    +0.000 C 
ATOM     20  C   UNL     1       0.858   3.421  19.945  0.00  0.00    +0.000 C 
ENDBRANCH  16  20
ENDBRANCH  15  16
ENDBRANCH  14  15
ENDBRANCH   1  14
TORSDOF 5
ENDMDL
MODEL 3
REMARK VINA RESULT:      -6.8      1.266      1.540
REMARK  Name = 
REMARK  6 active torsions:
REMARK  status: ('A' for Active; 'I' for Inactive)
REMARK    1  A    between atoms: C_1  and  C_2
REMARK    2  A    between atoms: C_2  and  S_3
REMARK    3  A    between atoms: S_3  and  C_6
REMARK    4  A    between atoms: C_6  and  C_7
REMARK    5  A    between atoms: C_7  and  N_8
REMARK    6  A    between atoms: C_9  and  C_11
REMARK                            x       y       z     vdW  Elec       q    Type
REMARK                         _______ _______ _______ _____ _____    ______ ____
ROOT
ATOM      1  N   UNL     1       4.839   5.078  18.417  0.00  0.00    +0.000 N 
ATOM      2  C   UNL     1       6.134   4.813  18.036  0.00  0.00    +0.000 C 
ATOM      3  O   UNL     1       7.045   4.667  18.853  0.00  0.00    +0.000 OA
ATOM      4  H   UNL     1       4.142   5.116  17.665  0.00  0.00    +0.000 HD
ENDROOT
BRANCH   2   5
ATOM      5  C   UNL     1       6.370   4.744  16.600  0.00  0.00    +0.000 A 
ATOM      6  C   UNL     1       5.763   3.845  15.748  0.00  0.00    +0.000 A 
ATOM      7  N   UNL     1       6.283   4.099  14.513  0.00  0.00    +0.000 N 
ATOM      8  C   UNL     1       6.007   3.488  13.299  0.00  0.00    +0.000 A 
ATOM      9  C   UNL     1       6.673   3.881  12.208  0.00  0.00    +0.000 A 
ATOM     10  C   UNL     1       7.673   4.961  12.438  0.00  0.00    +0.000 A 
ATOM     11  N   UNL     1       7.923   5.560  13.562  0.00  0.00    +0.000 NA
ATOM     12  C   UNL     1       7.203   5.135  14.644  0.00  0.00    +0.000 A 
ATOM     13  N   UNL     1       7.250   5.551  15.897  0.00  0.00    +0.000 NA
ENDBRANCH   2   5
BRANCH   1  14
ATOM     14  C   UNL     1       4.442   5.034  19.811  0.00  0.00    +0.000 C 
BRANCH  14  15
ATOM     15  C   UNL     1       2.971   4.720  20.013  0.00  0.00    +0.000 C 
BRANCH  15  16
ATOM     16  S   UNL     1       2.764   3.031  20.536  0.00  0.00    +0.000 S 
ATOM     17  O   UNL     1       2.324   3.056  21.919  0.00  0.00    +0.000 OA
ATOM     18  O   UNL     1       3.954   2.302  20.142  0.00  0.00    +0.000 OA
BRANCH  16  20
ATOM     19  C   UNL     1       1.343   3.149  18.216  0.00  0.00    +0.000 C 
ATOM     20  C   UNL     1       1.411   2.422  19.546  0.00  0.00    +0.000 C 
ENDBRANCH  16  20
ENDBRANCH  15  16
ENDBRANCH  14  15
ENDBRANCH   1  14
TORSDOF 5
ENDMDL
MODEL 4
REMARK VINA RESULT:      -6.7      1.109      1.617
REMARK  Name = 
REMARK  6 active torsions:
REMARK  status: ('A' for Active; 'I' for Inactive)
REMARK    1  A    between atoms: C_1  and  C_2
REMARK    2  A    between atoms: C_2  and  S_3
REMARK    3  A    between atoms: S_3  and  C_6
REMARK    4  A    between atoms: C_6  and  C_7
REMARK    5  A    between atoms: C_7  and  N_8
REMARK    6  A    between atoms: C_9  and  C_11
REMARK                            x       y       z     vdW  Elec       q    Type
REMARK                         _______ _______ _______ _____ _____    ______ ____
ROOT
ATOM      1  N   UNL     1       4.836   3.624  18.091  0.00  0.00    +0.000 N 
ATOM      2  C   UNL     1       6.033   4.235  17.794  0.00  0.00    +0.000 C 
ATOM      3  O   UNL     1       6.787   4.669  18.667  0.00  0.00    +0.000 OA
ATOM      4  H   UNL     1       4.314   3.238  17.297  0.00  0.00    +0.000 HD
ENDROOT
BRANCH   2   5
ATOM      5  C   UNL     1       6.343   4.363  16.376  0.00  0.00    +0.000 A 
ATOM      6  C   UNL     1       5.804   3.575  15.381  0.00  0.00    +0.000 A 
ATOM      7  N   UNL     1       6.379   4.003  14.220  0.00  0.00    +0.000 N 
ATOM      8  C   UNL     1       6.182   3.555  12.923  0.00  0.00    +0.000 A 
ATOM      9  C   UNL     1       6.891   4.105  11.931  0.00  0.00    +0.000 A 
ATOM     10  C   UNL     1       7.849   5.164  12.356  0.00  0.00    +0.000 A 
ATOM     11  N   UNL     1       8.026   5.611  13.562  0.00  0.00    +0.000 NA
ATOM     12  C   UNL     1       7.263   5.030  14.538  0.00  0.00    +0.000 A 
ATOM     13  N   UNL     1       7.236   5.274  15.835  0.00  0.00    +0.000 NA
ENDBRANCH   2   5
BRANCH   1  14
ATOM     14  C   UNL     1       4.475   3.307  19.460  0.00  0.00    +0.000 C 
BRANCH  14  15
ATOM     15  C   UNL     1       3.184   2.516  19.578  0.00  0.00    +0.000 C 
BRANCH  15  16
ATOM     16  S   UNL     1       1.801   3.503  19.046  0.00  0.00    +0.000 S 
ATOM     17  O   UNL     1       0.648   3.086  19.823  0.00  0.00    +0.000 OA
ATOM     18  O   UNL     1       1.777   3.477  17.597  0.00  0.00    +0.000 OA
BRANCH  16  20
ATOM     19  C   UNL     1       2.351   6.075  18.341  0.00  0.00    +0.000 C 
ATOM     20  C   UNL     1       2.221   5.163  19.547  0.00  0.00    +0.000 C 
ENDBRANCH  16  20
ENDBRANCH  15  16
ENDBRANCH  14  15
ENDBRANCH   1  14
TORSDOF 5
ENDMDL
MODEL 5
REMARK VINA RESULT:      -6.5      1.396      1.751
REMARK  Name = 
REMARK  6 active torsions:
REMARK  status: ('A' for Active; 'I' for Inactive)
REMARK    1  A    between atoms: C_1  and  C_2
REMARK    2  A    between atoms: C_2  and  S_3
REMARK    3  A    between atoms: S_3  and  C_6
REMARK    4  A    between atoms: C_6  and  C_7
REMARK    5  A    between atoms: C_7  and  N_8
REMARK    6  A    between atoms: C_9  and  C_11
REMARK                            x       y       z     vdW  Elec       q    Type
REMARK                         _______ _______ _______ _____ _____    ______ ____
ROOT
ATOM      1  N   UNL     1       4.913   3.369  18.211  0.00  0.00    +0.000 N 
ATOM      2  C   UNL     1       6.023   4.131  17.930  0.00  0.00    +0.000 C 
ATOM      3  O   UNL     1       6.699   4.663  18.812  0.00  0.00    +0.000 OA
ATOM      4  H   UNL     1       4.459   2.915  17.410  0.00  0.00    +0.000 HD
ENDROOT
BRANCH   2   5
ATOM      5  C   UNL     1       6.336   4.296  16.517  0.00  0.00    +0.000 A 
ATOM      6  C   UNL     1       5.765   3.566  15.495  0.00  0.00    +0.000 A 
ATOM      7  N   UNL     1       6.356   4.010  14.349  0.00  0.00    +0.000 N 
ATOM      8  C   UNL     1       6.139   3.617  13.037  0.00  0.00    +0.000 A 
ATOM      9  C   UNL     1       6.869   4.171  12.064  0.00  0.00    +0.000 A 
ATOM     10  C   UNL     1       7.870   5.175  12.523  0.00  0.00    +0.000 A 
ATOM     11  N   UNL     1       8.066   5.572  13.743  0.00  0.00    +0.000 NA
ATOM     12  C   UNL     1       7.281   4.989  14.700  0.00  0.00    +0.000 A 
ATOM     13  N   UNL     1       7.265   5.189  16.005  0.00  0.00    +0.000 NA
ENDBRANCH   2   5
BRANCH   1  14
ATOM     14  C   UNL     1       4.574   3.011  19.574  0.00  0.00    +0.000 C 
BRANCH  14  15
ATOM     15  C   UNL     1       3.119   3.267  19.925  0.00  0.00    +0.000 C 
BRANCH  15  16
ATOM     16  S   UNL     1       2.645   4.912  19.435  0.00  0.00    +0.000 S 
ATOM     17  O   UNL     1       2.070   4.820  18.106  0.00  0.00    +0.000 OA
ATOM     18  O   UNL     1       3.767   5.790  19.707  0.00  0.00    +0.000 OA
BRANCH  16  20
ATOM     19  C   UNL     1       1.378   6.833  20.892  0.00  0.00    +0.000 C 
ATOM     20  C   UNL     1       1.335   5.352  20.564  0.00  0.00    +0.000 C 
ENDBRANCH  16  20
ENDBRANCH  15  16
ENDBRANCH  14  15
ENDBRANCH   1  14
TORSDOF 5
ENDMDL
MODEL 6
REMARK VINA RESULT:      -6.4      1.672      1.908
REMARK  Name = 
REMARK  6 active torsions:
REMARK  status: ('A' for Active; 'I' for Inactive)
REMARK    1  A    between atoms: C_1  and  C_2
REMARK    2  A    between atoms: C_2  and  S_3
REMARK    3  A    between atoms: S_3  and  C_6
REMARK    4  A    between atoms: C_6  and  C_7
REMARK    5  A    between atoms: C_7  and  N_8
REMARK    6  A    between atoms: C_9  and  C_11
REMARK                            x       y       z     vdW  Elec       q    Type
REMARK                         _______ _______ _______ _____ _____    ______ ____
ROOT
ATOM      1  N   UNL     1       4.672   3.264  18.639  0.00  0.00    +0.000 N 
ATOM      2  C   UNL     1       5.299   4.434  18.277  0.00  0.00    +0.000 C 
ATOM      3  O   UNL     1       5.436   5.377  19.058  0.00  0.00    +0.000 OA
ATOM      4  H   UNL     1       4.669   2.514  17.938  0.00  0.00    +0.000 HD
ENDROOT
BRANCH   2   5
ATOM      5  C   UNL     1       5.769   4.500  16.900  0.00  0.00    +0.000 A 
ATOM      6  C   UNL     1       5.253   3.759  15.858  0.00  0.00    +0.000 A 
ATOM      7  N   UNL     1       5.991   4.098  14.762  0.00  0.00    +0.000 N 
ATOM      8  C   UNL     1       5.882   3.652  13.454  0.00  0.00    +0.000 A 
ATOM      9  C   UNL     1       6.748   4.101  12.540  0.00  0.00    +0.000 A 
ATOM     10  C   UNL     1       7.770   5.054  13.057  0.00  0.00    +0.000 A 
ATOM     11  N   UNL     1       7.868   5.501  14.272  0.00  0.00    +0.000 NA
ATOM     12  C   UNL     1       6.946   5.027  15.165  0.00  0.00    +0.000 A 
ATOM     13  N   UNL     1       6.811   5.297  16.451  0.00  0.00    +0.000 NA
ENDBRANCH   2   5
BRANCH   1  14
ATOM     14  C   UNL     1       4.285   3.013  20.014  0.00  0.00    +0.000 C 
BRANCH  14  15
ATOM     15  C   UNL     1       3.065   2.120  20.147  0.00  0.00    +0.000 C 
BRANCH  15  16
ATOM     16  S   UNL     1       1.721   3.016  20.897  0.00  0.00    +0.000 S 
ATOM     17  O   UNL     1       1.441   2.386  22.175  0.00  0.00    +0.000 OA
ATOM     18  O   UNL     1       0.685   3.170  19.895  0.00  0.00    +0.000 OA
BRANCH  16  20
ATOM     19  C   UNL     1       1.547   5.715  20.580  0.00  0.00    +0.000 C 
ATOM     20  C   UNL     1       2.395   4.634  21.226  0.00  0.00    +0.000 C 
ENDBRANCH  16  20
ENDBRANCH  15  16
ENDBRANCH  14  15
ENDBRANCH   1  14
TORSDOF 5
ENDMDL
MODEL 7
REMARK VINA RESULT:      -6.3      1.170      1.343
REMARK  Name = 
REMARK  6 active torsions:
REMARK  status: ('A' for Active; 'I' for Inactive)
REMARK    1  A    between atoms: C_1  and  C_2
REMARK    2  A    between atoms: C_2  and  S_3
REMARK    3  A    between atoms: S_3  and  C_6
REMARK    4  A    between atoms: C_6  and  C_7
REMARK    5  A    between atoms: C_7  and  N_8
REMARK    6  A    between atoms: C_9  and  C_11
REMARK                            x       y       z     vdW  Elec       q    Type
REMARK                         _______ _______ _______ _____ _____    ______ ____
ROOT
ATOM      1  N   UNL     1       4.814   3.575  18.059  0.00  0.00    +0.000 N 
ATOM      2  C   UNL     1       5.974   4.258  17.775  0.00  0.00    +0.000 C 
ATOM      3  O   UNL     1       6.676   4.759  18.655  0.00  0.00    +0.000 OA
ATOM      4  H   UNL     1       4.337   3.138  17.262  0.00  0.00    +0.000 HD
ENDROOT
BRANCH   2   5
ATOM      5  C   UNL     1       6.307   4.379  16.362  0.00  0.00    +0.000 A 
ATOM      6  C   UNL     1       5.780   3.590  15.361  0.00  0.00    +0.000 A 
ATOM      7  N   UNL     1       6.376   4.009  14.208  0.00  0.00    +0.000 N 
ATOM      8  C   UNL     1       6.197   3.558  12.909  0.00  0.00    +0.000 A 
ATOM      9  C   UNL     1       6.926   4.099  11.928  0.00  0.00    +0.000 A 
ATOM     10  C   UNL     1       7.885   5.153  12.364  0.00  0.00    +0.000 A 
ATOM     11  N   UNL     1       8.045   5.604  13.571  0.00  0.00    +0.000 NA
ATOM     12  C   UNL     1       7.262   5.032  14.536  0.00  0.00    +0.000 A 
ATOM     13  N   UNL     1       7.216   5.282  15.832  0.00  0.00    +0.000 NA
ENDBRANCH   2   5
BRANCH   1  14
ATOM     14  C   UNL     1       4.442   3.262  19.425  0.00  0.00    +0.000 C 
BRANCH  14  15
ATOM     15  C   UNL     1       3.554   4.313  20.067  0.00  0.00    +0.000 C 
BRANCH  15  16
ATOM     16  S   UNL     1       2.018   4.453  19.178  0.00  0.00    +0.000 S 
ATOM     17  O   UNL     1       2.213   5.438  18.129  0.00  0.00    +0.000 OA
ATOM     18  O   UNL     1       0.958   4.600  20.156  0.00  0.00    +0.000 OA
BRANCH  16  20
ATOM     19  C   UNL     1       0.621   2.123  18.984  0.00  0.00    +0.000 C 
ATOM     20  C   UNL     1       1.810   2.863  18.397  0.00  0.00    +0.000 C 
ENDBRANCH  16  20
ENDBRANCH  15  16
ENDBRANCH  14  15
ENDBRANCH   1  14
TORSDOF 5
ENDMDL
MODEL 8
REMARK VINA RESULT:      -6.3      0.779      1.393
REMARK  Name = 
REMARK  6 active torsions:
REMARK  status: ('A' for Active; 'I' for Inactive)
REMARK    1  A    between atoms: C_1  and  C_2
REMARK    2  A    between atoms: C_2  and  S_3
REMARK    3  A    between atoms: S_3  and  C_6
REMARK    4  A    between atoms: C_6  and  C_7
REMARK    5  A    between atoms: C_7  and  N_8
REMARK    6  A    between atoms: C_9  and  C_11
REMARK                            x       y       z     vdW  Elec       q    Type
REMARK                         _______ _______ _______ _____ _____    ______ ____
ROOT
ATOM      1  N   UNL     1       4.800   5.306  18.171  0.00  0.00    +0.000 N 
ATOM      2  C   UNL     1       6.011   4.737  17.850  0.00  0.00    +0.000 C 
ATOM      3  O   UNL     1       6.831   4.405  18.708  0.00  0.00    +0.000 OA
ATOM      4  H   UNL     1       4.161   5.484  17.388  0.00  0.00    +0.000 HD
ENDROOT
BRANCH   2   5
ATOM      5  C   UNL     1       6.279   4.577  16.428  0.00  0.00    +0.000 A 
ATOM      6  C   UNL     1       7.175   5.339  15.707  0.00  0.00    +0.000 A 
ATOM      7  N   UNL     1       7.095   4.887  14.422  0.00  0.00    +0.000 N 
ATOM      8  C   UNL     1       7.789   5.303  13.297  0.00  0.00    +0.000 A 
ATOM      9  C   UNL     1       7.518   4.733  12.119  0.00  0.00    +0.000 A 
ATOM     10  C   UNL     1       6.455   3.689  12.155  0.00  0.00    +0.000 A 
ATOM     11  N   UNL     1       5.815   3.271  13.204  0.00  0.00    +0.000 NA
ATOM     12  C   UNL     1       6.143   3.871  14.389  0.00  0.00    +0.000 A 
ATOM     13  N   UNL     1       5.657   3.657  15.598  0.00  0.00    +0.000 NA
ENDBRANCH   2   5
BRANCH   1  14
ATOM     14  C   UNL     1       4.351   5.392  19.547  0.00  0.00    +0.000 C 
BRANCH  14  15
ATOM     15  C   UNL     1       2.858   5.173  19.712  0.00  0.00    +0.000 C 
BRANCH  15  16
ATOM     16  S   UNL     1       2.352   3.689  18.869  0.00  0.00    +0.000 S 
ATOM     17  O   UNL     1       3.411   2.710  19.041  0.00  0.00    +0.000 OA
ATOM     18  O   UNL     1       1.894   4.071  17.547  0.00  0.00    +0.000 OA
BRANCH  16  20
ATOM     19  C   UNL     1       1.301   2.828  21.229  0.00  0.00    +0.000 C 
ATOM     20  C   UNL     1       0.932   3.118  19.785  0.00  0.00    +0.000 C 
ENDBRANCH  16  20
ENDBRANCH  15  16
ENDBRANCH  14  15
ENDBRANCH   1  14
TORSDOF 5
ENDMDL
MODEL 9
REMARK VINA RESULT:      -6.3      1.522      1.800
REMARK  Name = 
REMARK  6 active torsions:
REMARK  status: ('A' for Active; 'I' for Inactive)
REMARK    1  A    between atoms: C_1  and  C_2
REMARK    2  A    between atoms: C_2  and  S_3
REMARK    3  A    between atoms: S_3  and  C_6
REMARK    4  A    between atoms: C_6  and  C_7
REMARK    5  A    between atoms: C_7  and  N_8
REMARK    6  A    between atoms: C_9  and  C_11
REMARK                            x       y       z     vdW  Elec       q    Type
REMARK                         _______ _______ _______ _____ _____    ______ ____
ROOT
ATOM      1  N   UNL     1       4.897   3.072  18.664  0.00  0.00    +0.000 N 
ATOM      2  C   UNL     1       5.748   4.117  18.389  0.00  0.00    +0.000 C 
ATOM      3  O   UNL     1       6.170   4.872  19.267  0.00  0.00    +0.000 OA
ATOM      4  H   UNL     1       4.656   2.462  17.874  0.00  0.00    +0.000 HD
ENDROOT
BRANCH   2   5
ATOM      5  C   UNL     1       6.099   4.296  16.986  0.00  0.00    +0.000 A 
ATOM      6  C   UNL     1       5.503   3.628  15.937  0.00  0.00    +0.000 A 
ATOM      7  N   UNL     1       6.142   4.062  14.813  0.00  0.00    +0.000 N 
ATOM      8  C   UNL     1       5.927   3.714  13.488  0.00  0.00    +0.000 A 
ATOM      9  C   UNL     1       6.709   4.245  12.542  0.00  0.00    +0.000 A 
ATOM     10  C   UNL     1       7.763   5.171  13.045  0.00  0.00    +0.000 A 
ATOM     11  N   UNL     1       7.960   5.525  14.278  0.00  0.00    +0.000 NA
ATOM     12  C   UNL     1       7.121   4.971  15.205  0.00  0.00    +0.000 A 
ATOM     13  N   UNL     1       7.092   5.140  16.515  0.00  0.00    +0.000 NA
ENDBRANCH   2   5
BRANCH   1  14
ATOM     14  C   UNL     1       4.582   2.699  20.029  0.00  0.00    +0.000 C 
BRANCH  14  15
ATOM     15  C   UNL     1       3.404   3.460  20.610  0.00  0.00    +0.000 C 
BRANCH  15  16
ATOM     16  S   UNL     1       1.889   2.945  19.829  0.00  0.00    +0.000 S 
ATOM     17  O   UNL     1       0.877   2.851  20.866  0.00  0.00    +0.000 OA
ATOM     18  O   UNL     1       2.198   1.813  18.978  0.00  0.00    +0.000 OA
BRANCH  16  20
ATOM     19  C   UNL     1       1.832   4.019  17.327  0.00  0.00    +0.000 C 
ATOM     20  C   UNL     1       1.450   4.310  18.767  0.00  0.00    +0.000 C 
ENDBRANCH  16  20
ENDBRANCH  15  16
ENDBRANCH  14  15
ENDBRANCH   1  14
TORSDOF 5
ENDMDL
