MODEL 1
REMARK VINA RESULT:      -6.4      0.000      0.000
REMARK  Name = 
REMARK  21 active torsions:
REMARK  status: ('A' for Active; 'I' for Inactive)
REMARK    1  A    between atoms: C_1  and  C_2
REMARK    2  A    between atoms: C_2  and  C_3
REMARK    3  A    between atoms: C_3  and  C_4
REMARK    4  A    between atoms: C_4  and  C_5
REMARK    5  A    between atoms: C_5  and  C_6
REMARK    6  A    between atoms: C_6  and  C_7
REMARK    7  A    between atoms: C_7  and  C_8
REMARK    8  A    between atoms: C_8  and  C_9
REMARK    9  A    between atoms: C_10  and  C_11
REMARK   10  A    between atoms: C_11  and  C_12
REMARK   11  A    between atoms: C_12  and  C_13
REMARK   12  A    between atoms: C_13  and  C_14
REMARK   13  A    between atoms: C_14  and  C_15
REMARK   14  A    between atoms: C_15  and  C_16
REMARK   15  A    between atoms: C_16  and  C_17
REMARK   16  A    between atoms: C_17  and  C_18
REMARK   17  A    between atoms: C_18  and  C_19
REMARK   18  A    between atoms: C_19  and  C_20
REMARK   19  A    between atoms: C_20  and  O_21
REMARK   20  A    between atoms: C_26  and  O_27
REMARK   21  A    between atoms: C_28  and  O_29
REMARK                            x       y       z     vdW  Elec       q    Type
REMARK                         _______ _______ _______ _____ _____    ______ ____
ROOT
ATOM      1  C   UNL     1       2.518   8.336  17.928  0.00  0.00    +0.000 C 
ENDROOT
BRANCH   1   2
ATOM      2  C   UNL     1       1.244   9.179  17.879  0.00  0.00    +0.000 C 
BRANCH   2   3
ATOM      3  C   UNL     1       1.439  10.481  18.648  0.00  0.00    +0.000 C 
BRANCH   3   4
ATOM      4  C   UNL     1       0.868  10.472  20.068  0.00  0.00    +0.000 C 
BRANCH   4   5
ATOM      5  C   UNL     1       0.642  11.917  20.587  0.00  0.00    +0.000 C 
ATOM      6  C   UNL     1      -0.555  11.949  21.572  0.00  0.00    +0.000 C 
ATOM      7  O   UNL     1      -0.450  11.714  22.777  0.00  0.00    +0.000 OA
ATOM      8  C   UNL     1      -1.914  12.240  21.060  0.00  0.00    +0.000 C 
ATOM      9  C   UNL     1      -2.106  12.784  19.857  0.00  0.00    +0.000 C 
ATOM     10  C   UNL     1      -1.012  13.174  18.925  0.00  0.00    +0.000 C 
ATOM     11  C   UNL     1       0.438  12.908  19.402  0.00  0.00    +0.000 C 
BRANCH  11  12
ATOM     12  O   UNL     1       0.986  14.178  19.803  0.00  0.00    +0.000 OA
ATOM     13  H   UNL     1       1.206  14.678  18.996  0.00  0.00    +0.000 HD
ENDBRANCH  11  12
BRANCH  10  14
ATOM     14  O   UNL     1      -1.245  12.593  17.652  0.00  0.00    +0.000 OA
ATOM     15  H   UNL     1      -2.047  12.045  17.704  0.00  0.00    +0.000 HD
ENDBRANCH  10  14
BRANCH   5  16
ATOM     16  O   UNL     1       1.855  12.271  21.281  0.00  0.00    +0.000 OA
ATOM     17  H   UNL     1       1.661  12.186  22.235  0.00  0.00    +0.000 HD
ENDBRANCH   5  16
ENDBRANCH   4   5
ENDBRANCH   3   4
ENDBRANCH   2   3
ENDBRANCH   1   2
BRANCH   1  18
ATOM     18  C   UNL     1       2.213   6.867  18.223  0.00  0.00    +0.000 C 
BRANCH  18  19
ATOM     19  C   UNL     1       2.727   6.470  19.589  0.00  0.00    +0.000 C 
BRANCH  19  20
ATOM     20  C   UNL     1       1.666   5.670  20.341  0.00  0.00    +0.000 C 
BRANCH  20  21
ATOM     21  C   UNL     1       2.293   4.518  21.123  0.00  0.00    +0.000 C 
BRANCH  21  22
ATOM     22  C   UNL     1       1.603   3.175  20.887  0.00  0.00    +0.000 C 
BRANCH  22  24
ATOM     23  C   UNL     1       1.686   2.650  18.436  0.00  0.00    +0.000 C 
ATOM     24  C   UNL     1       1.004   3.064  19.505  0.00  0.00    +0.000 C 
BRANCH  23  25
ATOM     25  C   UNL     1       3.119   2.211  18.522  0.00  0.00    +0.000 C 
BRANCH  25  26
ATOM     26  C   UNL     1       4.109   3.333  18.288  0.00  0.00    +0.000 C 
BRANCH  26  27
ATOM     27  C   UNL     1       4.157   3.644  16.799  0.00  0.00    +0.000 C 
BRANCH  27  28
ATOM     28  C   UNL     1       4.967   4.904  16.546  0.00  0.00    +0.000 C 
BRANCH  28  29
ATOM     29  C   UNL     1       6.327   4.561  15.951  0.00  0.00    +0.000 C 
BRANCH  29  30
ATOM     30  C   UNL     1       7.389   4.572  17.043  0.00  0.00    +0.000 C 
BRANCH  30  32
ATOM     31  C   UNL     1       7.567   5.610  19.314  0.00  0.00    +0.000 C 
ATOM     32  C   UNL     1       7.355   5.874  17.833  0.00  0.00    +0.000 C 
ENDBRANCH  30  32
ENDBRANCH  29  30
ENDBRANCH  28  29
ENDBRANCH  27  28
ENDBRANCH  26  27
ENDBRANCH  25  26
ENDBRANCH  23  25
ENDBRANCH  22  24
ENDBRANCH  21  22
ENDBRANCH  20  21
ENDBRANCH  19  20
ENDBRANCH  18  19
ENDBRANCH   1  18
TORSDOF 20
ENDMDL
MODEL 2
REMARK VINA RESULT:      -6.1      3.631      8.818
REMARK  Name = 
REMARK  21 active torsions:
REMARK  status: ('A' for Active; 'I' for Inactive)
REMARK    1  A    between atoms: C_1  and  C_2
REMARK    2  A    between atoms: C_2  and  C_3
REMARK    3  A    between atoms: C_3  and  C_4
REMARK    4  A    between atoms: C_4  and  C_5
REMARK    5  A    between atoms: C_5  and  C_6
REMARK    6  A    between atoms: C_6  and  C_7
REMARK    7  A    between atoms: C_7  and  C_8
REMARK    8  A    between atoms: C_8  and  C_9
REMARK    9  A    between atoms: C_10  and  C_11
REMARK   10  A    between atoms: C_11  and  C_12
REMARK   11  A    between atoms: C_12  and  C_13
REMARK   12  A    between atoms: C_13  and  C_14
REMARK   13  A    between atoms: C_14  and  C_15
REMARK   14  A    between atoms: C_15  and  C_16
REMARK   15  A    between atoms: C_16  and  C_17
REMARK   16  A    between atoms: C_17  and  C_18
REMARK   17  A    between atoms: C_18  and  C_19
REMARK   18  A    between atoms: C_19  and  C_20
REMARK   19  A    between atoms: C_20  and  O_21
REMARK   20  A    between atoms: C_26  and  O_27
REMARK   21  A    between atoms: C_28  and  O_29
REMARK                            x       y       z     vdW  Elec       q    Type
REMARK                         _______ _______ _______ _____ _____    ______ ____
ROOT
ATOM      1  C   UNL     1       2.743   2.245  18.080  0.00  0.00    +0.000 C 
ENDROOT
BRANCH   1   2
ATOM      2  C   UNL     1       3.726   2.767  17.030  0.00  0.00    +0.000 C 
BRANCH   2   3
ATOM      3  C   UNL     1       4.462   3.994  17.556  0.00  0.00    +0.000 C 
BRANCH   3   4
ATOM      4  C   UNL     1       4.218   5.274  16.754  0.00  0.00    +0.000 C 
BRANCH   4   5
ATOM      5  C   UNL     1       5.559   5.955  16.370  0.00  0.00    +0.000 C 
ATOM      6  C   UNL     1       6.513   4.924  15.713  0.00  0.00    +0.000 C 
ATOM      7  O   UNL     1       6.499   4.656  14.510  0.00  0.00    +0.000 OA
ATOM      8  C   UNL     1       7.476   4.180  16.556  0.00  0.00    +0.000 C 
ATOM      9  C   UNL     1       7.779   4.582  17.792  0.00  0.00    +0.000 C 
ATOM     10  C   UNL     1       7.221   5.800  18.441  0.00  0.00    +0.000 C 
ATOM     11  C   UNL     1       6.213   6.634  17.610  0.00  0.00    +0.000 C 
BRANCH  11  12
ATOM     12  O   UNL     1       6.919   7.798  17.143  0.00  0.00    +0.000 OA
ATOM     13  H   UNL     1       6.918   8.458  17.860  0.00  0.00    +0.000 HD
ENDBRANCH  11  12
BRANCH  10  14
ATOM     14  O   UNL     1       6.679   5.456  19.706  0.00  0.00    +0.000 OA
ATOM     15  H   UNL     1       6.396   6.272  20.153  0.00  0.00    +0.000 HD
ENDBRANCH  10  14
BRANCH   5  16
ATOM     16  O   UNL     1       5.211   6.977  15.414  0.00  0.00    +0.000 OA
ATOM     17  H   UNL     1       4.252   6.882  15.248  0.00  0.00    +0.000 HD
ENDBRANCH   5  16
ENDBRANCH   4   5
ENDBRANCH   3   4
ENDBRANCH   2   3
ENDBRANCH   1   2
BRANCH   1  18
ATOM     18  C   UNL     1       1.725   3.313  18.481  0.00  0.00    +0.000 C 
BRANCH  18  19
ATOM     19  C   UNL     1       1.384   3.212  19.950  0.00  0.00    +0.000 C 
BRANCH  19  20
ATOM     20  C   UNL     1       1.204   4.606  20.548  0.00  0.00    +0.000 C 
BRANCH  20  21
ATOM     21  C   UNL     1       2.388   5.509  20.210  0.00  0.00    +0.000 C 
BRANCH  21  22
ATOM     22  C   UNL     1       1.975   6.897  19.723  0.00  0.00    +0.000 C 
BRANCH  22  24
ATOM     23  C   UNL     1       2.516   8.416  17.801  0.00  0.00    +0.000 C 
ATOM     24  C   UNL     1       2.854   7.407  18.606  0.00  0.00    +0.000 C 
BRANCH  23  25
ATOM     25  C   UNL     1       1.230   9.172  17.965  0.00  0.00    +0.000 C 
BRANCH  25  26
ATOM     26  C   UNL     1       1.399  10.508  18.659  0.00  0.00    +0.000 C 
BRANCH  26  27
ATOM     27  C   UNL     1       0.757  10.433  20.036  0.00  0.00    +0.000 C 
BRANCH  27  28
ATOM     28  C   UNL     1      -0.742  10.656  19.935  0.00  0.00    +0.000 C 
BRANCH  28  29
ATOM     29  C   UNL     1      -1.046  11.946  19.183  0.00  0.00    +0.000 C 
BRANCH  29  30
ATOM     30  C   UNL     1      -2.234  11.737  18.252  0.00  0.00    +0.000 C 
BRANCH  30  32
ATOM     31  C   UNL     1      -3.467   9.695  17.488  0.00  0.00    +0.000 C 
ATOM     32  C   UNL     1      -2.126  10.411  17.510  0.00  0.00    +0.000 C 
ENDBRANCH  30  32
ENDBRANCH  29  30
ENDBRANCH  28  29
ENDBRANCH  27  28
ENDBRANCH  26  27
ENDBRANCH  25  26
ENDBRANCH  23  25
ENDBRANCH  22  24
ENDBRANCH  21  22
ENDBRANCH  20  21
ENDBRANCH  19  20
ENDBRANCH  18  19
ENDBRANCH   1  18
TORSDOF 20
ENDMDL
MODEL 3
REMARK VINA RESULT:      -6.1      1.223      2.098
REMARK  Name = 
REMARK  21 active torsions:
REMARK  status: ('A' for Active; 'I' for Inactive)
REMARK    1  A    between atoms: C_1  and  C_2
REMARK    2  A    between atoms: C_2  and  C_3
REMARK    3  A    between atoms: C_3  and  C_4
REMARK    4  A    between atoms: C_4  and  C_5
REMARK    5  A    between atoms: C_5  and  C_6
REMARK    6  A    between atoms: C_6  and  C_7
REMARK    7  A    between atoms: C_7  and  C_8
REMARK    8  A    between atoms: C_8  and  C_9
REMARK    9  A    between atoms: C_10  and  C_11
REMARK   10  A    between atoms: C_11  and  C_12
REMARK   11  A    between atoms: C_12  and  C_13
REMARK   12  A    between atoms: C_13  and  C_14
REMARK   13  A    between atoms: C_14  and  C_15
REMARK   14  A    between atoms: C_15  and  C_16
REMARK   15  A    between atoms: C_16  and  C_17
REMARK   16  A    between atoms: C_17  and  C_18
REMARK   17  A    between atoms: C_18  and  C_19
REMARK   18  A    between atoms: C_19  and  C_20
REMARK   19  A    between atoms: C_20  and  O_21
REMARK   20  A    between atoms: C_26  and  O_27
REMARK   21  A    between atoms: C_28  and  O_29
REMARK                            x       y       z     vdW  Elec       q    Type
REMARK                         _______ _______ _______ _____ _____    ______ ____
ROOT
ATOM      1  C   UNL     1       2.763   7.981  17.868  0.00  0.00    +0.000 C 
ENDROOT
BRANCH   1   2
ATOM      2  C   UNL     1       1.495   8.788  17.586  0.00  0.00    +0.000 C 
BRANCH   2   3
ATOM      3  C   UNL     1       1.497  10.081  18.395  0.00  0.00    +0.000 C 
BRANCH   3   4
ATOM      4  C   UNL     1       0.165  10.832  18.398  0.00  0.00    +0.000 C 
BRANCH   4   5
ATOM      5  C   UNL     1      -0.276  11.181  19.845  0.00  0.00    +0.000 C 
ATOM      6  C   UNL     1      -1.351  12.298  19.820  0.00  0.00    +0.000 C 
ATOM      7  O   UNL     1      -2.556  12.077  19.687  0.00  0.00    +0.000 OA
ATOM      8  C   UNL     1      -0.935  13.715  19.924  0.00  0.00    +0.000 C 
ATOM      9  C   UNL     1       0.282  14.056  20.354  0.00  0.00    +0.000 C 
ATOM     10  C   UNL     1       1.323  13.086  20.789  0.00  0.00    +0.000 C 
ATOM     11  C   UNL     1       0.950  11.583  20.717  0.00  0.00    +0.000 C 
BRANCH  11  12
ATOM     12  O   UNL     1       0.680  11.155  22.065  0.00  0.00    +0.000 OA
ATOM     13  H   UNL     1      -0.263  10.917  22.121  0.00  0.00    +0.000 HD
ENDBRANCH  11  12
BRANCH  10  14
ATOM     14  O   UNL     1       2.532  13.346  20.094  0.00  0.00    +0.000 OA
ATOM     15  H   UNL     1       2.639  14.309  20.009  0.00  0.00    +0.000 HD
ENDBRANCH  10  14
BRANCH   5  16
ATOM     16  O   UNL     1      -0.843   9.968  20.377  0.00  0.00    +0.000 OA
ATOM     17  H   UNL     1      -1.544   9.695  19.752  0.00  0.00    +0.000 HD
ENDBRANCH   5  16
ENDBRANCH   4   5
ENDBRANCH   3   4
ENDBRANCH   2   3
ENDBRANCH   1   2
BRANCH   1  18
ATOM     18  C   UNL     1       2.438   6.594  18.422  0.00  0.00    +0.000 C 
BRANCH  18  19
ATOM     19  C   UNL     1       2.512   6.581  19.932  0.00  0.00    +0.000 C 
BRANCH  19  20
ATOM     20  C   UNL     1       1.490   5.602  20.504  0.00  0.00    +0.000 C 
BRANCH  20  21
ATOM     21  C   UNL     1       2.175   4.482  21.285  0.00  0.00    +0.000 C 
BRANCH  21  22
ATOM     22  C   UNL     1       1.529   3.113  21.078  0.00  0.00    +0.000 C 
BRANCH  22  24
ATOM     23  C   UNL     1       1.448   2.458  18.658  0.00  0.00    +0.000 C 
ATOM     24  C   UNL     1       0.856   2.985  19.732  0.00  0.00    +0.000 C 
BRANCH  23  25
ATOM     25  C   UNL     1       2.840   1.899  18.706  0.00  0.00    +0.000 C 
BRANCH  25  26
ATOM     26  C   UNL     1       3.688   2.289  17.513  0.00  0.00    +0.000 C 
BRANCH  26  27
ATOM     27  C   UNL     1       4.175   3.719  17.703  0.00  0.00    +0.000 C 
BRANCH  27  28
ATOM     28  C   UNL     1       4.938   3.851  19.009  0.00  0.00    +0.000 C 
BRANCH  28  29
ATOM     29  C   UNL     1       5.885   5.044  18.964  0.00  0.00    +0.000 C 
BRANCH  29  30
ATOM     30  C   UNL     1       7.027   4.765  17.994  0.00  0.00    +0.000 C 
BRANCH  30  32
ATOM     31  C   UNL     1       6.135   6.967  17.206  0.00  0.00    +0.000 C 
ATOM     32  C   UNL     1       7.223   5.922  17.024  0.00  0.00    +0.000 C 
ENDBRANCH  30  32
ENDBRANCH  29  30
ENDBRANCH  28  29
ENDBRANCH  27  28
ENDBRANCH  26  27
ENDBRANCH  25  26
ENDBRANCH  23  25
ENDBRANCH  22  24
ENDBRANCH  21  22
ENDBRANCH  20  21
ENDBRANCH  19  20
ENDBRANCH  18  19
ENDBRANCH   1  18
TORSDOF 20
ENDMDL
MODEL 4
REMARK VINA RESULT:      -6.1      1.104      1.607
REMARK  Name = 
REMARK  21 active torsions:
REMARK  status: ('A' for Active; 'I' for Inactive)
REMARK    1  A    between atoms: C_1  and  C_2
REMARK    2  A    between atoms: C_2  and  C_3
REMARK    3  A    between atoms: C_3  and  C_4
REMARK    4  A    between atoms: C_4  and  C_5
REMARK    5  A    between atoms: C_5  and  C_6
REMARK    6  A    between atoms: C_6  and  C_7
REMARK    7  A    between atoms: C_7  and  C_8
REMARK    8  A    between atoms: C_8  and  C_9
REMARK    9  A    between atoms: C_10  and  C_11
REMARK   10  A    between atoms: C_11  and  C_12
REMARK   11  A    between atoms: C_12  and  C_13
REMARK   12  A    between atoms: C_13  and  C_14
REMARK   13  A    between atoms: C_14  and  C_15
REMARK   14  A    between atoms: C_15  and  C_16
REMARK   15  A    between atoms: C_16  and  C_17
REMARK   16  A    between atoms: C_17  and  C_18
REMARK   17  A    between atoms: C_18  and  C_19
REMARK   18  A    between atoms: C_19  and  C_20
REMARK   19  A    between atoms: C_20  and  O_21
REMARK   20  A    between atoms: C_26  and  O_27
REMARK   21  A    between atoms: C_28  and  O_29
REMARK                            x       y       z     vdW  Elec       q    Type
REMARK                         _______ _______ _______ _____ _____    ______ ____
ROOT
ATOM      1  C   UNL     1       2.102   7.537  19.545  0.00  0.00    +0.000 C 
ENDROOT
BRANCH   1   2
ATOM      2  C   UNL     1       2.064   8.019  18.094  0.00  0.00    +0.000 C 
BRANCH   2   3
ATOM      3  C   UNL     1       1.497   9.433  18.020  0.00  0.00    +0.000 C 
BRANCH   3   4
ATOM      4  C   UNL     1       0.664   9.849  19.233  0.00  0.00    +0.000 C 
BRANCH   4   5
ATOM      5  C   UNL     1       0.530  11.393  19.314  0.00  0.00    +0.000 C 
ATOM      6  C   UNL     1       0.265  11.830  20.778  0.00  0.00    +0.000 C 
ATOM      7  O   UNL     1       1.160  12.034  21.600  0.00  0.00    +0.000 OA
ATOM      8  C   UNL     1      -1.130  11.983  21.252  0.00  0.00    +0.000 C 
ATOM      9  C   UNL     1      -2.153  12.072  20.399  0.00  0.00    +0.000 C 
ATOM     10  C   UNL     1      -2.016  12.053  18.917  0.00  0.00    +0.000 C 
ATOM     11  C   UNL     1      -0.581  11.906  18.350  0.00  0.00    +0.000 C 
BRANCH  11  12
ATOM     12  O   UNL     1      -0.180  13.208  17.884  0.00  0.00    +0.000 OA
ATOM     13  H   UNL     1      -0.137  13.803  18.655  0.00  0.00    +0.000 HD
ENDBRANCH  11  12
BRANCH  10  14
ATOM     14  O   UNL     1      -2.882  11.069  18.375  0.00  0.00    +0.000 OA
ATOM     15  H   UNL     1      -2.344  10.318  18.070  0.00  0.00    +0.000 HD
ENDBRANCH  10  14
BRANCH   5  16
ATOM     16  O   UNL     1       1.801  11.913  18.873  0.00  0.00    +0.000 OA
ATOM     17  H   UNL     1       2.063  11.377  18.099  0.00  0.00    +0.000 HD
ENDBRANCH   5  16
ENDBRANCH   4   5
ENDBRANCH   3   4
ENDBRANCH   2   3
ENDBRANCH   1   2
BRANCH   1  18
ATOM     18  C   UNL     1       2.493   6.062  19.640  0.00  0.00    +0.000 C 
BRANCH  18  19
ATOM     19  C   UNL     1       1.800   5.391  20.805  0.00  0.00    +0.000 C 
BRANCH  19  20
ATOM     20  C   UNL     1       0.927   4.241  20.310  0.00  0.00    +0.000 C 
BRANCH  20  21
ATOM     21  C   UNL     1       1.467   2.893  20.783  0.00  0.00    +0.000 C 
BRANCH  21  22
ATOM     22  C   UNL     1       2.790   2.504  20.126  0.00  0.00    +0.000 C 
BRANCH  22  24
ATOM     23  C   UNL     1       2.621   2.116  17.654  0.00  0.00    +0.000 C 
ATOM     24  C   UNL     1       2.600   1.642  18.901  0.00  0.00    +0.000 C 
BRANCH  23  25
ATOM     25  C   UNL     1       2.883   3.563  17.354  0.00  0.00    +0.000 C 
BRANCH  25  26
ATOM     26  C   UNL     1       4.330   3.966  17.544  0.00  0.00    +0.000 C 
BRANCH  26  27
ATOM     27  C   UNL     1       4.841   4.589  16.253  0.00  0.00    +0.000 C 
BRANCH  27  28
ATOM     28  C   UNL     1       6.199   4.015  15.887  0.00  0.00    +0.000 C 
BRANCH  28  29
ATOM     29  C   UNL     1       7.292   4.611  16.766  0.00  0.00    +0.000 C 
BRANCH  29  30
ATOM     30  C   UNL     1       7.251   6.132  16.686  0.00  0.00    +0.000 C 
BRANCH  30  32
ATOM     31  C   UNL     1       7.553   5.713  19.136  0.00  0.00    +0.000 C 
ATOM     32  C   UNL     1       7.553   6.764  18.039  0.00  0.00    +0.000 C 
ENDBRANCH  30  32
ENDBRANCH  29  30
ENDBRANCH  28  29
ENDBRANCH  27  28
ENDBRANCH  26  27
ENDBRANCH  25  26
ENDBRANCH  23  25
ENDBRANCH  22  24
ENDBRANCH  21  22
ENDBRANCH  20  21
ENDBRANCH  19  20
ENDBRANCH  18  19
ENDBRANCH   1  18
TORSDOF 20
ENDMDL
MODEL 5
REMARK VINA RESULT:      -6.0      1.115      2.513
REMARK  Name = 
REMARK  21 active torsions:
REMARK  status: ('A' for Active; 'I' for Inactive)
REMARK    1  A    between atoms: C_1  and  C_2
REMARK    2  A    between atoms: C_2  and  C_3
REMARK    3  A    between atoms: C_3  and  C_4
REMARK    4  A    between atoms: C_4  and  C_5
REMARK    5  A    between atoms: C_5  and  C_6
REMARK    6  A    between atoms: C_6  and  C_7
REMARK    7  A    between atoms: C_7  and  C_8
REMARK    8  A    between atoms: C_8  and  C_9
REMARK    9  A    between atoms: C_10  and  C_11
REMARK   10  A    between atoms: C_11  and  C_12
REMARK   11  A    between atoms: C_12  and  C_13
REMARK   12  A    between atoms: C_13  and  C_14
REMARK   13  A    between atoms: C_14  and  C_15
REMARK   14  A    between atoms: C_15  and  C_16
REMARK   15  A    between atoms: C_16  and  C_17
REMARK   16  A    between atoms: C_17  and  C_18
REMARK   17  A    between atoms: C_18  and  C_19
REMARK   18  A    between atoms: C_19  and  C_20
REMARK   19  A    between atoms: C_20  and  O_21
REMARK   20  A    between atoms: C_26  and  O_27
REMARK   21  A    between atoms: C_28  and  O_29
REMARK                            x       y       z     vdW  Elec       q    Type
REMARK                         _______ _______ _______ _____ _____    ______ ____
ROOT
ATOM      1  C   UNL     1       2.488   6.927  18.324  0.00  0.00    +0.000 C 
ENDROOT
BRANCH   1   2
ATOM      2  C   UNL     1       2.657   8.388  17.905  0.00  0.00    +0.000 C 
BRANCH   2   3
ATOM      3  C   UNL     1       1.340   9.140  18.059  0.00  0.00    +0.000 C 
BRANCH   3   4
ATOM      4  C   UNL     1       1.487  10.595  18.508  0.00  0.00    +0.000 C 
BRANCH   4   5
ATOM      5  C   UNL     1       0.266  11.043  19.354  0.00  0.00    +0.000 C 
ATOM      6  C   UNL     1      -0.515  12.160  18.614  0.00  0.00    +0.000 C 
ATOM      7  O   UNL     1      -1.391  11.936  17.777  0.00  0.00    +0.000 OA
ATOM      8  C   UNL     1      -0.187  13.579  18.881  0.00  0.00    +0.000 C 
ATOM      9  C   UNL     1       0.521  13.944  19.952  0.00  0.00    +0.000 C 
ATOM     10  C   UNL     1       1.028  13.001  20.986  0.00  0.00    +0.000 C 
ATOM     11  C   UNL     1       0.711  11.499  20.776  0.00  0.00    +0.000 C 
BRANCH  11  12
ATOM     12  O   UNL     1      -0.351  11.164  21.688  0.00  0.00    +0.000 OA
ATOM     13  H   UNL     1       0.016  10.574  22.372  0.00  0.00    +0.000 HD
ENDBRANCH  11  12
BRANCH  10  14
ATOM     14  O   UNL     1       2.418  13.208  21.173  0.00  0.00    +0.000 OA
ATOM     15  H   UNL     1       2.840  13.290  20.301  0.00  0.00    +0.000 HD
ENDBRANCH  10  14
BRANCH   5  16
ATOM     16  O   UNL     1      -0.564   9.871  19.484  0.00  0.00    +0.000 OA
ATOM     17  H   UNL     1      -0.501   9.592  20.419  0.00  0.00    +0.000 HD
ENDBRANCH   5  16
ENDBRANCH   4   5
ENDBRANCH   3   4
ENDBRANCH   2   3
ENDBRANCH   1   2
BRANCH   1  18
ATOM     18  C   UNL     1       2.315   6.789  19.837  0.00  0.00    +0.000 C 
BRANCH  18  19
ATOM     19  C   UNL     1       2.496   5.352  20.275  0.00  0.00    +0.000 C 
BRANCH  19  20
ATOM     20  C   UNL     1       1.138   4.701  20.527  0.00  0.00    +0.000 C 
BRANCH  20  21
ATOM     21  C   UNL     1       1.064   3.314  19.892  0.00  0.00    +0.000 C 
BRANCH  21  22
ATOM     22  C   UNL     1       1.368   3.314  18.394  0.00  0.00    +0.000 C 
BRANCH  22  24
ATOM     23  C   UNL     1       3.520   2.209  17.730  0.00  0.00    +0.000 C 
ATOM     24  C   UNL     1       2.210   2.133  17.972  0.00  0.00    +0.000 C 
BRANCH  23  25
ATOM     25  C   UNL     1       4.291   3.485  17.899  0.00  0.00    +0.000 C 
BRANCH  25  26
ATOM     26  C   UNL     1       4.394   4.300  16.627  0.00  0.00    +0.000 C 
BRANCH  26  27
ATOM     27  C   UNL     1       5.626   3.852  15.853  0.00  0.00    +0.000 C 
BRANCH  27  28
ATOM     28  C   UNL     1       6.783   4.805  16.099  0.00  0.00    +0.000 C 
BRANCH  28  29
ATOM     29  C   UNL     1       6.414   5.841  17.154  0.00  0.00    +0.000 C 
BRANCH  29  30
ATOM     30  C   UNL     1       7.433   6.974  17.147  0.00  0.00    +0.000 C 
BRANCH  30  32
ATOM     31  C   UNL     1       7.946   5.866  19.333  0.00  0.00    +0.000 C 
ATOM     32  C   UNL     1       8.083   7.139  18.515  0.00  0.00    +0.000 C 
ENDBRANCH  30  32
ENDBRANCH  29  30
ENDBRANCH  28  29
ENDBRANCH  27  28
ENDBRANCH  26  27
ENDBRANCH  25  26
ENDBRANCH  23  25
ENDBRANCH  22  24
ENDBRANCH  21  22
ENDBRANCH  20  21
ENDBRANCH  19  20
ENDBRANCH  18  19
ENDBRANCH   1  18
TORSDOF 20
ENDMDL
MODEL 6
REMARK VINA RESULT:      -6.0      1.611      4.632
REMARK  Name = 
REMARK  21 active torsions:
REMARK  status: ('A' for Active; 'I' for Inactive)
REMARK    1  A    between atoms: C_1  and  C_2
REMARK    2  A    between atoms: C_2  and  C_3
REMARK    3  A    between atoms: C_3  and  C_4
REMARK    4  A    between atoms: C_4  and  C_5
REMARK    5  A    between atoms: C_5  and  C_6
REMARK    6  A    between atoms: C_6  and  C_7
REMARK    7  A    between atoms: C_7  and  C_8
REMARK    8  A    between atoms: C_8  and  C_9
REMARK    9  A    between atoms: C_10  and  C_11
REMARK   10  A    between atoms: C_11  and  C_12
REMARK   11  A    between atoms: C_12  and  C_13
REMARK   12  A    between atoms: C_13  and  C_14
REMARK   13  A    between atoms: C_14  and  C_15
REMARK   14  A    between atoms: C_15  and  C_16
REMARK   15  A    between atoms: C_16  and  C_17
REMARK   16  A    between atoms: C_17  and  C_18
REMARK   17  A    between atoms: C_18  and  C_19
REMARK   18  A    between atoms: C_19  and  C_20
REMARK   19  A    between atoms: C_20  and  O_21
REMARK   20  A    between atoms: C_26  and  O_27
REMARK   21  A    between atoms: C_28  and  O_29
REMARK                            x       y       z     vdW  Elec       q    Type
REMARK                         _______ _______ _______ _____ _____    ______ ____
ROOT
ATOM      1  C   UNL     1       2.935   6.431  19.601  0.00  0.00    +0.000 C 
ENDROOT
BRANCH   1   2
ATOM      2  C   UNL     1       2.355   6.650  18.203  0.00  0.00    +0.000 C 
BRANCH   2   3
ATOM      3  C   UNL     1       2.204   8.140  17.918  0.00  0.00    +0.000 C 
BRANCH   3   4
ATOM      4  C   UNL     1       1.906   8.996  19.150  0.00  0.00    +0.000 C 
BRANCH   4   5
ATOM      5  C   UNL     1       0.843  10.081  18.830  0.00  0.00    +0.000 C 
ATOM      6  C   UNL     1       1.453  11.496  19.010  0.00  0.00    +0.000 C 
ATOM      7  O   UNL     1       2.075  12.085  18.125  0.00  0.00    +0.000 OA
ATOM      8  C   UNL     1       1.328  12.183  20.316  0.00  0.00    +0.000 C 
ATOM      9  C   UNL     1       0.449  11.782  21.237  0.00  0.00    +0.000 C 
ATOM     10  C   UNL     1      -0.497  10.647  21.058  0.00  0.00    +0.000 C 
ATOM     11  C   UNL     1      -0.430   9.888  19.708  0.00  0.00    +0.000 C 
BRANCH  11  12
ATOM     12  O   UNL     1      -1.561  10.319  18.929  0.00  0.00    +0.000 OA
ATOM     13  H   UNL     1      -2.052  10.978  19.452  0.00  0.00    +0.000 HD
ENDBRANCH  11  12
BRANCH  10  14
ATOM     14  O   UNL     1      -0.377   9.753  22.152  0.00  0.00    +0.000 OA
ATOM     15  H   UNL     1      -0.230  10.273  22.962  0.00  0.00    +0.000 HD
ENDBRANCH  10  14
BRANCH   5  16
ATOM     16  O   UNL     1       0.486   9.876  17.449  0.00  0.00    +0.000 OA
ATOM     17  H   UNL     1       0.027  10.689  17.159  0.00  0.00    +0.000 HD
ENDBRANCH   5  16
ENDBRANCH   4   5
ENDBRANCH   3   4
ENDBRANCH   2   3
ENDBRANCH   1   2
BRANCH   1  18
ATOM     18  C   UNL     1       4.107   5.449  19.580  0.00  0.00    +0.000 C 
BRANCH  18  19
ATOM     19  C   UNL     1       5.275   6.016  18.805  0.00  0.00    +0.000 C 
BRANCH  19  20
ATOM     20  C   UNL     1       6.581   5.383  19.280  0.00  0.00    +0.000 C 
BRANCH  20  21
ATOM     21  C   UNL     1       7.411   4.878  18.102  0.00  0.00    +0.000 C 
BRANCH  21  22
ATOM     22  C   UNL     1       7.112   5.605  16.791  0.00  0.00    +0.000 C 
BRANCH  22  24
ATOM     23  C   UNL     1       5.930   4.062  15.205  0.00  0.00    +0.000 C 
ATOM     24  C   UNL     1       7.049   4.668  15.609  0.00  0.00    +0.000 C 
BRANCH  23  25
ATOM     25  C   UNL     1       4.608   4.296  15.876  0.00  0.00    +0.000 C 
BRANCH  25  26
ATOM     26  C   UNL     1       4.197   3.175  16.806  0.00  0.00    +0.000 C 
BRANCH  26  27
ATOM     27  C   UNL     1       2.682   3.188  16.954  0.00  0.00    +0.000 C 
BRANCH  27  28
ATOM     28  C   UNL     1       2.275   2.602  18.295  0.00  0.00    +0.000 C 
BRANCH  28  29
ATOM     29  C   UNL     1       0.875   3.064  18.682  0.00  0.00    +0.000 C 
BRANCH  29  30
ATOM     30  C   UNL     1       0.896   3.666  20.082  0.00  0.00    +0.000 C 
BRANCH  30  32
ATOM     31  C   UNL     1       2.597   2.788  21.696  0.00  0.00    +0.000 C 
ATOM     32  C   UNL     1       1.197   2.606  21.134  0.00  0.00    +0.000 C 
ENDBRANCH  30  32
ENDBRANCH  29  30
ENDBRANCH  28  29
ENDBRANCH  27  28
ENDBRANCH  26  27
ENDBRANCH  25  26
ENDBRANCH  23  25
ENDBRANCH  22  24
ENDBRANCH  21  22
ENDBRANCH  20  21
ENDBRANCH  19  20
ENDBRANCH  18  19
ENDBRANCH   1  18
TORSDOF 20
ENDMDL
MODEL 7
REMARK VINA RESULT:      -5.9      1.220      1.974
REMARK  Name = 
REMARK  21 active torsions:
REMARK  status: ('A' for Active; 'I' for Inactive)
REMARK    1  A    between atoms: C_1  and  C_2
REMARK    2  A    between atoms: C_2  and  C_3
REMARK    3  A    between atoms: C_3  and  C_4
REMARK    4  A    between atoms: C_4  and  C_5
REMARK    5  A    between atoms: C_5  and  C_6
REMARK    6  A    between atoms: C_6  and  C_7
REMARK    7  A    between atoms: C_7  and  C_8
REMARK    8  A    between atoms: C_8  and  C_9
REMARK    9  A    between atoms: C_10  and  C_11
REMARK   10  A    between atoms: C_11  and  C_12
REMARK   11  A    between atoms: C_12  and  C_13
REMARK   12  A    between atoms: C_13  and  C_14
REMARK   13  A    between atoms: C_14  and  C_15
REMARK   14  A    between atoms: C_15  and  C_16
REMARK   15  A    between atoms: C_16  and  C_17
REMARK   16  A    between atoms: C_17  and  C_18
REMARK   17  A    between atoms: C_18  and  C_19
REMARK   18  A    between atoms: C_19  and  C_20
REMARK   19  A    between atoms: C_20  and  O_21
REMARK   20  A    between atoms: C_26  and  O_27
REMARK   21  A    between atoms: C_28  and  O_29
REMARK                            x       y       z     vdW  Elec       q    Type
REMARK                         _______ _______ _______ _____ _____    ______ ____
ROOT
ATOM      1  C   UNL     1       2.155   7.475  18.281  0.00  0.00    +0.000 C 
ENDROOT
BRANCH   1   2
ATOM      2  C   UNL     1       2.426   8.880  17.742  0.00  0.00    +0.000 C 
BRANCH   2   3
ATOM      3  C   UNL     1       1.528   9.898  18.437  0.00  0.00    +0.000 C 
BRANCH   3   4
ATOM      4  C   UNL     1       2.034  11.340  18.373  0.00  0.00    +0.000 C 
BRANCH   4   5
ATOM      5  C   UNL     1       1.278  12.241  19.386  0.00  0.00    +0.000 C 
ATOM      6  C   UNL     1       0.569  11.367  20.453  0.00  0.00    +0.000 C 
ATOM      7  O   UNL     1       1.122  10.966  21.479  0.00  0.00    +0.000 OA
ATOM      8  C   UNL     1      -0.833  10.945  20.237  0.00  0.00    +0.000 C 
ATOM      9  C   UNL     1      -1.611  11.541  19.330  0.00  0.00    +0.000 C 
ATOM     10  C   UNL     1      -1.182  12.679  18.472  0.00  0.00    +0.000 C 
ATOM     11  C   UNL     1       0.274  13.180  18.654  0.00  0.00    +0.000 C 
BRANCH  11  12
ATOM     12  O   UNL     1       0.203  14.406  19.405  0.00  0.00    +0.000 OA
ATOM     13  H   UNL     1       1.041  14.509  19.893  0.00  0.00    +0.000 HD
ENDBRANCH  11  12
BRANCH  10  14
ATOM     14  O   UNL     1      -1.451  12.376  17.113  0.00  0.00    +0.000 OA
ATOM     15  H   UNL     1      -0.941  12.986  16.553  0.00  0.00    +0.000 HD
ENDBRANCH  10  14
BRANCH   5  16
ATOM     16  O   UNL     1       2.293  13.050  20.014  0.00  0.00    +0.000 OA
ATOM     17  H   UNL     1       3.017  12.440  20.259  0.00  0.00    +0.000 HD
ENDBRANCH   5  16
ENDBRANCH   4   5
ENDBRANCH   3   4
ENDBRANCH   2   3
ENDBRANCH   1   2
BRANCH   1  18
ATOM     18  C   UNL     1       1.940   7.482  19.795  0.00  0.00    +0.000 C 
BRANCH  18  19
ATOM     19  C   UNL     1       2.315   6.149  20.402  0.00  0.00    +0.000 C 
BRANCH  19  20
ATOM     20  C   UNL     1       1.123   5.196  20.363  0.00  0.00    +0.000 C 
BRANCH  20  21
ATOM     21  C   UNL     1       1.497   3.821  20.912  0.00  0.00    +0.000 C 
BRANCH  21  22
ATOM     22  C   UNL     1       1.452   2.712  19.861  0.00  0.00    +0.000 C 
BRANCH  22  24
ATOM     23  C   UNL     1       2.717   3.337  17.788  0.00  0.00    +0.000 C 
ATOM     24  C   UNL     1       1.564   3.243  18.452  0.00  0.00    +0.000 C 
BRANCH  23  25
ATOM     25  C   UNL     1       4.019   2.876  18.377  0.00  0.00    +0.000 C 
BRANCH  25  26
ATOM     26  C   UNL     1       4.753   3.960  19.138  0.00  0.00    +0.000 C 
BRANCH  26  27
ATOM     27  C   UNL     1       5.886   4.490  18.271  0.00  0.00    +0.000 C 
BRANCH  27  28
ATOM     28  C   UNL     1       5.453   5.753  17.548  0.00  0.00    +0.000 C 
BRANCH  28  29
ATOM     29  C   UNL     1       5.176   5.466  16.077  0.00  0.00    +0.000 C 
BRANCH  29  30
ATOM     30  C   UNL     1       6.028   4.293  15.608  0.00  0.00    +0.000 C 
BRANCH  30  32
ATOM     31  C   UNL     1       6.091   3.737  13.167  0.00  0.00    +0.000 C 
ATOM     32  C   UNL     1       6.691   4.594  14.269  0.00  0.00    +0.000 C 
ENDBRANCH  30  32
ENDBRANCH  29  30
ENDBRANCH  28  29
ENDBRANCH  27  28
ENDBRANCH  26  27
ENDBRANCH  25  26
ENDBRANCH  23  25
ENDBRANCH  22  24
ENDBRANCH  21  22
ENDBRANCH  20  21
ENDBRANCH  19  20
ENDBRANCH  18  19
ENDBRANCH   1  18
TORSDOF 20
ENDMDL
MODEL 8
REMARK VINA RESULT:      -5.9      5.944     10.134
REMARK  Name = 
REMARK  21 active torsions:
REMARK  status: ('A' for Active; 'I' for Inactive)
REMARK    1  A    between atoms: C_1  and  C_2
REMARK    2  A    between atoms: C_2  and  C_3
REMARK    3  A    between atoms: C_3  and  C_4
REMARK    4  A    between atoms: C_4  and  C_5
REMARK    5  A    between atoms: C_5  and  C_6
REMARK    6  A    between atoms: C_6  and  C_7
REMARK    7  A    between atoms: C_7  and  C_8
REMARK    8  A    between atoms: C_8  and  C_9
REMARK    9  A    between atoms: C_10  and  C_11
REMARK   10  A    between atoms: C_11  and  C_12
REMARK   11  A    between atoms: C_12  and  C_13
REMARK   12  A    between atoms: C_13  and  C_14
REMARK   13  A    between atoms: C_14  and  C_15
REMARK   14  A    between atoms: C_15  and  C_16
REMARK   15  A    between atoms: C_16  and  C_17
REMARK   16  A    between atoms: C_17  and  C_18
REMARK   17  A    between atoms: C_18  and  C_19
REMARK   18  A    between atoms: C_19  and  C_20
REMARK   19  A    between atoms: C_20  and  O_21
REMARK   20  A    between atoms: C_26  and  O_27
REMARK   21  A    between atoms: C_28  and  O_29
REMARK                            x       y       z     vdW  Elec       q    Type
REMARK                         _______ _______ _______ _____ _____    ______ ____
ROOT
ATOM      1  C   UNL     1       7.040   6.881  17.979  0.00  0.00    +0.000 C 
ENDROOT
BRANCH   1   2
ATOM      2  C   UNL     1       7.176   6.065  16.693  0.00  0.00    +0.000 C 
BRANCH   2   3
ATOM      3  C   UNL     1       6.754   4.620  16.934  0.00  0.00    +0.000 C 
BRANCH   3   4
ATOM      4  C   UNL     1       5.262   4.351  16.733  0.00  0.00    +0.000 C 
BRANCH   4   5
ATOM      5  C   UNL     1       4.567   4.027  18.083  0.00  0.00    +0.000 C 
ATOM      6  C   UNL     1       3.422   3.005  17.862  0.00  0.00    +0.000 C 
ATOM      7  O   UNL     1       3.594   1.784  17.850  0.00  0.00    +0.000 OA
ATOM      8  C   UNL     1       2.047   3.492  17.613  0.00  0.00    +0.000 C 
ATOM      9  C   UNL     1       1.691   4.750  17.885  0.00  0.00    +0.000 C 
ATOM     10  C   UNL     1       2.599   5.772  18.473  0.00  0.00    +0.000 C 
ATOM     11  C   UNL     1       4.053   5.326  18.770  0.00  0.00    +0.000 C 
BRANCH  11  12
ATOM     12  O   UNL     1       4.147   5.129  20.193  0.00  0.00    +0.000 OA
ATOM     13  H   UNL     1       5.067   5.306  20.461  0.00  0.00    +0.000 HD
ENDBRANCH  11  12
BRANCH  10  14
ATOM     14  O   UNL     1       2.577   6.942  17.671  0.00  0.00    +0.000 OA
ATOM     15  H   UNL     1       1.656   7.245  17.590  0.00  0.00    +0.000 HD
ENDBRANCH  10  14
BRANCH   5  16
ATOM     16  O   UNL     1       5.592   3.441  18.911  0.00  0.00    +0.000 OA
ATOM     17  H   UNL     1       5.151   2.751  19.447  0.00  0.00    +0.000 HD
ENDBRANCH   5  16
ENDBRANCH   4   5
ENDBRANCH   3   4
ENDBRANCH   2   3
ENDBRANCH   1   2
BRANCH   1  18
ATOM     18  C   UNL     1       8.282   7.731  18.244  0.00  0.00    +0.000 C 
BRANCH  18  19
ATOM     19  C   UNL     1       8.015   9.190  17.948  0.00  0.00    +0.000 C 
BRANCH  19  20
ATOM     20  C   UNL     1       9.010  10.073  18.697  0.00  0.00    +0.000 C 
BRANCH  20  21
ATOM     21  C   UNL     1       9.315  11.348  17.913  0.00  0.00    +0.000 C 
BRANCH  21  22
ATOM     22  C   UNL     1      10.808  11.660  17.818  0.00  0.00    +0.000 C 
BRANCH  22  24
ATOM     23  C   UNL     1      11.959  12.359  19.935  0.00  0.00    +0.000 C 
ATOM     24  C   UNL     1      11.541  11.395  19.112  0.00  0.00    +0.000 C 
BRANCH  23  25
ATOM     25  C   UNL     1      11.695  13.811  19.664  0.00  0.00    +0.000 C 
BRANCH  25  26
ATOM     26  C   UNL     1      10.349  14.285  20.171  0.00  0.00    +0.000 C 
BRANCH  26  27
ATOM     27  C   UNL     1       9.572  14.892  19.012  0.00  0.00    +0.000 C 
BRANCH  27  28
ATOM     28  C   UNL     1       8.080  14.679  19.203  0.00  0.00    +0.000 C 
BRANCH  28  29
ATOM     29  C   UNL     1       7.293  15.329  18.073  0.00  0.00    +0.000 C 
BRANCH  29  30
ATOM     30  C   UNL     1       6.014  14.543  17.812  0.00  0.00    +0.000 C 
BRANCH  30  32
ATOM     31  C   UNL     1       4.373  15.532  19.425  0.00  0.00    +0.000 C 
ATOM     32  C   UNL     1       4.782  15.426  17.965  0.00  0.00    +0.000 C 
ENDBRANCH  30  32
ENDBRANCH  29  30
ENDBRANCH  28  29
ENDBRANCH  27  28
ENDBRANCH  26  27
ENDBRANCH  25  26
ENDBRANCH  23  25
ENDBRANCH  22  24
ENDBRANCH  21  22
ENDBRANCH  20  21
ENDBRANCH  19  20
ENDBRANCH  18  19
ENDBRANCH   1  18
TORSDOF 20
ENDMDL
MODEL 9
REMARK VINA RESULT:      -5.9      1.692      3.105
REMARK  Name = 
REMARK  21 active torsions:
REMARK  status: ('A' for Active; 'I' for Inactive)
REMARK    1  A    between atoms: C_1  and  C_2
REMARK    2  A    between atoms: C_2  and  C_3
REMARK    3  A    between atoms: C_3  and  C_4
REMARK    4  A    between atoms: C_4  and  C_5
REMARK    5  A    between atoms: C_5  and  C_6
REMARK    6  A    between atoms: C_6  and  C_7
REMARK    7  A    between atoms: C_7  and  C_8
REMARK    8  A    between atoms: C_8  and  C_9
REMARK    9  A    between atoms: C_10  and  C_11
REMARK   10  A    between atoms: C_11  and  C_12
REMARK   11  A    between atoms: C_12  and  C_13
REMARK   12  A    between atoms: C_13  and  C_14
REMARK   13  A    between atoms: C_14  and  C_15
REMARK   14  A    between atoms: C_15  and  C_16
REMARK   15  A    between atoms: C_16  and  C_17
REMARK   16  A    between atoms: C_17  and  C_18
REMARK   17  A    between atoms: C_18  and  C_19
REMARK   18  A    between atoms: C_19  and  C_20
REMARK   19  A    between atoms: C_20  and  O_21
REMARK   20  A    between atoms: C_26  and  O_27
REMARK   21  A    between atoms: C_28  and  O_29
REMARK                            x       y       z     vdW  Elec       q    Type
REMARK                         _______ _______ _______ _____ _____    ______ ____
ROOT
ATOM      1  C   UNL     1       0.714  10.535  18.344  0.00  0.00    +0.000 C 
ENDROOT
BRANCH   1   2
ATOM      2  C   UNL     1      -0.787  10.361  18.112  0.00  0.00    +0.000 C 
BRANCH   2   3
ATOM      3  C   UNL     1      -1.499  11.705  18.213  0.00  0.00    +0.000 C 
BRANCH   3   4
ATOM      4  C   UNL     1      -2.477  11.820  19.384  0.00  0.00    +0.000 C 
BRANCH   4   5
ATOM      5  C   UNL     1      -2.052  12.953  20.356  0.00  0.00    +0.000 C 
ATOM      6  C   UNL     1      -1.030  12.415  21.389  0.00  0.00    +0.000 C 
ATOM      7  O   UNL     1       0.184  12.367  21.183  0.00  0.00    +0.000 OA
ATOM      8  C   UNL     1      -1.511  11.889  22.687  0.00  0.00    +0.000 C 
ATOM      9  C   UNL     1      -2.742  12.149  23.133  0.00  0.00    +0.000 C 
ATOM     10  C   UNL     1      -3.737  12.991  22.414  0.00  0.00    +0.000 C 
ATOM     11  C   UNL     1      -3.295  13.584  21.052  0.00  0.00    +0.000 C 
BRANCH  11  12
ATOM     12  O   UNL     1      -3.004  14.975  21.277  0.00  0.00    +0.000 OA
ATOM     13  H   UNL     1      -3.117  15.157  22.227  0.00  0.00    +0.000 HD
ENDBRANCH  11  12
BRANCH  10  14
ATOM     14  O   UNL     1      -4.957  12.279  22.289  0.00  0.00    +0.000 OA
ATOM     15  H   UNL     1      -4.772  11.328  22.384  0.00  0.00    +0.000 HD
ENDBRANCH  10  14
BRANCH   5  16
ATOM     16  O   UNL     1      -1.428  13.956  19.529  0.00  0.00    +0.000 OA
ATOM     17  H   UNL     1      -0.464  13.838  19.635  0.00  0.00    +0.000 HD
ENDBRANCH   5  16
ENDBRANCH   4   5
ENDBRANCH   3   4
ENDBRANCH   2   3
ENDBRANCH   1   2
BRANCH   1  18
ATOM     18  C   UNL     1       1.335   9.292  18.983  0.00  0.00    +0.000 C 
BRANCH  18  19
ATOM     19  C   UNL     1       2.242   8.576  18.008  0.00  0.00    +0.000 C 
BRANCH  19  20
ATOM     20  C   UNL     1       2.131   7.065  18.194  0.00  0.00    +0.000 C 
BRANCH  20  21
ATOM     21  C   UNL     1       2.699   6.631  19.543  0.00  0.00    +0.000 C 
BRANCH  21  22
ATOM     22  C   UNL     1       1.681   5.912  20.429  0.00  0.00    +0.000 C 
BRANCH  22  24
ATOM     23  C   UNL     1       1.862   3.431  20.752  0.00  0.00    +0.000 C 
ATOM     24  C   UNL     1       2.246   4.668  21.072  0.00  0.00    +0.000 C 
BRANCH  23  25
ATOM     25  C   UNL     1       0.849   3.162  19.678  0.00  0.00    +0.000 C 
BRANCH  25  26
ATOM     26  C   UNL     1       1.416   3.253  18.277  0.00  0.00    +0.000 C 
BRANCH  26  27
ATOM     27  C   UNL     1       2.469   2.170  18.100  0.00  0.00    +0.000 C 
BRANCH  27  28
ATOM     28  C   UNL     1       3.830   2.790  17.838  0.00  0.00    +0.000 C 
BRANCH  28  29
ATOM     29  C   UNL     1       3.687   4.108  17.087  0.00  0.00    +0.000 C 
BRANCH  29  30
ATOM     30  C   UNL     1       5.014   4.483  16.438  0.00  0.00    +0.000 C 
BRANCH  30  32
ATOM     31  C   UNL     1       6.156   6.619  17.073  0.00  0.00    +0.000 C 
ATOM     32  C   UNL     1       5.100   5.982  16.185  0.00  0.00    +0.000 C 
ENDBRANCH  30  32
ENDBRANCH  29  30
ENDBRANCH  28  29
ENDBRANCH  27  28
ENDBRANCH  26  27
ENDBRANCH  25  26
ENDBRANCH  23  25
ENDBRANCH  22  24
ENDBRANCH  21  22
ENDBRANCH  20  21
ENDBRANCH  19  20
ENDBRANCH  18  19
ENDBRANCH   1  18
TORSDOF 20
ENDMDL
