MODEL 1
REMARK VINA RESULT:      -7.3      0.000      0.000
REMARK  Name = 
REMARK  5 active torsions:
REMARK  status: ('A' for Active; 'I' for Inactive)
REMARK    1  A    between atoms: C_1  and  C_2
REMARK    2  A    between atoms: C_2  and  C_3
REMARK    3  A    between atoms: C_2  and  N_10
REMARK    4  A    between atoms: C_3  and  N_4
REMARK    5  A    between atoms: C_11  and  C_13
REMARK                            x       y       z     vdW  Elec       q    Type
REMARK                         _______ _______ _______ _____ _____    ______ ____
ROOT
ATOM      1  N   UNL     1       2.601   5.417  18.046  0.00  0.00    +0.000 N 
ATOM      2  C   UNL     1       2.828   6.265  19.102  0.00  0.00    +0.000 C 
ATOM      3  O   UNL     1       3.463   5.962  20.107  0.00  0.00    +0.000 OA
ATOM      4  H   UNL     1       1.802   5.622  17.460  0.00  0.00    +0.000 HD
ENDROOT
BRANCH   2   5
ATOM      5  C   UNL     1       2.228   7.616  18.978  0.00  0.00    +0.000 A 
ATOM      6  C   UNL     1       2.204   8.340  17.769  0.00  0.00    +0.000 A 
ATOM      7  C   UNL     1       1.647   9.618  17.707  0.00  0.00    +0.000 A 
ATOM      8  C   UNL     1       1.108  10.223  18.846  0.00  0.00    +0.000 A 
ATOM      9  C   UNL     1       1.137   9.521  20.066  0.00  0.00    +0.000 A 
ATOM     10  C   UNL     1       0.725   9.761  21.395  0.00  0.00    +0.000 A 
ATOM     11  N   UNL     1       0.989   8.739  22.213  0.00  0.00    +0.000 NA
ATOM     12  N   UNL     1       1.592   7.843  21.409  0.00  0.00    +0.000 N 
ATOM     13  C   UNL     1       1.694   8.251  20.103  0.00  0.00    +0.000 A 
ATOM     14  H   UNL     1       1.923   6.964  21.798  0.00  0.00    +0.000 HD
ENDBRANCH   2   5
BRANCH   1  16
ATOM     15  C   UNL     1       2.016   3.104  17.681  0.00  0.00    +0.000 C 
ATOM     16  C   UNL     1       3.173   4.073  17.936  0.00  0.00    +0.000 C 
BRANCH  16  17
ATOM     17  C   UNL     1       4.256   4.005  16.815  0.00  0.00    +0.000 C 
BRANCH  17  18
ATOM     18  N   UNL     1       4.985   5.252  16.507  0.00  0.00    +0.000 NA
ATOM     19  C   UNL     1       5.544   5.290  15.136  0.00  0.00    +0.000 C 
ATOM     20  C   UNL     1       6.764   4.377  14.915  0.00  0.00    +0.000 C 
ATOM     21  O   UNL     1       7.806   4.669  15.853  0.00  0.00    +0.000 OA
ATOM     22  C   UNL     1       7.327   4.528  17.196  0.00  0.00    +0.000 C 
ATOM     23  C   UNL     1       6.114   5.443  17.454  0.00  0.00    +0.000 C 
ENDBRANCH  17  18
ENDBRANCH  16  17
ENDBRANCH   1  16
TORSDOF 4
ENDMDL
MODEL 2
REMARK VINA RESULT:      -6.9      0.719      1.298
REMARK  Name = 
REMARK  5 active torsions:
REMARK  status: ('A' for Active; 'I' for Inactive)
REMARK    1  A    between atoms: C_1  and  C_2
REMARK    2  A    between atoms: C_2  and  C_3
REMARK    3  A    between atoms: C_2  and  N_10
REMARK    4  A    between atoms: C_3  and  N_4
REMARK    5  A    between atoms: C_11  and  C_13
REMARK                            x       y       z     vdW  Elec       q    Type
REMARK                         _______ _______ _______ _____ _____    ______ ____
ROOT
ATOM      1  N   UNL     1       2.416   5.443  18.112  0.00  0.00    +0.000 N 
ATOM      2  C   UNL     1       2.742   6.318  19.119  0.00  0.00    +0.000 C 
ATOM      3  O   UNL     1       3.453   6.034  20.078  0.00  0.00    +0.000 OA
ATOM      4  H   UNL     1       1.575   5.645  17.588  0.00  0.00    +0.000 HD
ENDROOT
BRANCH   2   5
ATOM      5  C   UNL     1       2.155   7.676  19.002  0.00  0.00    +0.000 A 
ATOM      6  C   UNL     1       2.115   8.395  17.791  0.00  0.00    +0.000 A 
ATOM      7  C   UNL     1       1.571   9.679  17.736  0.00  0.00    +0.000 A 
ATOM      8  C   UNL     1       1.062  10.295  18.883  0.00  0.00    +0.000 A 
ATOM      9  C   UNL     1       1.107   9.596  20.104  0.00  0.00    +0.000 A 
ATOM     10  C   UNL     1       0.724   9.846  21.441  0.00  0.00    +0.000 A 
ATOM     11  N   UNL     1       0.994   8.824  22.257  0.00  0.00    +0.000 NA
ATOM     12  N   UNL     1       1.570   7.918  21.445  0.00  0.00    +0.000 N 
ATOM     13  C   UNL     1       1.651   8.320  20.135  0.00  0.00    +0.000 A 
ATOM     14  H   UNL     1       1.900   7.036  21.830  0.00  0.00    +0.000 HD
ENDBRANCH   2   5
BRANCH   1  16
ATOM     15  C   UNL     1       1.769   3.120  18.015  0.00  0.00    +0.000 C 
ATOM     16  C   UNL     1       2.956   4.086  17.999  0.00  0.00    +0.000 C 
BRANCH  16  17
ATOM     17  C   UNL     1       3.828   3.926  16.715  0.00  0.00    +0.000 C 
BRANCH  17  18
ATOM     18  N   UNL     1       5.283   3.752  16.906  0.00  0.00    +0.000 NA
ATOM     19  C   UNL     1       5.893   4.775  17.785  0.00  0.00    +0.000 C 
ATOM     20  C   UNL     1       6.020   6.173  17.152  0.00  0.00    +0.000 C 
ATOM     21  O   UNL     1       6.749   6.119  15.920  0.00  0.00    +0.000 OA
ATOM     22  C   UNL     1       6.116   5.222  15.001  0.00  0.00    +0.000 C 
ATOM     23  C   UNL     1       5.990   3.807  15.599  0.00  0.00    +0.000 C 
ENDBRANCH  17  18
ENDBRANCH  16  17
ENDBRANCH   1  16
TORSDOF 4
ENDMDL
MODEL 3
REMARK VINA RESULT:      -6.6      3.678      7.652
REMARK  Name = 
REMARK  5 active torsions:
REMARK  status: ('A' for Active; 'I' for Inactive)
REMARK    1  A    between atoms: C_1  and  C_2
REMARK    2  A    between atoms: C_2  and  C_3
REMARK    3  A    between atoms: C_2  and  N_10
REMARK    4  A    between atoms: C_3  and  N_4
REMARK    5  A    between atoms: C_11  and  C_13
REMARK                            x       y       z     vdW  Elec       q    Type
REMARK                         _______ _______ _______ _____ _____    ______ ____
ROOT
ATOM      1  N   UNL     1       4.338   4.368  16.161  0.00  0.00    +0.000 N 
ATOM      2  C   UNL     1       5.651   4.192  15.801  0.00  0.00    +0.000 C 
ATOM      3  O   UNL     1       6.586   4.140  16.595  0.00  0.00    +0.000 OA
ATOM      4  H   UNL     1       3.718   4.745  15.457  0.00  0.00    +0.000 HD
ENDROOT
BRANCH   2   5
ATOM      5  C   UNL     1       5.906   4.085  14.343  0.00  0.00    +0.000 A 
ATOM      6  C   UNL     1       5.118   3.295  13.481  0.00  0.00    +0.000 A 
ATOM      7  C   UNL     1       5.411   3.209  12.119  0.00  0.00    +0.000 A 
ATOM      8  C   UNL     1       6.500   3.893  11.572  0.00  0.00    +0.000 A 
ATOM      9  C   UNL     1       7.306   4.675  12.421  0.00  0.00    +0.000 A 
ATOM     10  C   UNL     1       8.455   5.484  12.282  0.00  0.00    +0.000 A 
ATOM     11  N   UNL     1       8.848   6.030  13.436  0.00  0.00    +0.000 NA
ATOM     12  N   UNL     1       7.957   5.554  14.327  0.00  0.00    +0.000 N 
ATOM     13  C   UNL     1       6.996   4.747  13.772  0.00  0.00    +0.000 A 
ATOM     14  H   UNL     1       8.046   5.805  15.308  0.00  0.00    +0.000 HD
ENDBRANCH   2   5
BRANCH   1  16
ATOM     15  C   UNL     1       4.067   5.847  18.050  0.00  0.00    +0.000 C 
ATOM     16  C   UNL     1       3.869   4.414  17.549  0.00  0.00    +0.000 C 
BRANCH  16  17
ATOM     17  C   UNL     1       2.383   3.951  17.663  0.00  0.00    +0.000 C 
BRANCH  17  18
ATOM     18  N   UNL     1       2.142   2.570  18.130  0.00  0.00    +0.000 NA
ATOM     19  C   UNL     1       0.889   2.416  18.904  0.00  0.00    +0.000 C 
ATOM     20  C   UNL     1       0.931   3.019  20.320  0.00  0.00    +0.000 C 
ATOM     21  O   UNL     1       2.020   2.481  21.080  0.00  0.00    +0.000 OA
ATOM     22  C   UNL     1       3.264   2.718  20.411  0.00  0.00    +0.000 C 
ATOM     23  C   UNL     1       3.260   2.110  18.995  0.00  0.00    +0.000 C 
ENDBRANCH  17  18
ENDBRANCH  16  17
ENDBRANCH   1  16
TORSDOF 4
ENDMDL
MODEL 4
REMARK VINA RESULT:      -6.6      2.785      4.088
REMARK  Name = 
REMARK  5 active torsions:
REMARK  status: ('A' for Active; 'I' for Inactive)
REMARK    1  A    between atoms: C_1  and  C_2
REMARK    2  A    between atoms: C_2  and  C_3
REMARK    3  A    between atoms: C_2  and  N_10
REMARK    4  A    between atoms: C_3  and  N_4
REMARK    5  A    between atoms: C_11  and  C_13
REMARK                            x       y       z     vdW  Elec       q    Type
REMARK                         _______ _______ _______ _____ _____    ______ ____
ROOT
ATOM      1  N   UNL     1       2.819   7.079  18.657  0.00  0.00    +0.000 N 
ATOM      2  C   UNL     1       2.157   8.251  18.389  0.00  0.00    +0.000 C 
ATOM      3  O   UNL     1       2.183   8.829  17.306  0.00  0.00    +0.000 OA
ATOM      4  H   UNL     1       3.026   6.883  19.627  0.00  0.00    +0.000 HD
ENDROOT
BRANCH   2   5
ATOM      5  C   UNL     1       1.390   8.826  19.522  0.00  0.00    +0.000 A 
ATOM      6  C   UNL     1       1.494   8.346  20.843  0.00  0.00    +0.000 A 
ATOM      7  C   UNL     1       0.736   8.907  21.872  0.00  0.00    +0.000 A 
ATOM      8  C   UNL     1      -0.160   9.950  21.620  0.00  0.00    +0.000 A 
ATOM      9  C   UNL     1      -0.288  10.431  20.303  0.00  0.00    +0.000 A 
ATOM     10  C   UNL     1      -1.049  11.422  19.645  0.00  0.00    +0.000 A 
ATOM     11  N   UNL     1      -0.795  11.486  18.335  0.00  0.00    +0.000 NA
ATOM     12  N   UNL     1       0.121  10.518  18.146  0.00  0.00    +0.000 N 
ATOM     13  C   UNL     1       0.478   9.860  19.296  0.00  0.00    +0.000 A 
ATOM     14  H   UNL     1       0.474  10.338  17.209  0.00  0.00    +0.000 HD
ENDBRANCH   2   5
BRANCH   1  16
ATOM     15  C   UNL     1       4.927   6.982  17.485  0.00  0.00    +0.000 C 
ATOM     16  C   UNL     1       3.563   6.310  17.654  0.00  0.00    +0.000 C 
BRANCH  16  17
ATOM     17  C   UNL     1       3.691   4.811  18.067  0.00  0.00    +0.000 C 
BRANCH  17  18
ATOM     18  N   UNL     1       2.752   3.857  17.442  0.00  0.00    +0.000 NA
ATOM     19  C   UNL     1       1.377   3.935  17.985  0.00  0.00    +0.000 C 
ATOM     20  C   UNL     1       1.213   3.357  19.402  0.00  0.00    +0.000 C 
ATOM     21  O   UNL     1       1.663   1.998  19.463  0.00  0.00    +0.000 OA
ATOM     22  C   UNL     1       3.033   1.905  19.052  0.00  0.00    +0.000 C 
ATOM     23  C   UNL     1       3.227   2.461  17.628  0.00  0.00    +0.000 C 
ENDBRANCH  17  18
ENDBRANCH  16  17
ENDBRANCH   1  16
TORSDOF 4
ENDMDL
MODEL 5
REMARK VINA RESULT:      -6.6      2.815      4.099
REMARK  Name = 
REMARK  5 active torsions:
REMARK  status: ('A' for Active; 'I' for Inactive)
REMARK    1  A    between atoms: C_1  and  C_2
REMARK    2  A    between atoms: C_2  and  C_3
REMARK    3  A    between atoms: C_2  and  N_10
REMARK    4  A    between atoms: C_3  and  N_4
REMARK    5  A    between atoms: C_11  and  C_13
REMARK                            x       y       z     vdW  Elec       q    Type
REMARK                         _______ _______ _______ _____ _____    ______ ____
ROOT
ATOM      1  N   UNL     1       2.712   7.102  18.579  0.00  0.00    +0.000 N 
ATOM      2  C   UNL     1       2.118   8.321  18.361  0.00  0.00    +0.000 C 
ATOM      3  O   UNL     1       2.197   8.951  17.311  0.00  0.00    +0.000 OA
ATOM      4  H   UNL     1       2.888   6.846  19.542  0.00  0.00    +0.000 HD
ENDROOT
BRANCH   2   5
ATOM      5  C   UNL     1       1.359   8.877  19.509  0.00  0.00    +0.000 A 
ATOM      6  C   UNL     1       1.465   8.369  20.820  0.00  0.00    +0.000 A 
ATOM      7  C   UNL     1       0.714   8.913  21.863  0.00  0.00    +0.000 A 
ATOM      8  C   UNL     1      -0.175   9.968  21.636  0.00  0.00    +0.000 A 
ATOM      9  C   UNL     1      -0.303  10.478  20.330  0.00  0.00    +0.000 A 
ATOM     10  C   UNL     1      -1.059  11.488  19.696  0.00  0.00    +0.000 A 
ATOM     11  N   UNL     1      -0.809  11.579  18.387  0.00  0.00    +0.000 NA
ATOM     12  N   UNL     1       0.099  10.608  18.174  0.00  0.00    +0.000 N 
ATOM     13  C   UNL     1       0.454   9.923  19.309  0.00  0.00    +0.000 A 
ATOM     14  H   UNL     1       0.447  10.445  17.232  0.00  0.00    +0.000 HD
ENDBRANCH   2   5
BRANCH   1  16
ATOM     15  C   UNL     1       4.917   6.705  17.681  0.00  0.00    +0.000 C 
ATOM     16  C   UNL     1       3.434   6.347  17.552  0.00  0.00    +0.000 C 
BRANCH  16  17
ATOM     17  C   UNL     1       3.184   4.814  17.691  0.00  0.00    +0.000 C 
BRANCH  17  18
ATOM     18  N   UNL     1       3.094   4.268  19.062  0.00  0.00    +0.000 NA
ATOM     19  C   UNL     1       3.876   3.026  19.259  0.00  0.00    +0.000 C 
ATOM     20  C   UNL     1       3.275   1.776  18.590  0.00  0.00    +0.000 C 
ATOM     21  O   UNL     1       1.927   1.555  19.023  0.00  0.00    +0.000 OA
ATOM     22  C   UNL     1       1.114   2.700  18.739  0.00  0.00    +0.000 C 
ATOM     23  C   UNL     1       1.681   3.966  19.410  0.00  0.00    +0.000 C 
ENDBRANCH  17  18
ENDBRANCH  16  17
ENDBRANCH   1  16
TORSDOF 4
ENDMDL
MODEL 6
REMARK VINA RESULT:      -6.6      1.084      1.531
REMARK  Name = 
REMARK  5 active torsions:
REMARK  status: ('A' for Active; 'I' for Inactive)
REMARK    1  A    between atoms: C_1  and  C_2
REMARK    2  A    between atoms: C_2  and  C_3
REMARK    3  A    between atoms: C_2  and  N_10
REMARK    4  A    between atoms: C_3  and  N_4
REMARK    5  A    between atoms: C_11  and  C_13
REMARK                            x       y       z     vdW  Elec       q    Type
REMARK                         _______ _______ _______ _____ _____    ______ ____
ROOT
ATOM      1  N   UNL     1       3.261   5.776  18.623  0.00  0.00    +0.000 N 
ATOM      2  C   UNL     1       2.499   6.350  19.610  0.00  0.00    +0.000 C 
ATOM      3  O   UNL     1       2.210   5.800  20.668  0.00  0.00    +0.000 OA
ATOM      4  H   UNL     1       3.145   6.142  17.687  0.00  0.00    +0.000 HD
ENDROOT
BRANCH   2   5
ATOM      5  C   UNL     1       2.000   7.717  19.320  0.00  0.00    +0.000 A 
ATOM      6  C   UNL     1       1.980   8.270  18.024  0.00  0.00    +0.000 A 
ATOM      7  C   UNL     1       1.520   9.569  17.805  0.00  0.00    +0.000 A 
ATOM      8  C   UNL     1       1.080  10.365  18.866  0.00  0.00    +0.000 A 
ATOM      9  C   UNL     1       1.108   9.835  20.169  0.00  0.00    +0.000 A 
ATOM     10  C   UNL     1       0.774  10.286  21.465  0.00  0.00    +0.000 A 
ATOM     11  N   UNL     1       0.994   9.366  22.408  0.00  0.00    +0.000 NA
ATOM     12  N   UNL     1       1.491   8.322  21.716  0.00  0.00    +0.000 N 
ATOM     13  C   UNL     1       1.567   8.540  20.363  0.00  0.00    +0.000 A 
ATOM     14  H   UNL     1       1.770   7.480  22.212  0.00  0.00    +0.000 HD
ENDBRANCH   2   5
BRANCH   1  16
ATOM     15  C   UNL     1       2.816   3.405  18.704  0.00  0.00    +0.000 C 
ATOM     16  C   UNL     1       3.914   4.470  18.747  0.00  0.00    +0.000 C 
BRANCH  16  17
ATOM     17  C   UNL     1       4.982   4.260  17.628  0.00  0.00    +0.000 C 
BRANCH  17  18
ATOM     18  N   UNL     1       6.393   4.506  17.989  0.00  0.00    +0.000 NA
ATOM     19  C   UNL     1       6.655   5.888  18.453  0.00  0.00    +0.000 C 
ATOM     20  C   UNL     1       6.625   6.954  17.341  0.00  0.00    +0.000 C 
ATOM     21  O   UNL     1       7.542   6.631  16.289  0.00  0.00    +0.000 OA
ATOM     22  C   UNL     1       7.242   5.343  15.739  0.00  0.00    +0.000 C 
ATOM     23  C   UNL     1       7.281   4.250  16.825  0.00  0.00    +0.000 C 
ENDBRANCH  17  18
ENDBRANCH  16  17
ENDBRANCH   1  16
TORSDOF 4
ENDMDL
MODEL 7
REMARK VINA RESULT:      -6.5      1.954      2.719
REMARK  Name = 
REMARK  5 active torsions:
REMARK  status: ('A' for Active; 'I' for Inactive)
REMARK    1  A    between atoms: C_1  and  C_2
REMARK    2  A    between atoms: C_2  and  C_3
REMARK    3  A    between atoms: C_2  and  N_10
REMARK    4  A    between atoms: C_3  and  N_4
REMARK    5  A    between atoms: C_11  and  C_13
REMARK                            x       y       z     vdW  Elec       q    Type
REMARK                         _______ _______ _______ _____ _____    ______ ____
ROOT
ATOM      1  N   UNL     1       3.750   5.475  19.898  0.00  0.00    +0.000 N 
ATOM      2  C   UNL     1       2.752   6.031  19.136  0.00  0.00    +0.000 C 
ATOM      3  O   UNL     1       2.439   5.641  18.015  0.00  0.00    +0.000 OA
ATOM      4  H   UNL     1       4.158   6.063  20.614  0.00  0.00    +0.000 HD
ENDROOT
BRANCH   2   5
ATOM      5  C   UNL     1       2.050   7.187  19.746  0.00  0.00    +0.000 A 
ATOM      6  C   UNL     1       1.453   7.140  21.022  0.00  0.00    +0.000 A 
ATOM      7  C   UNL     1       0.785   8.249  21.544  0.00  0.00    +0.000 A 
ATOM      8  C   UNL     1       0.677   9.434  20.810  0.00  0.00    +0.000 A 
ATOM      9  C   UNL     1       1.254   9.494  19.528  0.00  0.00    +0.000 A 
ATOM     10  C   UNL     1       1.362  10.455  18.499  0.00  0.00    +0.000 A 
ATOM     11  N   UNL     1       2.034  10.003  17.436  0.00  0.00    +0.000 NA
ATOM     12  N   UNL     1       2.343   8.737  17.777  0.00  0.00    +0.000 N 
ATOM     13  C   UNL     1       1.915   8.380  19.030  0.00  0.00    +0.000 A 
ATOM     14  H   UNL     1       2.847   8.149  17.117  0.00  0.00    +0.000 HD
ENDBRANCH   2   5
BRANCH   1  16
ATOM     15  C   UNL     1       3.519   3.109  19.481  0.00  0.00    +0.000 C 
ATOM     16  C   UNL     1       4.505   4.279  19.514  0.00  0.00    +0.000 C 
BRANCH  16  17
ATOM     17  C   UNL     1       5.229   4.479  18.146  0.00  0.00    +0.000 C 
BRANCH  17  18
ATOM     18  N   UNL     1       6.703   4.573  18.172  0.00  0.00    +0.000 NA
ATOM     19  C   UNL     1       7.207   5.892  18.618  0.00  0.00    +0.000 C 
ATOM     20  C   UNL     1       7.030   7.026  17.592  0.00  0.00    +0.000 C 
ATOM     21  O   UNL     1       7.639   6.691  16.339  0.00  0.00    +0.000 OA
ATOM     22  C   UNL     1       7.088   5.475  15.822  0.00  0.00    +0.000 C 
ATOM     23  C   UNL     1       7.265   4.314  16.820  0.00  0.00    +0.000 C 
ENDBRANCH  17  18
ENDBRANCH  16  17
ENDBRANCH   1  16
TORSDOF 4
ENDMDL
MODEL 8
REMARK VINA RESULT:      -6.5      2.693      7.587
REMARK  Name = 
REMARK  5 active torsions:
REMARK  status: ('A' for Active; 'I' for Inactive)
REMARK    1  A    between atoms: C_1  and  C_2
REMARK    2  A    between atoms: C_2  and  C_3
REMARK    3  A    between atoms: C_2  and  N_10
REMARK    4  A    between atoms: C_3  and  N_4
REMARK    5  A    between atoms: C_11  and  C_13
REMARK                            x       y       z     vdW  Elec       q    Type
REMARK                         _______ _______ _______ _____ _____    ______ ____
ROOT
ATOM      1  N   UNL     1       1.680   7.496  19.475  0.00  0.00    +0.000 N 
ATOM      2  C   UNL     1       2.557   6.543  19.019  0.00  0.00    +0.000 C 
ATOM      3  O   UNL     1       3.524   6.781  18.301  0.00  0.00    +0.000 OA
ATOM      4  H   UNL     1       0.758   7.177  19.741  0.00  0.00    +0.000 HD
ENDROOT
BRANCH   2   5
ATOM      5  C   UNL     1       2.260   5.150  19.432  0.00  0.00    +0.000 A 
ATOM      6  C   UNL     1       1.435   4.832  20.530  0.00  0.00    +0.000 A 
ATOM      7  C   UNL     1       1.202   3.504  20.892  0.00  0.00    +0.000 A 
ATOM      8  C   UNL     1       1.792   2.452  20.186  0.00  0.00    +0.000 A 
ATOM      9  C   UNL     1       2.631   2.751  19.096  0.00  0.00    +0.000 A 
ATOM     10  C   UNL     1       3.395   2.019  18.162  0.00  0.00    +0.000 A 
ATOM     11  N   UNL     1       4.042   2.801  17.293  0.00  0.00    +0.000 NA
ATOM     12  N   UNL     1       3.706   4.046  17.683  0.00  0.00    +0.000 N 
ATOM     13  C   UNL     1       2.847   4.078  18.752  0.00  0.00    +0.000 A 
ATOM     14  H   UNL     1       4.093   4.847  17.191  0.00  0.00    +0.000 HD
ENDBRANCH   2   5
BRANCH   1  16
ATOM     15  C   UNL     1       1.148   9.269  17.926  0.00  0.00    +0.000 C 
ATOM     16  C   UNL     1       1.842   8.935  19.249  0.00  0.00    +0.000 C 
BRANCH  16  17
ATOM     17  C   UNL     1       1.271   9.766  20.439  0.00  0.00    +0.000 C 
BRANCH  17  18
ATOM     18  N   UNL     1      -0.180   9.659  20.701  0.00  0.00    +0.000 NA
ATOM     19  C   UNL     1      -0.849  10.968  20.878  0.00  0.00    +0.000 C 
ATOM     20  C   UNL     1      -0.536  11.673  22.211  0.00  0.00    +0.000 C 
ATOM     21  O   UNL     1      -0.848  10.832  23.328  0.00  0.00    +0.000 OA
ATOM     22  C   UNL     1      -0.124   9.599  23.246  0.00  0.00    +0.000 C 
ATOM     23  C   UNL     1      -0.429   8.859  21.929  0.00  0.00    +0.000 C 
ENDBRANCH  17  18
ENDBRANCH  16  17
ENDBRANCH   1  16
TORSDOF 4
ENDMDL
MODEL 9
REMARK VINA RESULT:      -6.5      1.509      2.297
REMARK  Name = 
REMARK  5 active torsions:
REMARK  status: ('A' for Active; 'I' for Inactive)
REMARK    1  A    between atoms: C_1  and  C_2
REMARK    2  A    between atoms: C_2  and  C_3
REMARK    3  A    between atoms: C_2  and  N_10
REMARK    4  A    between atoms: C_3  and  N_4
REMARK    5  A    between atoms: C_11  and  C_13
REMARK                            x       y       z     vdW  Elec       q    Type
REMARK                         _______ _______ _______ _____ _____    ______ ____
ROOT
ATOM      1  N   UNL     1       2.269   7.421  18.946  0.00  0.00    +0.000 N 
ATOM      2  C   UNL     1       1.638   7.833  20.093  0.00  0.00    +0.000 C 
ATOM      3  O   UNL     1       1.577   7.172  21.126  0.00  0.00    +0.000 OA
ATOM      4  H   UNL     1       1.968   7.849  18.081  0.00  0.00    +0.000 HD
ENDROOT
BRANCH   2   5
ATOM      5  C   UNL     1       0.984   9.163  20.021  0.00  0.00    +0.000 A 
ATOM      6  C   UNL     1       0.898   9.915  18.831  0.00  0.00    +0.000 A 
ATOM      7  C   UNL     1       0.292  11.172  18.819  0.00  0.00    +0.000 A 
ATOM      8  C   UNL     1      -0.235  11.728  19.987  0.00  0.00    +0.000 A 
ATOM      9  C   UNL     1      -0.145  10.998  21.187  0.00  0.00    +0.000 A 
ATOM     10  C   UNL     1      -0.526  11.191  22.533  0.00  0.00    +0.000 A 
ATOM     11  N   UNL     1      -0.200  10.160  23.318  0.00  0.00    +0.000 NA
ATOM     12  N   UNL     1       0.412   9.307  22.474  0.00  0.00    +0.000 N 
ATOM     13  C   UNL     1       0.461   9.750  21.177  0.00  0.00    +0.000 A 
ATOM     14  H   UNL     1       0.788   8.432  22.832  0.00  0.00    +0.000 HD
ENDBRANCH   2   5
BRANCH   1  16
ATOM     15  C   UNL     1       2.090   5.095  18.326  0.00  0.00    +0.000 C 
ATOM     16  C   UNL     1       3.041   6.180  18.837  0.00  0.00    +0.000 C 
BRANCH  16  17
ATOM     17  C   UNL     1       4.281   6.361  17.907  0.00  0.00    +0.000 C 
BRANCH  17  18
ATOM     18  N   UNL     1       5.343   5.338  17.993  0.00  0.00    +0.000 NA
ATOM     19  C   UNL     1       6.673   5.890  18.341  0.00  0.00    +0.000 C 
ATOM     20  C   UNL     1       7.355   6.680  17.209  0.00  0.00    +0.000 C 
ATOM     21  O   UNL     1       7.474   5.887  16.022  0.00  0.00    +0.000 OA
ATOM     22  C   UNL     1       6.185   5.432  15.592  0.00  0.00    +0.000 C 
ATOM     23  C   UNL     1       5.482   4.621  16.698  0.00  0.00    +0.000 C 
ENDBRANCH  17  18
ENDBRANCH  16  17
ENDBRANCH   1  16
TORSDOF 4
ENDMDL
