MODEL 1
REMARK VINA RESULT:      -7.3      0.000      0.000
REMARK  Name = 
REMARK  9 active torsions:
REMARK  status: ('A' for Active; 'I' for Inactive)
REMARK    1  A    between atoms: C_1  and  C_2
REMARK    2  A    between atoms: C_2  and  N_3
REMARK    3  A    between atoms: N_3  and  C_4
REMARK    4  A    between atoms: C_4  and  C_5
REMARK    5  A    between atoms: C_6  and  C_8
REMARK    6  A    between atoms: C_8  and  O_9
REMARK    7  A    between atoms: O_9  and  C_10
REMARK    8  A    between atoms: C_16  and  C_17
REMARK    9  A    between atoms: C_22  and  C_23
REMARK                            x       y       z     vdW  Elec       q    Type
REMARK                         _______ _______ _______ _____ _____    ______ ____
ROOT
ATOM      1  C   UNL     1       1.914   4.309  18.717  0.00  0.00    +0.000 C 
ATOM      2  C   UNL     1       1.872   5.577  17.859  0.00  0.00    +0.000 C 
ATOM      3  C   UNL     1       2.461   6.839  18.487  0.00  0.00    +0.000 C 
ATOM      4  N   UNL     1       2.151   6.918  19.907  0.00  0.00    +0.000 N 
ATOM      5  C   UNL     1       1.424   7.945  20.482  0.00  0.00    +0.000 A 
ATOM      6  C   UNL     1       1.466   9.238  19.956  0.00  0.00    +0.000 A 
ATOM      7  C   UNL     1       0.654  10.297  20.433  0.00  0.00    +0.000 A 
ATOM      8  C   UNL     1      -0.133   9.996  21.553  0.00  0.00    +0.000 A 
ATOM      9 CL   UNL     1      -1.220  11.099  22.321  0.00  0.00    +0.000 Cl
ATOM     10  C   UNL     1      -0.066   8.710  22.081  0.00  0.00    +0.000 A 
ATOM     11  N   UNL     1       0.680   7.693  21.569  0.00  0.00    +0.000 NA
ATOM     12  C   UNL     1       2.575   5.787  20.716  0.00  0.00    +0.000 C 
ATOM     13  C   UNL     1       1.907   4.507  20.238  0.00  0.00    +0.000 C 
ENDROOT
BRANCH   7  14
ATOM     14  C   UNL     1       0.707  11.635  19.778  0.00  0.00    +0.000 A 
ATOM     15  N   UNL     1       1.786  12.384  20.136  0.00  0.00    +0.000 NA
ATOM     16  C   UNL     1       1.933  13.622  19.616  0.00  0.00    +0.000 A 
ATOM     17  C   UNL     1       1.075  14.168  18.688  0.00  0.00    +0.000 A 
ATOM     18  C   UNL     1      -0.009  13.403  18.290  0.00  0.00    +0.000 A 
ATOM     19  C   UNL     1      -0.231  12.130  18.847  0.00  0.00    +0.000 A 
ATOM     20  C   UNL     1      -1.459  11.391  18.399  0.00  0.00    +0.000 C 
ENDBRANCH   7  14
BRANCH   1  21
ATOM     21  O   UNL     1       2.825   3.303  18.262  0.00  0.00    +0.000 OA
BRANCH  21  22
ATOM     22  C   UNL     1       3.882   3.667  17.389  0.00  0.00    +0.000 C 
BRANCH  22  24
ATOM     23  N   UNL     1       6.154   4.808  17.492  0.00  0.00    +0.000 N 
ATOM     24  C   UNL     1       5.170   4.057  18.169  0.00  0.00    +0.000 C 
ATOM     25  O   UNL     1       5.327   3.666  19.332  0.00  0.00    +0.000 OA
BRANCH  23  27
ATOM     26  C   UNL     1       7.704   6.601  18.317  0.00  0.00    +0.000 C 
ATOM     27  C   UNL     1       7.401   5.112  18.206  0.00  0.00    +0.000 C 
ENDBRANCH  23  27
BRANCH  23  28
ATOM     28  C   UNL     1       5.943   5.255  16.112  0.00  0.00    +0.000 C 
ATOM     29  C   UNL     1       5.144   6.521  15.865  0.00  0.00    +0.000 C 
ENDBRANCH  23  28
ENDBRANCH  22  24
ENDBRANCH  21  22
ENDBRANCH   1  21
TORSDOF 6
ENDMDL
MODEL 2
REMARK VINA RESULT:      -6.9      0.763      1.336
REMARK  Name = 
REMARK  9 active torsions:
REMARK  status: ('A' for Active; 'I' for Inactive)
REMARK    1  A    between atoms: C_1  and  C_2
REMARK    2  A    between atoms: C_2  and  N_3
REMARK    3  A    between atoms: N_3  and  C_4
REMARK    4  A    between atoms: C_4  and  C_5
REMARK    5  A    between atoms: C_6  and  C_8
REMARK    6  A    between atoms: C_8  and  O_9
REMARK    7  A    between atoms: O_9  and  C_10
REMARK    8  A    between atoms: C_16  and  C_17
REMARK    9  A    between atoms: C_22  and  C_23
REMARK                            x       y       z     vdW  Elec       q    Type
REMARK                         _______ _______ _______ _____ _____    ______ ____
ROOT
ATOM      1  C   UNL     1       2.029   4.227  18.776  0.00  0.00    +0.000 C 
ATOM      2  C   UNL     1       1.655   5.400  17.864  0.00  0.00    +0.000 C 
ATOM      3  C   UNL     1       2.236   6.763  18.241  0.00  0.00    +0.000 C 
ATOM      4  N   UNL     1       2.255   6.949  19.685  0.00  0.00    +0.000 N 
ATOM      5  C   UNL     1       1.575   7.959  20.341  0.00  0.00    +0.000 A 
ATOM      6  C   UNL     1       1.356   9.195  19.728  0.00  0.00    +0.000 A 
ATOM      7  C   UNL     1       0.569  10.221  20.307  0.00  0.00    +0.000 A 
ATOM      8  C   UNL     1       0.097   9.960  21.601  0.00  0.00    +0.000 A 
ATOM      9 CL   UNL     1      -0.895  11.034  22.525  0.00  0.00    +0.000 Cl
ATOM     10  C   UNL     1       0.420   8.742  22.190  0.00  0.00    +0.000 A 
ATOM     11  N   UNL     1       1.132   7.748  21.589  0.00  0.00    +0.000 NA
ATOM     12  C   UNL     1       2.971   5.940  20.448  0.00  0.00    +0.000 C 
ATOM     13  C   UNL     1       2.351   4.568  20.237  0.00  0.00    +0.000 C 
ENDROOT
BRANCH   7  14
ATOM     14  C   UNL     1       0.327  11.490  19.564  0.00  0.00    +0.000 A 
ATOM     15  N   UNL     1      -0.721  11.432  18.697  0.00  0.00    +0.000 NA
ATOM     16  C   UNL     1      -1.027  12.520  17.957  0.00  0.00    +0.000 A 
ATOM     17  C   UNL     1      -0.370  13.726  18.061  0.00  0.00    +0.000 A 
ATOM     18  C   UNL     1       0.678  13.807  18.964  0.00  0.00    +0.000 A 
ATOM     19  C   UNL     1       1.065  12.683  19.716  0.00  0.00    +0.000 A 
ATOM     20  C   UNL     1       2.245  12.845  20.632  0.00  0.00    +0.000 C 
ENDBRANCH   7  14
BRANCH   1  21
ATOM     21  O   UNL     1       2.912   3.265  18.191  0.00  0.00    +0.000 OA
BRANCH  21  22
ATOM     22  C   UNL     1       3.893   3.698  17.263  0.00  0.00    +0.000 C 
BRANCH  22  24
ATOM     23  N   UNL     1       6.225   4.715  17.219  0.00  0.00    +0.000 N 
ATOM     24  C   UNL     1       5.249   4.012  17.957  0.00  0.00    +0.000 C 
ATOM     25  O   UNL     1       5.462   3.603  19.104  0.00  0.00    +0.000 OA
BRANCH  23  27
ATOM     26  C   UNL     1       7.655   6.297  18.542  0.00  0.00    +0.000 C 
ATOM     27  C   UNL     1       7.531   4.947  17.850  0.00  0.00    +0.000 C 
ENDBRANCH  23  27
BRANCH  23  28
ATOM     28  C   UNL     1       5.947   5.185  15.859  0.00  0.00    +0.000 C 
ATOM     29  C   UNL     1       5.245   6.517  15.672  0.00  0.00    +0.000 C 
ENDBRANCH  23  28
ENDBRANCH  22  24
ENDBRANCH  21  22
ENDBRANCH   1  21
TORSDOF 6
ENDMDL
MODEL 3
REMARK VINA RESULT:      -6.7      0.766      1.380
REMARK  Name = 
REMARK  9 active torsions:
REMARK  status: ('A' for Active; 'I' for Inactive)
REMARK    1  A    between atoms: C_1  and  C_2
REMARK    2  A    between atoms: C_2  and  N_3
REMARK    3  A    between atoms: N_3  and  C_4
REMARK    4  A    between atoms: C_4  and  C_5
REMARK    5  A    between atoms: C_6  and  C_8
REMARK    6  A    between atoms: C_8  and  O_9
REMARK    7  A    between atoms: O_9  and  C_10
REMARK    8  A    between atoms: C_16  and  C_17
REMARK    9  A    between atoms: C_22  and  C_23
REMARK                            x       y       z     vdW  Elec       q    Type
REMARK                         _______ _______ _______ _____ _____    ______ ____
ROOT
ATOM      1  C   UNL     1       1.833   4.345  18.735  0.00  0.00    +0.000 C 
ATOM      2  C   UNL     1       1.784   5.613  17.878  0.00  0.00    +0.000 C 
ATOM      3  C   UNL     1       2.389   6.873  18.497  0.00  0.00    +0.000 C 
ATOM      4  N   UNL     1       2.101   6.953  19.921  0.00  0.00    +0.000 N 
ATOM      5  C   UNL     1       1.387   7.984  20.506  0.00  0.00    +0.000 A 
ATOM      6  C   UNL     1       1.427   9.277  19.979  0.00  0.00    +0.000 A 
ATOM      7  C   UNL     1       0.628  10.340  20.468  0.00  0.00    +0.000 A 
ATOM      8  C   UNL     1      -0.144  10.042  21.600  0.00  0.00    +0.000 A 
ATOM      9 CL   UNL     1      -1.214  11.151  22.384  0.00  0.00    +0.000 Cl
ATOM     10  C   UNL     1      -0.075   8.757  22.128  0.00  0.00    +0.000 A 
ATOM     11  N   UNL     1       0.658   7.736  21.605  0.00  0.00    +0.000 NA
ATOM     12  C   UNL     1       2.531   5.820  20.724  0.00  0.00    +0.000 C 
ATOM     13  C   UNL     1       1.849   4.544  20.257  0.00  0.00    +0.000 C 
ENDROOT
BRANCH   7  14
ATOM     14  C   UNL     1       0.678  11.677  19.812  0.00  0.00    +0.000 A 
ATOM     15  N   UNL     1       1.715  12.457  20.222  0.00  0.00    +0.000 NA
ATOM     16  C   UNL     1       1.855  13.697  19.707  0.00  0.00    +0.000 A 
ATOM     17  C   UNL     1       1.031  14.217  18.733  0.00  0.00    +0.000 A 
ATOM     18  C   UNL     1      -0.009  13.421  18.282  0.00  0.00    +0.000 A 
ATOM     19  C   UNL     1      -0.224  12.144  18.832  0.00  0.00    +0.000 A 
ATOM     20  C   UNL     1      -1.407  11.370  18.324  0.00  0.00    +0.000 C 
ENDBRANCH   7  14
BRANCH   1  21
ATOM     21  O   UNL     1       2.732   3.334  18.267  0.00  0.00    +0.000 OA
BRANCH  21  22
ATOM     22  C   UNL     1       4.123   3.478  18.505  0.00  0.00    +0.000 C 
BRANCH  22  24
ATOM     23  N   UNL     1       5.889   5.071  17.601  0.00  0.00    +0.000 N 
ATOM     24  C   UNL     1       4.846   4.167  17.312  0.00  0.00    +0.000 C 
ATOM     25  O   UNL     1       4.466   3.951  16.155  0.00  0.00    +0.000 OA
BRANCH  23  27
ATOM     26  C   UNL     1       7.357   4.880  15.574  0.00  0.00    +0.000 C 
ATOM     27  C   UNL     1       6.521   5.776  16.478  0.00  0.00    +0.000 C 
ENDBRANCH  23  27
BRANCH  23  28
ATOM     28  C   UNL     1       6.316   5.311  18.982  0.00  0.00    +0.000 C 
ATOM     29  C   UNL     1       7.738   5.774  19.241  0.00  0.00    +0.000 C 
ENDBRANCH  23  28
ENDBRANCH  22  24
ENDBRANCH  21  22
ENDBRANCH   1  21
TORSDOF 6
ENDMDL
MODEL 4
REMARK VINA RESULT:      -6.6      1.037      1.178
REMARK  Name = 
REMARK  9 active torsions:
REMARK  status: ('A' for Active; 'I' for Inactive)
REMARK    1  A    between atoms: C_1  and  C_2
REMARK    2  A    between atoms: C_2  and  N_3
REMARK    3  A    between atoms: N_3  and  C_4
REMARK    4  A    between atoms: C_4  and  C_5
REMARK    5  A    between atoms: C_6  and  C_8
REMARK    6  A    between atoms: C_8  and  O_9
REMARK    7  A    between atoms: O_9  and  C_10
REMARK    8  A    between atoms: C_16  and  C_17
REMARK    9  A    between atoms: C_22  and  C_23
REMARK                            x       y       z     vdW  Elec       q    Type
REMARK                         _______ _______ _______ _____ _____    ______ ____
ROOT
ATOM      1  C   UNL     1       1.794   4.488  18.699  0.00  0.00    +0.000 C 
ATOM      2  C   UNL     1       2.143   5.830  18.048  0.00  0.00    +0.000 C 
ATOM      3  C   UNL     1       2.682   6.915  18.980  0.00  0.00    +0.000 C 
ATOM      4  N   UNL     1       2.003   6.893  20.267  0.00  0.00    +0.000 N 
ATOM      5  C   UNL     1       1.274   7.954  20.772  0.00  0.00    +0.000 A 
ATOM      6  C   UNL     1       1.614   9.273  20.463  0.00  0.00    +0.000 A 
ATOM      7  C   UNL     1       0.835  10.389  20.857  0.00  0.00    +0.000 A 
ATOM      8  C   UNL     1      -0.262  10.098  21.680  0.00  0.00    +0.000 A 
ATOM      9 CL   UNL     1      -1.379  11.269  22.288  0.00  0.00    +0.000 Cl
ATOM     10  C   UNL     1      -0.498   8.770  22.021  0.00  0.00    +0.000 A 
ATOM     11  N   UNL     1       0.232   7.708  21.581  0.00  0.00    +0.000 NA
ATOM     12  C   UNL     1       2.047   5.632  20.989  0.00  0.00    +0.000 C 
ATOM     13  C   UNL     1       1.389   4.527  20.178  0.00  0.00    +0.000 C 
ENDROOT
BRANCH   7  14
ATOM     14  C   UNL     1       1.227  11.764  20.435  0.00  0.00    +0.000 A 
ATOM     15  N   UNL     1       1.097  12.701  21.412  0.00  0.00    +0.000 NA
ATOM     16  C   UNL     1       1.409  13.987  21.141  0.00  0.00    +0.000 A 
ATOM     17  C   UNL     1       1.913  14.413  19.932  0.00  0.00    +0.000 A 
ATOM     18  C   UNL     1       2.082  13.462  18.939  0.00  0.00    +0.000 A 
ATOM     19  C   UNL     1       1.717  12.121  19.161  0.00  0.00    +0.000 A 
ATOM     20  C   UNL     1       1.884  11.167  18.012  0.00  0.00    +0.000 C 
ENDBRANCH   7  14
BRANCH   1  21
ATOM     21  O   UNL     1       2.668   3.407  18.359  0.00  0.00    +0.000 OA
BRANCH  21  22
ATOM     22  C   UNL     1       3.680   3.612  17.387  0.00  0.00    +0.000 C 
BRANCH  22  24
ATOM     23  N   UNL     1       6.035   4.563  17.233  0.00  0.00    +0.000 N 
ATOM     24  C   UNL     1       5.049   3.958  18.040  0.00  0.00    +0.000 C 
ATOM     25  O   UNL     1       5.261   3.655  19.220  0.00  0.00    +0.000 OA
BRANCH  23  27
ATOM     26  C   UNL     1       7.590   6.280  18.200  0.00  0.00    +0.000 C 
ATOM     27  C   UNL     1       7.352   4.821  17.831  0.00  0.00    +0.000 C 
ENDBRANCH  23  27
BRANCH  23  28
ATOM     28  C   UNL     1       5.757   4.907  15.836  0.00  0.00    +0.000 C 
ATOM     29  C   UNL     1       6.321   4.025  14.737  0.00  0.00    +0.000 C 
ENDBRANCH  23  28
ENDBRANCH  22  24
ENDBRANCH  21  22
ENDBRANCH   1  21
TORSDOF 6
ENDMDL
MODEL 5
REMARK VINA RESULT:      -6.6      4.206      9.173
REMARK  Name = 
REMARK  9 active torsions:
REMARK  status: ('A' for Active; 'I' for Inactive)
REMARK    1  A    between atoms: C_1  and  C_2
REMARK    2  A    between atoms: C_2  and  N_3
REMARK    3  A    between atoms: N_3  and  C_4
REMARK    4  A    between atoms: C_4  and  C_5
REMARK    5  A    between atoms: C_6  and  C_8
REMARK    6  A    between atoms: C_8  and  O_9
REMARK    7  A    between atoms: O_9  and  C_10
REMARK    8  A    between atoms: C_16  and  C_17
REMARK    9  A    between atoms: C_22  and  C_23
REMARK                            x       y       z     vdW  Elec       q    Type
REMARK                         _______ _______ _______ _____ _____    ______ ____
ROOT
ATOM      1  C   UNL     1      -0.841  11.795  18.426  0.00  0.00    +0.000 C 
ATOM      2  C   UNL     1      -1.327  10.444  18.959  0.00  0.00    +0.000 C 
ATOM      3  C   UNL     1      -0.348   9.676  19.848  0.00  0.00    +0.000 C 
ATOM      4  N   UNL     1       1.020   9.814  19.371  0.00  0.00    +0.000 N 
ATOM      5  C   UNL     1       1.807   8.750  18.968  0.00  0.00    +0.000 A 
ATOM      6  C   UNL     1       1.652   7.483  19.538  0.00  0.00    +0.000 A 
ATOM      7  C   UNL     1       2.348   6.336  19.083  0.00  0.00    +0.000 A 
ATOM      8  C   UNL     1       3.298   6.567  18.078  0.00  0.00    +0.000 A 
ATOM      9 CL   UNL     1       4.271   5.344  17.340  0.00  0.00    +0.000 Cl
ATOM     10  C   UNL     1       3.464   7.868  17.612  0.00  0.00    +0.000 A 
ATOM     11  N   UNL     1       2.741   8.945  18.025  0.00  0.00    +0.000 NA
ATOM     12  C   UNL     1       1.517  11.174  19.245  0.00  0.00    +0.000 C 
ATOM     13  C   UNL     1       0.674  11.962  18.254  0.00  0.00    +0.000 C 
ENDROOT
BRANCH   7  14
ATOM     14  C   UNL     1       2.082   5.005  19.699  0.00  0.00    +0.000 A 
ATOM     15  N   UNL     1       2.403   4.932  21.019  0.00  0.00    +0.000 NA
ATOM     16  C   UNL     1       2.218   3.770  21.681  0.00  0.00    +0.000 A 
ATOM     17  C   UNL     1       1.665   2.645  21.111  0.00  0.00    +0.000 A 
ATOM     18  C   UNL     1       1.303   2.716  19.775  0.00  0.00    +0.000 A 
ATOM     19  C   UNL     1       1.529   3.891  19.034  0.00  0.00    +0.000 A 
ATOM     20  C   UNL     1       1.156   3.864  17.579  0.00  0.00    +0.000 C 
ENDBRANCH   7  14
BRANCH   1  21
ATOM     21  O   UNL     1      -1.496  12.936  18.988  0.00  0.00    +0.000 OA
BRANCH  21  22
ATOM     22  C   UNL     1      -1.304  13.242  20.359  0.00  0.00    +0.000 C 
BRANCH  22  24
ATOM     23  N   UNL     1      -2.623  12.654  22.454  0.00  0.00    +0.000 N 
ATOM     24  C   UNL     1      -2.640  13.202  21.154  0.00  0.00    +0.000 C 
ATOM     25  O   UNL     1      -3.685  13.598  20.623  0.00  0.00    +0.000 OA
BRANCH  23  27
ATOM     26  C   UNL     1      -3.900  13.234  24.535  0.00  0.00    +0.000 C 
ATOM     27  C   UNL     1      -3.898  12.549  23.175  0.00  0.00    +0.000 C 
ENDBRANCH  23  27
BRANCH  23  28
ATOM     28  C   UNL     1      -1.371  12.188  23.057  0.00  0.00    +0.000 C 
ATOM     29  C   UNL     1      -1.105  10.696  23.136  0.00  0.00    +0.000 C 
ENDBRANCH  23  28
ENDBRANCH  22  24
ENDBRANCH  21  22
ENDBRANCH   1  21
TORSDOF 6
ENDMDL
MODEL 6
REMARK VINA RESULT:      -6.5      4.055      8.361
REMARK  Name = 
REMARK  9 active torsions:
REMARK  status: ('A' for Active; 'I' for Inactive)
REMARK    1  A    between atoms: C_1  and  C_2
REMARK    2  A    between atoms: C_2  and  N_3
REMARK    3  A    between atoms: N_3  and  C_4
REMARK    4  A    between atoms: C_4  and  C_5
REMARK    5  A    between atoms: C_6  and  C_8
REMARK    6  A    between atoms: C_8  and  O_9
REMARK    7  A    between atoms: O_9  and  C_10
REMARK    8  A    between atoms: C_16  and  C_17
REMARK    9  A    between atoms: C_22  and  C_23
REMARK                            x       y       z     vdW  Elec       q    Type
REMARK                         _______ _______ _______ _____ _____    ______ ____
ROOT
ATOM      1  C   UNL     1       1.563  13.186  19.196  0.00  0.00    +0.000 C 
ATOM      2  C   UNL     1       2.584  12.389  18.378  0.00  0.00    +0.000 C 
ATOM      3  C   UNL     1       2.090  11.074  17.774  0.00  0.00    +0.000 C 
ATOM      4  N   UNL     1       1.192  10.379  18.685  0.00  0.00    +0.000 N 
ATOM      5  C   UNL     1       1.438   9.117  19.195  0.00  0.00    +0.000 A 
ATOM      6  C   UNL     1       2.160   8.172  18.462  0.00  0.00    +0.000 A 
ATOM      7  C   UNL     1       2.539   6.909  18.982  0.00  0.00    +0.000 A 
ATOM      8  C   UNL     1       2.049   6.613  20.262  0.00  0.00    +0.000 A 
ATOM      9 CL   UNL     1       2.373   5.153  21.129  0.00  0.00    +0.000 Cl
ATOM     10  C   UNL     1       1.264   7.565  20.905  0.00  0.00    +0.000 A 
ATOM     11  N   UNL     1       0.962   8.795  20.407  0.00  0.00    +0.000 NA
ATOM     12  C   UNL     1       0.025  11.126  19.125  0.00  0.00    +0.000 C 
ATOM     13  C   UNL     1       0.444  12.383  19.871  0.00  0.00    +0.000 C 
ENDROOT
BRANCH   7  14
ATOM     14  C   UNL     1       3.366   5.979  18.162  0.00  0.00    +0.000 A 
ATOM     15  N   UNL     1       4.652   6.389  17.989  0.00  0.00    +0.000 NA
ATOM     16  C   UNL     1       5.493   5.633  17.251  0.00  0.00    +0.000 A 
ATOM     17  C   UNL     1       5.144   4.422  16.695  0.00  0.00    +0.000 A 
ATOM     18  C   UNL     1       3.847   3.977  16.891  0.00  0.00    +0.000 A 
ATOM     19  C   UNL     1       2.922   4.760  17.607  0.00  0.00    +0.000 A 
ATOM     20  C   UNL     1       1.523   4.227  17.727  0.00  0.00    +0.000 C 
ENDBRANCH   7  14
BRANCH   1  21
ATOM     21  O   UNL     1       1.124  14.406  18.588  0.00  0.00    +0.000 OA
BRANCH  21  22
ATOM     22  C   UNL     1       1.644  15.640  19.053  0.00  0.00    +0.000 C 
BRANCH  22  24
ATOM     23  N   UNL     1       4.167  15.854  19.310  0.00  0.00    +0.000 N 
ATOM     24  C   UNL     1       3.048  15.939  18.455  0.00  0.00    +0.000 C 
ATOM     25  O   UNL     1       3.151  16.289  17.273  0.00  0.00    +0.000 OA
BRANCH  23  27
ATOM     26  C   UNL     1       6.168  15.074  18.012  0.00  0.00    +0.000 C 
ATOM     27  C   UNL     1       5.483  16.209  18.762  0.00  0.00    +0.000 C 
ENDBRANCH  23  27
BRANCH  23  28
ATOM     28  C   UNL     1       4.015  15.440  20.708  0.00  0.00    +0.000 C 
ATOM     29  C   UNL     1       5.138  14.662  21.369  0.00  0.00    +0.000 C 
ENDBRANCH  23  28
ENDBRANCH  22  24
ENDBRANCH  21  22
ENDBRANCH   1  21
TORSDOF 6
ENDMDL
MODEL 7
REMARK VINA RESULT:      -6.5      1.025      1.141
REMARK  Name = 
REMARK  9 active torsions:
REMARK  status: ('A' for Active; 'I' for Inactive)
REMARK    1  A    between atoms: C_1  and  C_2
REMARK    2  A    between atoms: C_2  and  N_3
REMARK    3  A    between atoms: N_3  and  C_4
REMARK    4  A    between atoms: C_4  and  C_5
REMARK    5  A    between atoms: C_6  and  C_8
REMARK    6  A    between atoms: C_8  and  O_9
REMARK    7  A    between atoms: O_9  and  C_10
REMARK    8  A    between atoms: C_16  and  C_17
REMARK    9  A    between atoms: C_22  and  C_23
REMARK                            x       y       z     vdW  Elec       q    Type
REMARK                         _______ _______ _______ _____ _____    ______ ____
ROOT
ATOM      1  C   UNL     1       2.030   5.379  18.092  0.00  0.00    +0.000 C 
ATOM      2  C   UNL     1       1.968   6.798  17.520  0.00  0.00    +0.000 C 
ATOM      3  C   UNL     1       2.475   7.917  18.429  0.00  0.00    +0.000 C 
ATOM      4  N   UNL     1       2.102   7.681  19.817  0.00  0.00    +0.000 N 
ATOM      5  C   UNL     1       1.307   8.537  20.558  0.00  0.00    +0.000 A 
ATOM      6  C   UNL     1       1.314   9.914  20.319  0.00  0.00    +0.000 A 
ATOM      7  C   UNL     1       0.438  10.819  20.967  0.00  0.00    +0.000 A 
ATOM      8  C   UNL     1      -0.382  10.260  21.957  0.00  0.00    +0.000 A 
ATOM      9 CL   UNL     1      -1.548  11.137  22.885  0.00  0.00    +0.000 Cl
ATOM     10  C   UNL     1      -0.281   8.894  22.205  0.00  0.00    +0.000 A 
ATOM     11  N   UNL     1       0.530   8.035  21.528  0.00  0.00    +0.000 NA
ATOM     12  C   UNL     1       2.540   6.419  20.388  0.00  0.00    +0.000 C 
ATOM     13  C   UNL     1       1.950   5.249  19.619  0.00  0.00    +0.000 C 
ENDROOT
BRANCH   7  14
ATOM     14  C   UNL     1       0.460  12.266  20.613  0.00  0.00    +0.000 A 
ATOM     15  N   UNL     1       1.279  13.016  21.399  0.00  0.00    +0.000 NA
ATOM     16  C   UNL     1       1.370  14.346  21.181  0.00  0.00    +0.000 A 
ATOM     17  C   UNL     1       0.716  15.000  20.160  0.00  0.00    +0.000 A 
ATOM     18  C   UNL     1      -0.096  14.242  19.331  0.00  0.00    +0.000 A 
ATOM     19  C   UNL     1      -0.262  12.863  19.557  0.00  0.00    +0.000 A 
ATOM     20  C   UNL     1      -1.202  12.128  18.644  0.00  0.00    +0.000 C 
ENDBRANCH   7  14
BRANCH   1  21
ATOM     21  O   UNL     1       3.003   4.524  17.482  0.00  0.00    +0.000 OA
BRANCH  21  22
ATOM     22  C   UNL     1       3.865   3.756  18.304  0.00  0.00    +0.000 C 
BRANCH  22  24
ATOM     23  N   UNL     1       5.957   4.788  17.286  0.00  0.00    +0.000 N 
ATOM     24  C   UNL     1       5.263   4.421  18.458  0.00  0.00    +0.000 C 
ATOM     25  O   UNL     1       5.754   4.567  19.584  0.00  0.00    +0.000 OA
BRANCH  23  27
ATOM     26  C   UNL     1       7.357   6.868  17.377  0.00  0.00    +0.000 C 
ATOM     27  C   UNL     1       7.307   5.347  17.430  0.00  0.00    +0.000 C 
ENDBRANCH  23  27
BRANCH  23  28
ATOM     28  C   UNL     1       5.352   4.599  15.964  0.00  0.00    +0.000 C 
ATOM     29  C   UNL     1       6.167   3.929  14.873  0.00  0.00    +0.000 C 
ENDBRANCH  23  28
ENDBRANCH  22  24
ENDBRANCH  21  22
ENDBRANCH   1  21
TORSDOF 6
ENDMDL
MODEL 8
REMARK VINA RESULT:      -6.4      3.477      5.324
REMARK  Name = 
REMARK  9 active torsions:
REMARK  status: ('A' for Active; 'I' for Inactive)
REMARK    1  A    between atoms: C_1  and  C_2
REMARK    2  A    between atoms: C_2  and  N_3
REMARK    3  A    between atoms: N_3  and  C_4
REMARK    4  A    between atoms: C_4  and  C_5
REMARK    5  A    between atoms: C_6  and  C_8
REMARK    6  A    between atoms: C_8  and  O_9
REMARK    7  A    between atoms: O_9  and  C_10
REMARK    8  A    between atoms: C_16  and  C_17
REMARK    9  A    between atoms: C_22  and  C_23
REMARK                            x       y       z     vdW  Elec       q    Type
REMARK                         _______ _______ _______ _____ _____    ______ ____
ROOT
ATOM      1  C   UNL     1       2.076   8.559  19.215  0.00  0.00    +0.000 C 
ATOM      2  C   UNL     1       1.267   8.689  20.510  0.00  0.00    +0.000 C 
ATOM      3  C   UNL     1      -0.166   9.199  20.364  0.00  0.00    +0.000 C 
ATOM      4  N   UNL     1      -0.258  10.238  19.350  0.00  0.00    +0.000 N 
ATOM      5  C   UNL     1      -0.681  11.530  19.606  0.00  0.00    +0.000 A 
ATOM      6  C   UNL     1      -1.614  11.796  20.611  0.00  0.00    +0.000 A 
ATOM      7  C   UNL     1      -1.994  13.107  20.991  0.00  0.00    +0.000 A 
ATOM      8  C   UNL     1      -1.449  14.141  20.217  0.00  0.00    +0.000 A 
ATOM      9 CL   UNL     1      -1.737  15.826  20.476  0.00  0.00    +0.000 Cl
ATOM     10  C   UNL     1      -0.590  13.804  19.175  0.00  0.00    +0.000 A 
ATOM     11  N   UNL     1      -0.196  12.538  18.865  0.00  0.00    +0.000 NA
ATOM     12  C   UNL     1       0.216   9.879  18.024  0.00  0.00    +0.000 C 
ATOM     13  C   UNL     1       1.688   9.499  18.066  0.00  0.00    +0.000 C 
ENDROOT
BRANCH   7  14
ATOM     14  C   UNL     1      -2.947  13.314  22.118  0.00  0.00    +0.000 A 
ATOM     15  N   UNL     1      -4.222  12.925  21.843  0.00  0.00    +0.000 NA
ATOM     16  C   UNL     1      -5.178  13.077  22.784  0.00  0.00    +0.000 A 
ATOM     17  C   UNL     1      -4.933  13.560  24.051  0.00  0.00    +0.000 A 
ATOM     18  C   UNL     1      -3.633  13.929  24.355  0.00  0.00    +0.000 A 
ATOM     19  C   UNL     1      -2.617  13.839  23.386  0.00  0.00    +0.000 A 
ATOM     20  C   UNL     1      -1.247  14.310  23.783  0.00  0.00    +0.000 C 
ENDBRANCH   7  14
BRANCH   1  21
ATOM     21  O   UNL     1       2.349   7.216  18.806  0.00  0.00    +0.000 OA
BRANCH  21  22
ATOM     22  C   UNL     1       2.226   6.164  19.749  0.00  0.00    +0.000 C 
BRANCH  22  24
ATOM     23  N   UNL     1       2.853   3.703  19.903  0.00  0.00    +0.000 N 
ATOM     24  C   UNL     1       3.196   4.989  19.437  0.00  0.00    +0.000 C 
ATOM     25  O   UNL     1       4.257   5.210  18.840  0.00  0.00    +0.000 OA
BRANCH  23  27
ATOM     26  C   UNL     1       3.476   1.744  18.463  0.00  0.00    +0.000 C 
ATOM     27  C   UNL     1       3.806   2.609  19.672  0.00  0.00    +0.000 C 
ENDBRANCH  23  27
BRANCH  23  28
ATOM     28  C   UNL     1       1.591   3.471  20.612  0.00  0.00    +0.000 C 
ATOM     29  C   UNL     1       1.575   2.512  21.787  0.00  0.00    +0.000 C 
ENDBRANCH  23  28
ENDBRANCH  22  24
ENDBRANCH  21  22
ENDBRANCH   1  21
TORSDOF 6
ENDMDL
MODEL 9
REMARK VINA RESULT:      -6.4      4.238      9.216
REMARK  Name = 
REMARK  9 active torsions:
REMARK  status: ('A' for Active; 'I' for Inactive)
REMARK    1  A    between atoms: C_1  and  C_2
REMARK    2  A    between atoms: C_2  and  N_3
REMARK    3  A    between atoms: N_3  and  C_4
REMARK    4  A    between atoms: C_4  and  C_5
REMARK    5  A    between atoms: C_6  and  C_8
REMARK    6  A    between atoms: C_8  and  O_9
REMARK    7  A    between atoms: O_9  and  C_10
REMARK    8  A    between atoms: C_16  and  C_17
REMARK    9  A    between atoms: C_22  and  C_23
REMARK                            x       y       z     vdW  Elec       q    Type
REMARK                         _______ _______ _______ _____ _____    ______ ____
ROOT
ATOM      1  C   UNL     1       1.425  12.994  19.315  0.00  0.00    +0.000 C 
ATOM      2  C   UNL     1       2.460  12.253  18.464  0.00  0.00    +0.000 C 
ATOM      3  C   UNL     1       2.002  10.936  17.836  0.00  0.00    +0.000 C 
ATOM      4  N   UNL     1       1.144  10.188  18.743  0.00  0.00    +0.000 N 
ATOM      5  C   UNL     1       1.442   8.924  19.219  0.00  0.00    +0.000 A 
ATOM      6  C   UNL     1       2.185   8.023  18.453  0.00  0.00    +0.000 A 
ATOM      7  C   UNL     1       2.615   6.762  18.936  0.00  0.00    +0.000 A 
ATOM      8  C   UNL     1       2.157   6.419  20.216  0.00  0.00    +0.000 A 
ATOM      9 CL   UNL     1       2.545   4.951  21.043  0.00  0.00    +0.000 Cl
ATOM     10  C   UNL     1       1.349   7.327  20.894  0.00  0.00    +0.000 A 
ATOM     11  N   UNL     1       0.996   8.557  20.430  0.00  0.00    +0.000 NA
ATOM     12  C   UNL     1      -0.041  10.883  19.218  0.00  0.00    +0.000 C 
ATOM     13  C   UNL     1       0.346  12.136  19.988  0.00  0.00    +0.000 C 
ENDROOT
BRANCH   7  14
ATOM     14  C   UNL     1       3.461   5.881  18.082  0.00  0.00    +0.000 A 
ATOM     15  N   UNL     1       4.727   6.344  17.893  0.00  0.00    +0.000 NA
ATOM     16  C   UNL     1       5.582   5.636  17.124  0.00  0.00    +0.000 A 
ATOM     17  C   UNL     1       5.269   4.423  16.550  0.00  0.00    +0.000 A 
ATOM     18  C   UNL     1       3.994   3.925  16.762  0.00  0.00    +0.000 A 
ATOM     19  C   UNL     1       3.054   4.657  17.511  0.00  0.00    +0.000 A 
ATOM     20  C   UNL     1       1.678   4.068  17.646  0.00  0.00    +0.000 C 
ENDBRANCH   7  14
BRANCH   1  21
ATOM     21  O   UNL     1       0.934  14.211  18.744  0.00  0.00    +0.000 OA
BRANCH  21  22
ATOM     22  C   UNL     1       0.250  15.139  19.569  0.00  0.00    +0.000 C 
BRANCH  22  24
ATOM     23  N   UNL     1       1.077  17.324  18.560  0.00  0.00    +0.000 N 
ATOM     24  C   UNL     1      -0.022  16.481  18.831  0.00  0.00    +0.000 C 
ATOM     25  O   UNL     1      -1.181  16.802  18.544  0.00  0.00    +0.000 OA
BRANCH  23  27
ATOM     26  C   UNL     1       0.807  18.585  16.407  0.00  0.00    +0.000 C 
ATOM     27  C   UNL     1       0.810  18.623  17.929  0.00  0.00    +0.000 C 
ENDBRANCH  23  27
BRANCH  23  28
ATOM     28  C   UNL     1       2.441  16.920  18.915  0.00  0.00    +0.000 C 
ATOM     29  C   UNL     1       3.117  17.581  20.101  0.00  0.00    +0.000 C 
ENDBRANCH  23  28
ENDBRANCH  22  24
ENDBRANCH  21  22
ENDBRANCH   1  21
TORSDOF 6
ENDMDL
