MODEL 1
REMARK VINA RESULT:      -6.5      0.000      0.000
REMARK  Name = 
REMARK  6 active torsions:
REMARK  status: ('A' for Active; 'I' for Inactive)
REMARK    1  A    between atoms: C_1  and  O_2
REMARK    2  A    between atoms: O_2  and  C_3
REMARK    3  A    between atoms: C_6  and  N_7
REMARK    4  A    between atoms: N_8  and  C_10
REMARK    5  A    between atoms: C_13  and  O_14
REMARK    6  A    between atoms: O_14  and  C_15
REMARK                            x       y       z     vdW  Elec       q    Type
REMARK                         _______ _______ _______ _____ _____    ______ ____
ROOT
ATOM      1  N   UNL     1       4.359   3.660  16.262  0.00  0.00    +0.000 NA
ATOM      2  N   UNL     1       5.451   4.164  15.850  0.00  0.00    +0.000 N 
ATOM      3  O   UNL     1       5.869   3.862  14.678  0.00  0.00    +0.000 OA
ENDROOT
BRANCH   1   7
ATOM      4  C   UNL     1       2.698   4.062  20.122  0.00  0.00    +0.000 A 
ATOM      5  C   UNL     1       3.527   2.991  19.793  0.00  0.00    +0.000 A 
ATOM      6  C   UNL     1       4.051   2.878  18.501  0.00  0.00    +0.000 A 
ATOM      7  C   UNL     1       3.750   3.824  17.513  0.00  0.00    +0.000 A 
ATOM      8  C   UNL     1       2.950   4.914  17.863  0.00  0.00    +0.000 A 
ATOM      9  C   UNL     1       2.397   5.016  19.146  0.00  0.00    +0.000 A 
BRANCH   4  11
ATOM     10  C   UNL     1       1.468   2.921  21.785  0.00  0.00    +0.000 C 
ATOM     11  O   UNL     1       2.219   4.068  21.402  0.00  0.00    +0.000 OA
ENDBRANCH   4  11
ENDBRANCH   1   7
BRANCH   2  12
ATOM     12  C   UNL     1       6.313   5.073  16.622  0.00  0.00    +0.000 A 
ATOM     13  C   UNL     1       6.171   6.455  16.409  0.00  0.00    +0.000 A 
ATOM     14  C   UNL     1       6.903   7.366  17.173  0.00  0.00    +0.000 A 
ATOM     15  C   UNL     1       7.780   6.907  18.155  0.00  0.00    +0.000 A 
ATOM     16  C   UNL     1       7.950   5.533  18.345  0.00  0.00    +0.000 A 
ATOM     17  C   UNL     1       7.192   4.616  17.611  0.00  0.00    +0.000 A 
BRANCH  15  18
ATOM     18  O   UNL     1       8.433   7.872  18.870  0.00  0.00    +0.000 OA
ATOM     19  C   UNL     1       8.436   9.160  18.260  0.00  0.00    +0.000 C 
ENDBRANCH  15  18
ENDBRANCH   2  12
TORSDOF 4
ENDMDL
MODEL 2
REMARK VINA RESULT:      -6.4      0.245      1.135
REMARK  Name = 
REMARK  6 active torsions:
REMARK  status: ('A' for Active; 'I' for Inactive)
REMARK    1  A    between atoms: C_1  and  O_2
REMARK    2  A    between atoms: O_2  and  C_3
REMARK    3  A    between atoms: C_6  and  N_7
REMARK    4  A    between atoms: N_8  and  C_10
REMARK    5  A    between atoms: C_13  and  O_14
REMARK    6  A    between atoms: O_14  and  C_15
REMARK                            x       y       z     vdW  Elec       q    Type
REMARK                         _______ _______ _______ _____ _____    ______ ____
ROOT
ATOM      1  N   UNL     1       4.190   3.660  16.374  0.00  0.00    +0.000 NA
ATOM      2  N   UNL     1       5.231   4.253  15.950  0.00  0.00    +0.000 N 
ATOM      3  O   UNL     1       5.667   3.978  14.778  0.00  0.00    +0.000 OA
ENDROOT
BRANCH   1   7
ATOM      4  C   UNL     1       2.518   3.940  20.240  0.00  0.00    +0.000 A 
ATOM      5  C   UNL     1       3.375   2.899  19.891  0.00  0.00    +0.000 A 
ATOM      6  C   UNL     1       3.903   2.826  18.597  0.00  0.00    +0.000 A 
ATOM      7  C   UNL     1       3.576   3.783  17.628  0.00  0.00    +0.000 A 
ATOM      8  C   UNL     1       2.747   4.844  17.999  0.00  0.00    +0.000 A 
ATOM      9  C   UNL     1       2.192   4.905  19.284  0.00  0.00    +0.000 A 
BRANCH   4  11
ATOM     10  C   UNL     1       1.392   2.700  21.906  0.00  0.00    +0.000 C 
ATOM     11  O   UNL     1       2.038   3.908  21.519  0.00  0.00    +0.000 OA
ENDBRANCH   4  11
ENDBRANCH   1   7
BRANCH   2  12
ATOM     12  C   UNL     1       6.016   5.242  16.708  0.00  0.00    +0.000 A 
ATOM     13  C   UNL     1       6.986   4.765  17.606  0.00  0.00    +0.000 A 
ATOM     14  C   UNL     1       7.815   5.656  18.288  0.00  0.00    +0.000 A 
ATOM     15  C   UNL     1       7.686   7.029  18.079  0.00  0.00    +0.000 A 
ATOM     16  C   UNL     1       6.699   7.508  17.214  0.00  0.00    +0.000 A 
ATOM     17  C   UNL     1       5.891   6.620  16.498  0.00  0.00    +0.000 A 
BRANCH  15  18
ATOM     18  O   UNL     1       8.558   7.822  18.771  0.00  0.00    +0.000 OA
ATOM     19  C   UNL     1       8.468   9.211  18.462  0.00  0.00    +0.000 C 
ENDBRANCH  15  18
ENDBRANCH   2  12
TORSDOF 4
ENDMDL
MODEL 3
REMARK VINA RESULT:      -6.4      0.378      1.596
REMARK  Name = 
REMARK  6 active torsions:
REMARK  status: ('A' for Active; 'I' for Inactive)
REMARK    1  A    between atoms: C_1  and  O_2
REMARK    2  A    between atoms: O_2  and  C_3
REMARK    3  A    between atoms: C_6  and  N_7
REMARK    4  A    between atoms: N_8  and  C_10
REMARK    5  A    between atoms: C_13  and  O_14
REMARK    6  A    between atoms: O_14  and  C_15
REMARK                            x       y       z     vdW  Elec       q    Type
REMARK                         _______ _______ _______ _____ _____    ______ ____
ROOT
ATOM      1  N   UNL     1       4.730   3.335  16.406  0.00  0.00    +0.000 NA
ATOM      2  N   UNL     1       5.745   3.991  16.013  0.00  0.00    +0.000 N 
ATOM      3  O   UNL     1       6.276   3.694  14.886  0.00  0.00    +0.000 OA
ENDROOT
BRANCH   1   7
ATOM      4  C   UNL     1       2.441   3.784  19.924  0.00  0.00    +0.000 A 
ATOM      5  C   UNL     1       2.180   4.541  18.784  0.00  0.00    +0.000 A 
ATOM      6  C   UNL     1       2.965   4.379  17.637  0.00  0.00    +0.000 A 
ATOM      7  C   UNL     1       4.029   3.468  17.612  0.00  0.00    +0.000 A 
ATOM      8  C   UNL     1       4.257   2.686  18.746  0.00  0.00    +0.000 A 
ATOM      9  C   UNL     1       3.494   2.866  19.907  0.00  0.00    +0.000 A 
BRANCH   4  11
ATOM     10  C   UNL     1       1.311   2.904  21.803  0.00  0.00    +0.000 C 
ATOM     11  O   UNL     1       1.632   4.033  20.997  0.00  0.00    +0.000 OA
ENDBRANCH   4  11
ENDBRANCH   1   7
BRANCH   2  12
ATOM     12  C   UNL     1       6.398   5.078  16.760  0.00  0.00    +0.000 A 
ATOM     13  C   UNL     1       7.302   4.729  17.776  0.00  0.00    +0.000 A 
ATOM     14  C   UNL     1       8.011   5.717  18.461  0.00  0.00    +0.000 A 
ATOM     15  C   UNL     1       7.826   7.060  18.135  0.00  0.00    +0.000 A 
ATOM     16  C   UNL     1       6.902   7.413  17.149  0.00  0.00    +0.000 A 
ATOM     17  C   UNL     1       6.217   6.427  16.433  0.00  0.00    +0.000 A 
BRANCH  15  18
ATOM     18  O   UNL     1       8.583   7.954  18.840  0.00  0.00    +0.000 OA
ATOM     19  C   UNL     1       8.474   9.304  18.394  0.00  0.00    +0.000 C 
ENDBRANCH  15  18
ENDBRANCH   2  12
TORSDOF 4
ENDMDL
MODEL 4
REMARK VINA RESULT:      -6.4      2.172      3.825
REMARK  Name = 
REMARK  6 active torsions:
REMARK  status: ('A' for Active; 'I' for Inactive)
REMARK    1  A    between atoms: C_1  and  O_2
REMARK    2  A    between atoms: O_2  and  C_3
REMARK    3  A    between atoms: C_6  and  N_7
REMARK    4  A    between atoms: N_8  and  C_10
REMARK    5  A    between atoms: C_13  and  O_14
REMARK    6  A    between atoms: O_14  and  C_15
REMARK                            x       y       z     vdW  Elec       q    Type
REMARK                         _______ _______ _______ _____ _____    ______ ____
ROOT
ATOM      1  N   UNL     1       6.113   5.581  19.458  0.00  0.00    +0.000 NA
ATOM      2  N   UNL     1       6.783   5.875  18.419  0.00  0.00    +0.000 N 
ATOM      3  O   UNL     1       7.850   6.571  18.546  0.00  0.00    +0.000 OA
ENDROOT
BRANCH   1   7
ATOM      4  C   UNL     1       2.586   3.288  19.804  0.00  0.00    +0.000 A 
ATOM      5  C   UNL     1       3.837   2.687  19.690  0.00  0.00    +0.000 A 
ATOM      6  C   UNL     1       4.987   3.473  19.564  0.00  0.00    +0.000 A 
ATOM      7  C   UNL     1       4.907   4.871  19.537  0.00  0.00    +0.000 A 
ATOM      8  C   UNL     1       3.653   5.465  19.690  0.00  0.00    +0.000 A 
ATOM      9  C   UNL     1       2.495   4.682  19.786  0.00  0.00    +0.000 A 
BRANCH   4  11
ATOM     10  C   UNL     1       0.600   2.474  18.816  0.00  0.00    +0.000 C 
ATOM     11  O   UNL     1       1.524   2.433  19.899  0.00  0.00    +0.000 OA
ENDBRANCH   4  11
ENDBRANCH   1   7
BRANCH   2  12
ATOM     12  C   UNL     1       6.427   5.496  17.041  0.00  0.00    +0.000 A 
ATOM     13  C   UNL     1       6.984   4.316  16.519  0.00  0.00    +0.000 A 
ATOM     14  C   UNL     1       6.618   3.864  15.250  0.00  0.00    +0.000 A 
ATOM     15  C   UNL     1       5.692   4.583  14.494  0.00  0.00    +0.000 A 
ATOM     16  C   UNL     1       5.163   5.774  14.996  0.00  0.00    +0.000 A 
ATOM     17  C   UNL     1       5.496   6.212  16.281  0.00  0.00    +0.000 A 
BRANCH  15  18
ATOM     18  O   UNL     1       5.375   4.050  13.276  0.00  0.00    +0.000 OA
ATOM     19  C   UNL     1       6.495   3.610  12.512  0.00  0.00    +0.000 C 
ENDBRANCH  15  18
ENDBRANCH   2  12
TORSDOF 4
ENDMDL
MODEL 5
REMARK VINA RESULT:      -6.3      0.271      1.131
REMARK  Name = 
REMARK  6 active torsions:
REMARK  status: ('A' for Active; 'I' for Inactive)
REMARK    1  A    between atoms: C_1  and  O_2
REMARK    2  A    between atoms: O_2  and  C_3
REMARK    3  A    between atoms: C_6  and  N_7
REMARK    4  A    between atoms: N_8  and  C_10
REMARK    5  A    between atoms: C_13  and  O_14
REMARK    6  A    between atoms: O_14  and  C_15
REMARK                            x       y       z     vdW  Elec       q    Type
REMARK                         _______ _______ _______ _____ _____    ______ ____
ROOT
ATOM      1  N   UNL     1       4.622   3.427  16.254  0.00  0.00    +0.000 NA
ATOM      2  N   UNL     1       5.682   4.002  15.853  0.00  0.00    +0.000 N 
ATOM      3  O   UNL     1       6.130   3.729  14.685  0.00  0.00    +0.000 OA
ENDROOT
BRANCH   1   7
ATOM      4  C   UNL     1       2.546   3.873  19.903  0.00  0.00    +0.000 A 
ATOM      5  C   UNL     1       2.335   4.741  18.834  0.00  0.00    +0.000 A 
ATOM      6  C   UNL     1       3.048   4.576  17.642  0.00  0.00    +0.000 A 
ATOM      7  C   UNL     1       3.991   3.550  17.500  0.00  0.00    +0.000 A 
ATOM      8  C   UNL     1       4.167   2.662  18.563  0.00  0.00    +0.000 A 
ATOM      9  C   UNL     1       3.478   2.841  19.769  0.00  0.00    +0.000 A 
BRANCH   4  11
ATOM     10  C   UNL     1       1.456   2.997  21.807  0.00  0.00    +0.000 C 
ATOM     11  O   UNL     1       1.818   4.134  21.030  0.00  0.00    +0.000 OA
ENDBRANCH   4  11
ENDBRANCH   1   7
BRANCH   2  12
ATOM     12  C   UNL     1       6.476   4.965  16.633  0.00  0.00    +0.000 A 
ATOM     13  C   UNL     1       6.286   6.334  16.379  0.00  0.00    +0.000 A 
ATOM     14  C   UNL     1       6.950   7.293  17.145  0.00  0.00    +0.000 A 
ATOM     15  C   UNL     1       7.805   6.895  18.173  0.00  0.00    +0.000 A 
ATOM     16  C   UNL     1       8.023   5.536  18.406  0.00  0.00    +0.000 A 
ATOM     17  C   UNL     1       7.332   4.570  17.668  0.00  0.00    +0.000 A 
BRANCH  15  18
ATOM     18  O   UNL     1       8.390   7.904  18.886  0.00  0.00    +0.000 OA
ATOM     19  C   UNL     1       8.414   9.164  18.219  0.00  0.00    +0.000 C 
ENDBRANCH  15  18
ENDBRANCH   2  12
TORSDOF 4
ENDMDL
MODEL 6
REMARK VINA RESULT:      -6.3      2.123      5.681
REMARK  Name = 
REMARK  6 active torsions:
REMARK  status: ('A' for Active; 'I' for Inactive)
REMARK    1  A    between atoms: C_1  and  O_2
REMARK    2  A    between atoms: O_2  and  C_3
REMARK    3  A    between atoms: C_6  and  N_7
REMARK    4  A    between atoms: N_8  and  C_10
REMARK    5  A    between atoms: C_13  and  O_14
REMARK    6  A    between atoms: O_14  and  C_15
REMARK                            x       y       z     vdW  Elec       q    Type
REMARK                         _______ _______ _______ _____ _____    ______ ____
ROOT
ATOM      1  N   UNL     1       3.935   3.347  17.191  0.00  0.00    +0.000 NA
ATOM      2  N   UNL     1       2.817   3.466  17.784  0.00  0.00    +0.000 N 
ATOM      3  O   UNL     1       1.955   2.526  17.675  0.00  0.00    +0.000 OA
ENDROOT
BRANCH   1   7
ATOM      4  C   UNL     1       6.992   6.247  16.935  0.00  0.00    +0.000 A 
ATOM      5  C   UNL     1       6.094   6.042  15.890  0.00  0.00    +0.000 A 
ATOM      6  C   UNL     1       5.099   5.064  15.999  0.00  0.00    +0.000 A 
ATOM      7  C   UNL     1       4.991   4.267  17.146  0.00  0.00    +0.000 A 
ATOM      8  C   UNL     1       5.872   4.507  18.203  0.00  0.00    +0.000 A 
ATOM      9  C   UNL     1       6.888   5.464  18.087  0.00  0.00    +0.000 A 
BRANCH   4  11
ATOM     10  C   UNL     1       7.960   8.275  17.664  0.00  0.00    +0.000 C 
ATOM     11  O   UNL     1       7.939   7.208  16.720  0.00  0.00    +0.000 OA
ENDBRANCH   4  11
ENDBRANCH   1   7
BRANCH   2  12
ATOM     12  C   UNL     1       2.401   4.624  18.593  0.00  0.00    +0.000 A 
ATOM     13  C   UNL     1       2.062   4.399  19.937  0.00  0.00    +0.000 A 
ATOM     14  C   UNL     1       1.741   5.471  20.773  0.00  0.00    +0.000 A 
ATOM     15  C   UNL     1       1.759   6.773  20.275  0.00  0.00    +0.000 A 
ATOM     16  C   UNL     1       2.062   6.997  18.930  0.00  0.00    +0.000 A 
ATOM     17  C   UNL     1       2.422   5.933  18.097  0.00  0.00    +0.000 A 
BRANCH  15  18
ATOM     18  O   UNL     1       1.457   7.759  21.173  0.00  0.00    +0.000 OA
ATOM     19  C   UNL     1       0.992   8.972  20.585  0.00  0.00    +0.000 C 
ENDBRANCH  15  18
ENDBRANCH   2  12
TORSDOF 4
ENDMDL
MODEL 7
REMARK VINA RESULT:      -6.3      2.170      3.988
REMARK  Name = 
REMARK  6 active torsions:
REMARK  status: ('A' for Active; 'I' for Inactive)
REMARK    1  A    between atoms: C_1  and  O_2
REMARK    2  A    between atoms: O_2  and  C_3
REMARK    3  A    between atoms: C_6  and  N_7
REMARK    4  A    between atoms: N_8  and  C_10
REMARK    5  A    between atoms: C_13  and  O_14
REMARK    6  A    between atoms: O_14  and  C_15
REMARK                            x       y       z     vdW  Elec       q    Type
REMARK                         _______ _______ _______ _____ _____    ______ ____
ROOT
ATOM      1  N   UNL     1       6.231   5.626  19.455  0.00  0.00    +0.000 NA
ATOM      2  N   UNL     1       6.831   5.967  18.388  0.00  0.00    +0.000 N 
ATOM      3  O   UNL     1       7.843   6.748  18.469  0.00  0.00    +0.000 OA
ENDROOT
BRANCH   1   7
ATOM      4  C   UNL     1       2.684   3.356  19.744  0.00  0.00    +0.000 A 
ATOM      5  C   UNL     1       2.661   4.749  19.762  0.00  0.00    +0.000 A 
ATOM      6  C   UNL     1       3.855   5.474  19.678  0.00  0.00    +0.000 A 
ATOM      7  C   UNL     1       5.091   4.822  19.586  0.00  0.00    +0.000 A 
ATOM      8  C   UNL     1       5.100   3.427  19.528  0.00  0.00    +0.000 A 
ATOM      9  C   UNL     1       3.911   2.696  19.643  0.00  0.00    +0.000 A 
BRANCH   4  11
ATOM     10  C   UNL     1       0.758   2.556  18.634  0.00  0.00    +0.000 C 
ATOM     11  O   UNL     1       1.468   2.743  19.854  0.00  0.00    +0.000 OA
ENDBRANCH   4  11
ENDBRANCH   1   7
BRANCH   2  12
ATOM     12  C   UNL     1       6.451   5.552  17.028  0.00  0.00    +0.000 A 
ATOM     13  C   UNL     1       7.031   4.381  16.511  0.00  0.00    +0.000 A 
ATOM     14  C   UNL     1       6.645   3.895  15.261  0.00  0.00    +0.000 A 
ATOM     15  C   UNL     1       5.677   4.570  14.518  0.00  0.00    +0.000 A 
ATOM     16  C   UNL     1       5.124   5.753  15.013  0.00  0.00    +0.000 A 
ATOM     17  C   UNL     1       5.477   6.225  16.281  0.00  0.00    +0.000 A 
BRANCH  15  18
ATOM     18  O   UNL     1       5.344   4.006  13.318  0.00  0.00    +0.000 OA
ATOM     19  C   UNL     1       6.457   3.585  12.533  0.00  0.00    +0.000 C 
ENDBRANCH  15  18
ENDBRANCH   2  12
TORSDOF 4
ENDMDL
MODEL 8
REMARK VINA RESULT:      -6.3      2.186      6.125
REMARK  Name = 
REMARK  6 active torsions:
REMARK  status: ('A' for Active; 'I' for Inactive)
REMARK    1  A    between atoms: C_1  and  O_2
REMARK    2  A    between atoms: O_2  and  C_3
REMARK    3  A    between atoms: C_6  and  N_7
REMARK    4  A    between atoms: N_8  and  C_10
REMARK    5  A    between atoms: C_13  and  O_14
REMARK    6  A    between atoms: O_14  and  C_15
REMARK                            x       y       z     vdW  Elec       q    Type
REMARK                         _______ _______ _______ _____ _____    ______ ____
ROOT
ATOM      1  N   UNL     1       7.157   5.444  17.982  0.00  0.00    +0.000 NA
ATOM      2  N   UNL     1       6.592   5.298  19.111  0.00  0.00    +0.000 N 
ATOM      3  O   UNL     1       7.266   5.526  20.175  0.00  0.00    +0.000 OA
ENDROOT
BRANCH   1   7
ATOM      4  C   UNL     1       5.539   4.524  14.193  0.00  0.00    +0.000 A 
ATOM      5  C   UNL     1       6.429   3.664  14.833  0.00  0.00    +0.000 A 
ATOM      6  C   UNL     1       6.959   4.003  16.083  0.00  0.00    +0.000 A 
ATOM      7  C   UNL     1       6.619   5.209  16.709  0.00  0.00    +0.000 A 
ATOM      8  C   UNL     1       5.696   6.045  16.078  0.00  0.00    +0.000 A 
ATOM      9  C   UNL     1       5.186   5.726  14.813  0.00  0.00    +0.000 A 
BRANCH   4  11
ATOM     10  C   UNL     1       5.976   3.252  12.251  0.00  0.00    +0.000 C 
ATOM     11  O   UNL     1       5.097   4.113  12.967  0.00  0.00    +0.000 OA
ENDBRANCH   4  11
ENDBRANCH   1   7
BRANCH   2  12
ATOM     12  C   UNL     1       5.201   4.862  19.316  0.00  0.00    +0.000 A 
ATOM     13  C   UNL     1       4.955   3.486  19.451  0.00  0.00    +0.000 A 
ATOM     14  C   UNL     1       3.669   3.022  19.730  0.00  0.00    +0.000 A 
ATOM     15  C   UNL     1       2.619   3.927  19.880  0.00  0.00    +0.000 A 
ATOM     16  C   UNL     1       2.852   5.294  19.711  0.00  0.00    +0.000 A 
ATOM     17  C   UNL     1       4.145   5.768  19.470  0.00  0.00    +0.000 A 
BRANCH  15  18
ATOM     18  O   UNL     1       1.400   3.383  20.178  0.00  0.00    +0.000 OA
ATOM     19  C   UNL     1       1.339   2.725  21.441  0.00  0.00    +0.000 C 
ENDBRANCH  15  18
ENDBRANCH   2  12
TORSDOF 4
ENDMDL
MODEL 9
REMARK VINA RESULT:      -6.3      2.284      6.047
REMARK  Name = 
REMARK  6 active torsions:
REMARK  status: ('A' for Active; 'I' for Inactive)
REMARK    1  A    between atoms: C_1  and  O_2
REMARK    2  A    between atoms: O_2  and  C_3
REMARK    3  A    between atoms: C_6  and  N_7
REMARK    4  A    between atoms: N_8  and  C_10
REMARK    5  A    between atoms: C_13  and  O_14
REMARK    6  A    between atoms: O_14  and  C_15
REMARK                            x       y       z     vdW  Elec       q    Type
REMARK                         _______ _______ _______ _____ _____    ______ ____
ROOT
ATOM      1  N   UNL     1       7.126   5.431  18.017  0.00  0.00    +0.000 NA
ATOM      2  N   UNL     1       6.560   5.253  19.141  0.00  0.00    +0.000 N 
ATOM      3  O   UNL     1       7.220   5.489  20.211  0.00  0.00    +0.000 OA
ENDROOT
BRANCH   1   7
ATOM      4  C   UNL     1       5.549   4.508  14.212  0.00  0.00    +0.000 A 
ATOM      5  C   UNL     1       6.426   3.646  14.865  0.00  0.00    +0.000 A 
ATOM      6  C   UNL     1       6.943   3.986  16.120  0.00  0.00    +0.000 A 
ATOM      7  C   UNL     1       6.602   5.196  16.738  0.00  0.00    +0.000 A 
ATOM      8  C   UNL     1       5.691   6.034  16.093  0.00  0.00    +0.000 A 
ATOM      9  C   UNL     1       5.195   5.713  14.823  0.00  0.00    +0.000 A 
BRANCH   4  11
ATOM     10  C   UNL     1       6.039   3.297  12.243  0.00  0.00    +0.000 C 
ATOM     11  O   UNL     1       5.119   4.096  12.981  0.00  0.00    +0.000 OA
ENDBRANCH   4  11
ENDBRANCH   1   7
BRANCH   2  12
ATOM     12  C   UNL     1       5.183   4.769  19.333  0.00  0.00    +0.000 A 
ATOM     13  C   UNL     1       4.163   5.725  19.476  0.00  0.00    +0.000 A 
ATOM     14  C   UNL     1       2.830   5.325  19.578  0.00  0.00    +0.000 A 
ATOM     15  C   UNL     1       2.503   3.970  19.535  0.00  0.00    +0.000 A 
ATOM     16  C   UNL     1       3.517   3.015  19.428  0.00  0.00    +0.000 A 
ATOM     17  C   UNL     1       4.851   3.410  19.286  0.00  0.00    +0.000 A 
BRANCH  15  18
ATOM     18  O   UNL     1       1.170   3.675  19.615  0.00  0.00    +0.000 OA
ATOM     19  C   UNL     1       0.818   2.387  19.117  0.00  0.00    +0.000 C 
ENDBRANCH  15  18
ENDBRANCH   2  12
TORSDOF 4
ENDMDL
