MODEL 1
REMARK VINA RESULT:      -6.8      0.000      0.000
REMARK  Name = 
REMARK  4 active torsions:
REMARK  status: ('A' for Active; 'I' for Inactive)
REMARK    1  A    between atoms: C_1  and  N_2
REMARK    2  A    between atoms: C_3  and  C_4
REMARK    3  A    between atoms: C_4  and  O_5
REMARK    4  A    between atoms: O_5  and  C_6
REMARK                            x       y       z     vdW  Elec       q    Type
REMARK                         _______ _______ _______ _____ _____    ______ ____
ROOT
ATOM      1  C   UNL     1       4.331   4.779  19.038  0.00  0.00    +0.000 C 
ENDROOT
BRANCH   1   4
ATOM      2  C   UNL     1       1.877   5.345  20.628  0.00  0.00    +0.000 C 
ATOM      3  N   UNL     1       2.128   4.012  20.073  0.00  0.00    +0.000 NA
ATOM      4  C   UNL     1       3.527   3.683  19.798  0.00  0.00    +0.000 C 
ATOM      5  C   UNL     1       3.399   2.396  19.012  0.00  0.00    +0.000 C 
ATOM      6  C   UNL     1       2.189   2.608  18.094  0.00  0.00    +0.000 C 
ATOM      7  C   UNL     1       0.800   2.385  18.693  0.00  0.00    +0.000 C 
ATOM      8  C   UNL     1       1.407   3.749  18.823  0.00  0.00    +0.000 C 
ENDBRANCH   1   4
BRANCH   1   9
ATOM      9  O   UNL     1       5.540   4.327  18.537  0.00  0.00    +0.000 OA
BRANCH   9  10
ATOM     10  C   UNL     1       5.957   4.504  17.250  0.00  0.00    +0.000 A 
ATOM     11  C   UNL     1       5.350   3.853  16.157  0.00  0.00    +0.000 A 
ATOM     12  C   UNL     1       5.821   4.069  14.862  0.00  0.00    +0.000 A 
ATOM     13  C   UNL     1       6.897   4.933  14.662  0.00  0.00    +0.000 A 
ATOM     14  F   UNL     1       7.367   5.152  13.409  0.00  0.00    +0.000 F 
ATOM     15  N   UNL     1       7.474   5.559  15.722  0.00  0.00    +0.000 NA
ATOM     16  C   UNL     1       7.032   5.365  16.995  0.00  0.00    +0.000 A 
ENDBRANCH   9  10
ENDBRANCH   1   9
TORSDOF 3
ENDMDL
MODEL 2
REMARK VINA RESULT:      -6.7      1.270      1.994
REMARK  Name = 
REMARK  4 active torsions:
REMARK  status: ('A' for Active; 'I' for Inactive)
REMARK    1  A    between atoms: C_1  and  N_2
REMARK    2  A    between atoms: C_3  and  C_4
REMARK    3  A    between atoms: C_4  and  O_5
REMARK    4  A    between atoms: O_5  and  C_6
REMARK                            x       y       z     vdW  Elec       q    Type
REMARK                         _______ _______ _______ _____ _____    ______ ____
ROOT
ATOM      1  C   UNL     1       4.864   4.432  19.423  0.00  0.00    +0.000 C 
ENDROOT
BRANCH   1   4
ATOM      2  C   UNL     1       3.475   2.075  18.246  0.00  0.00    +0.000 C 
ATOM      3  N   UNL     1       2.746   3.058  19.053  0.00  0.00    +0.000 NA
ATOM      4  C   UNL     1       3.336   4.395  19.126  0.00  0.00    +0.000 C 
ATOM      5  C   UNL     1       2.509   5.045  20.214  0.00  0.00    +0.000 C 
ATOM      6  C   UNL     1       2.302   3.949  21.267  0.00  0.00    +0.000 C 
ATOM      7  C   UNL     1       1.187   2.933  21.020  0.00  0.00    +0.000 C 
ATOM      8  C   UNL     1       2.539   2.640  20.445  0.00  0.00    +0.000 C 
ENDBRANCH   1   4
BRANCH   1   9
ATOM      9  O   UNL     1       5.541   5.406  18.708  0.00  0.00    +0.000 OA
BRANCH   9  10
ATOM     10  C   UNL     1       5.946   5.272  17.413  0.00  0.00    +0.000 A 
ATOM     11  C   UNL     1       5.132   5.634  16.320  0.00  0.00    +0.000 A 
ATOM     12  C   UNL     1       5.597   5.472  15.015  0.00  0.00    +0.000 A 
ATOM     13  C   UNL     1       6.872   4.948  14.804  0.00  0.00    +0.000 A 
ATOM     14  F   UNL     1       7.338   4.783  13.541  0.00  0.00    +0.000 F 
ATOM     15  N   UNL     1       7.651   4.605  15.864  0.00  0.00    +0.000 NA
ATOM     16  C   UNL     1       7.220   4.754  17.148  0.00  0.00    +0.000 A 
ENDBRANCH   9  10
ENDBRANCH   1   9
TORSDOF 3
ENDMDL
MODEL 3
REMARK VINA RESULT:      -6.6      1.074      1.280
REMARK  Name = 
REMARK  4 active torsions:
REMARK  status: ('A' for Active; 'I' for Inactive)
REMARK    1  A    between atoms: C_1  and  N_2
REMARK    2  A    between atoms: C_3  and  C_4
REMARK    3  A    between atoms: C_4  and  O_5
REMARK    4  A    between atoms: O_5  and  C_6
REMARK                            x       y       z     vdW  Elec       q    Type
REMARK                         _______ _______ _______ _____ _____    ______ ____
ROOT
ATOM      1  C   UNL     1       4.089   3.605  17.338  0.00  0.00    +0.000 C 
ENDROOT
BRANCH   1   4
ATOM      2  C   UNL     1       3.603   5.438  19.635  0.00  0.00    +0.000 C 
ATOM      3  N   UNL     1       3.041   4.085  19.615  0.00  0.00    +0.000 NA
ATOM      4  C   UNL     1       3.737   3.112  18.773  0.00  0.00    +0.000 C 
ATOM      5  C   UNL     1       2.771   1.947  18.774  0.00  0.00    +0.000 C 
ATOM      6  C   UNL     1       1.379   2.583  18.682  0.00  0.00    +0.000 C 
ATOM      7  C   UNL     1       0.755   3.107  19.976  0.00  0.00    +0.000 C 
ATOM      8  C   UNL     1       1.636   4.036  19.197  0.00  0.00    +0.000 C 
ENDBRANCH   1   4
BRANCH   1   9
ATOM      9  O   UNL     1       5.395   4.044  17.211  0.00  0.00    +0.000 OA
BRANCH   9  10
ATOM     10  C   UNL     1       6.006   4.317  16.022  0.00  0.00    +0.000 A 
ATOM     11  C   UNL     1       5.622   3.707  14.811  0.00  0.00    +0.000 A 
ATOM     12  C   UNL     1       6.286   4.023  13.625  0.00  0.00    +0.000 A 
ATOM     13  C   UNL     1       7.330   4.946  13.652  0.00  0.00    +0.000 A 
ATOM     14  F   UNL     1       7.986   5.262  12.507  0.00  0.00    +0.000 F 
ATOM     15  N   UNL     1       7.691   5.532  14.824  0.00  0.00    +0.000 NA
ATOM     16  C   UNL     1       7.059   5.241  15.995  0.00  0.00    +0.000 A 
ENDBRANCH   9  10
ENDBRANCH   1   9
TORSDOF 3
ENDMDL
MODEL 4
REMARK VINA RESULT:      -6.5      1.159      2.130
REMARK  Name = 
REMARK  4 active torsions:
REMARK  status: ('A' for Active; 'I' for Inactive)
REMARK    1  A    between atoms: C_1  and  N_2
REMARK    2  A    between atoms: C_3  and  C_4
REMARK    3  A    between atoms: C_4  and  O_5
REMARK    4  A    between atoms: O_5  and  C_6
REMARK                            x       y       z     vdW  Elec       q    Type
REMARK                         _______ _______ _______ _____ _____    ______ ____
ROOT
ATOM      1  C   UNL     1       3.722   3.510  17.448  0.00  0.00    +0.000 C 
ENDROOT
BRANCH   1   4
ATOM      2  C   UNL     1       1.267   2.361  18.682  0.00  0.00    +0.000 C 
ATOM      3  N   UNL     1       1.549   3.798  18.755  0.00  0.00    +0.000 NA
ATOM      4  C   UNL     1       2.427   4.333  17.714  0.00  0.00    +0.000 C 
ATOM      5  C   UNL     1       2.713   5.727  18.231  0.00  0.00    +0.000 C 
ATOM      6  C   UNL     1       2.887   5.563  19.746  0.00  0.00    +0.000 C 
ATOM      7  C   UNL     1       1.620   5.501  20.600  0.00  0.00    +0.000 C 
ATOM      8  C   UNL     1       2.142   4.218  20.029  0.00  0.00    +0.000 C 
ENDBRANCH   1   4
BRANCH   1   9
ATOM      9  O   UNL     1       4.870   4.283  17.418  0.00  0.00    +0.000 OA
BRANCH   9  10
ATOM     10  C   UNL     1       5.622   4.506  16.302  0.00  0.00    +0.000 A 
ATOM     11  C   UNL     1       5.324   3.923  15.053  0.00  0.00    +0.000 A 
ATOM     12  C   UNL     1       6.131   4.185  13.946  0.00  0.00    +0.000 A 
ATOM     13  C   UNL     1       7.233   5.028  14.088  0.00  0.00    +0.000 A 
ATOM     14  F   UNL     1       8.028   5.290  13.021  0.00  0.00    +0.000 F 
ATOM     15  N   UNL     1       7.511   5.588  15.295  0.00  0.00    +0.000 NA
ATOM     16  C   UNL     1       6.739   5.348  16.391  0.00  0.00    +0.000 A 
ENDBRANCH   9  10
ENDBRANCH   1   9
TORSDOF 3
ENDMDL
MODEL 5
REMARK VINA RESULT:      -6.5      3.199      6.274
REMARK  Name = 
REMARK  4 active torsions:
REMARK  status: ('A' for Active; 'I' for Inactive)
REMARK    1  A    between atoms: C_1  and  N_2
REMARK    2  A    between atoms: C_3  and  C_4
REMARK    3  A    between atoms: C_4  and  O_5
REMARK    4  A    between atoms: O_5  and  C_6
REMARK                            x       y       z     vdW  Elec       q    Type
REMARK                         _______ _______ _______ _____ _____    ______ ____
ROOT
ATOM      1  C   UNL     1       5.171   4.442  18.362  0.00  0.00    +0.000 C 
ENDROOT
BRANCH   1   4
ATOM      2  C   UNL     1       7.360   6.376  17.780  0.00  0.00    +0.000 C 
ATOM      3  N   UNL     1       6.523   5.834  16.706  0.00  0.00    +0.000 NA
ATOM      4  C   UNL     1       5.198   5.355  17.102  0.00  0.00    +0.000 C 
ATOM      5  C   UNL     1       4.734   4.643  15.849  0.00  0.00    +0.000 C 
ATOM      6  C   UNL     1       5.977   3.920  15.318  0.00  0.00    +0.000 C 
ATOM      7  C   UNL     1       6.970   4.736  14.490  0.00  0.00    +0.000 C 
ATOM      8  C   UNL     1       7.145   4.722  15.979  0.00  0.00    +0.000 C 
ENDBRANCH   1   4
BRANCH   1   9
ATOM      9  O   UNL     1       4.176   3.479  18.325  0.00  0.00    +0.000 OA
BRANCH   9  10
ATOM     10  C   UNL     1       3.294   3.239  19.337  0.00  0.00    +0.000 A 
ATOM     11  C   UNL     1       1.920   3.540  19.238  0.00  0.00    +0.000 A 
ATOM     12  C   UNL     1       1.066   3.276  20.308  0.00  0.00    +0.000 A 
ATOM     13  C   UNL     1       1.584   2.713  21.474  0.00  0.00    +0.000 A 
ATOM     14  F   UNL     1       0.765   2.451  22.523  0.00  0.00    +0.000 F 
ATOM     15  N   UNL     1       2.910   2.423  21.559  0.00  0.00    +0.000 NA
ATOM     16  C   UNL     1       3.765   2.671  20.529  0.00  0.00    +0.000 A 
ENDBRANCH   9  10
ENDBRANCH   1   9
TORSDOF 3
ENDMDL
MODEL 6
REMARK VINA RESULT:      -6.5      2.079      2.589
REMARK  Name = 
REMARK  4 active torsions:
REMARK  status: ('A' for Active; 'I' for Inactive)
REMARK    1  A    between atoms: C_1  and  N_2
REMARK    2  A    between atoms: C_3  and  C_4
REMARK    3  A    between atoms: C_4  and  O_5
REMARK    4  A    between atoms: O_5  and  C_6
REMARK                            x       y       z     vdW  Elec       q    Type
REMARK                         _______ _______ _______ _____ _____    ______ ____
ROOT
ATOM      1  C   UNL     1       4.075   3.718  17.451  0.00  0.00    +0.000 C 
ENDROOT
BRANCH   1   4
ATOM      2  C   UNL     1       2.611   6.092  18.496  0.00  0.00    +0.000 C 
ATOM      3  N   UNL     1       2.682   4.846  19.267  0.00  0.00    +0.000 NA
ATOM      4  C   UNL     1       3.812   3.967  18.965  0.00  0.00    +0.000 C 
ATOM      5  C   UNL     1       3.437   2.706  19.713  0.00  0.00    +0.000 C 
ATOM      6  C   UNL     1       1.926   2.553  19.504  0.00  0.00    +0.000 C 
ATOM      7  C   UNL     1       1.001   3.368  20.409  0.00  0.00    +0.000 C 
ATOM      8  C   UNL     1       1.484   4.008  19.143  0.00  0.00    +0.000 C 
ENDBRANCH   1   4
BRANCH   1   9
ATOM      9  O   UNL     1       5.401   3.881  17.087  0.00  0.00    +0.000 OA
BRANCH   9  10
ATOM     10  C   UNL     1       6.130   5.011  17.313  0.00  0.00    +0.000 A 
ATOM     11  C   UNL     1       7.130   5.087  18.304  0.00  0.00    +0.000 A 
ATOM     12  C   UNL     1       7.842   6.271  18.492  0.00  0.00    +0.000 A 
ATOM     13  C   UNL     1       7.555   7.376  17.692  0.00  0.00    +0.000 A 
ATOM     14  F   UNL     1       8.238   8.536  17.864  0.00  0.00    +0.000 F 
ATOM     15  N   UNL     1       6.591   7.293  16.736  0.00  0.00    +0.000 NA
ATOM     16  C   UNL     1       5.882   6.148  16.532  0.00  0.00    +0.000 A 
ENDBRANCH   9  10
ENDBRANCH   1   9
TORSDOF 3
ENDMDL
MODEL 7
REMARK VINA RESULT:      -6.5      2.211      3.124
REMARK  Name = 
REMARK  4 active torsions:
REMARK  status: ('A' for Active; 'I' for Inactive)
REMARK    1  A    between atoms: C_1  and  N_2
REMARK    2  A    between atoms: C_3  and  C_4
REMARK    3  A    between atoms: C_4  and  O_5
REMARK    4  A    between atoms: O_5  and  C_6
REMARK                            x       y       z     vdW  Elec       q    Type
REMARK                         _______ _______ _______ _____ _____    ______ ____
ROOT
ATOM      1  C   UNL     1       3.872   3.547  17.470  0.00  0.00    +0.000 C 
ENDROOT
BRANCH   1   4
ATOM      2  C   UNL     1       1.876   2.106  19.147  0.00  0.00    +0.000 C 
ATOM      3  N   UNL     1       1.843   3.566  19.017  0.00  0.00    +0.000 NA
ATOM      4  C   UNL     1       2.465   4.119  17.813  0.00  0.00    +0.000 C 
ATOM      5  C   UNL     1       2.493   5.600  18.126  0.00  0.00    +0.000 C 
ATOM      6  C   UNL     1       2.861   5.687  19.611  0.00  0.00    +0.000 C 
ATOM      7  C   UNL     1       1.738   5.489  20.630  0.00  0.00    +0.000 C 
ATOM      8  C   UNL     1       2.464   4.272  20.143  0.00  0.00    +0.000 C 
ENDBRANCH   1   4
BRANCH   1   9
ATOM      9  O   UNL     1       4.646   4.407  16.709  0.00  0.00    +0.000 OA
BRANCH   9  10
ATOM     10  C   UNL     1       5.644   5.193  17.206  0.00  0.00    +0.000 A 
ATOM     11  C   UNL     1       6.480   4.784  18.265  0.00  0.00    +0.000 A 
ATOM     12  C   UNL     1       7.482   5.632  18.734  0.00  0.00    +0.000 A 
ATOM     13  C   UNL     1       7.647   6.886  18.148  0.00  0.00    +0.000 A 
ATOM     14  F   UNL     1       8.616   7.723  18.595  0.00  0.00    +0.000 F 
ATOM     15  N   UNL     1       6.838   7.271  17.125  0.00  0.00    +0.000 NA
ATOM     16  C   UNL     1       5.852   6.461  16.648  0.00  0.00    +0.000 A 
ENDBRANCH   9  10
ENDBRANCH   1   9
TORSDOF 3
ENDMDL
MODEL 8
REMARK VINA RESULT:      -6.4      2.172      2.591
REMARK  Name = 
REMARK  4 active torsions:
REMARK  status: ('A' for Active; 'I' for Inactive)
REMARK    1  A    between atoms: C_1  and  N_2
REMARK    2  A    between atoms: C_3  and  C_4
REMARK    3  A    between atoms: C_4  and  O_5
REMARK    4  A    between atoms: O_5  and  C_6
REMARK                            x       y       z     vdW  Elec       q    Type
REMARK                         _______ _______ _______ _____ _____    ______ ____
ROOT
ATOM      1  C   UNL     1       3.768   3.932  17.116  0.00  0.00    +0.000 C 
ENDROOT
BRANCH   1   4
ATOM      2  C   UNL     1       3.516   5.601  19.569  0.00  0.00    +0.000 C 
ATOM      3  N   UNL     1       3.087   4.199  19.561  0.00  0.00    +0.000 NA
ATOM      4  C   UNL     1       3.716   3.341  18.556  0.00  0.00    +0.000 C 
ATOM      5  C   UNL     1       2.877   2.085  18.646  0.00  0.00    +0.000 C 
ATOM      6  C   UNL     1       1.437   2.579  18.827  0.00  0.00    +0.000 C 
ATOM      7  C   UNL     1       0.998   2.978  20.236  0.00  0.00    +0.000 C 
ATOM      8  C   UNL     1       1.642   4.027  19.381  0.00  0.00    +0.000 C 
ENDBRANCH   1   4
BRANCH   1   9
ATOM      9  O   UNL     1       5.055   4.115  16.641  0.00  0.00    +0.000 OA
BRANCH   9  10
ATOM     10  C   UNL     1       5.935   5.037  17.127  0.00  0.00    +0.000 A 
ATOM     11  C   UNL     1       5.845   6.410  16.822  0.00  0.00    +0.000 A 
ATOM     12  C   UNL     1       6.775   7.307  17.346  0.00  0.00    +0.000 A 
ATOM     13  C   UNL     1       7.792   6.832  18.173  0.00  0.00    +0.000 A 
ATOM     14  F   UNL     1       8.705   7.692  18.689  0.00  0.00    +0.000 F 
ATOM     15  N   UNL     1       7.869   5.506  18.465  0.00  0.00    +0.000 NA
ATOM     16  C   UNL     1       6.973   4.610  17.966  0.00  0.00    +0.000 A 
ENDBRANCH   9  10
ENDBRANCH   1   9
TORSDOF 3
ENDMDL
MODEL 9
REMARK VINA RESULT:      -6.4      2.326      3.175
REMARK  Name = 
REMARK  4 active torsions:
REMARK  status: ('A' for Active; 'I' for Inactive)
REMARK    1  A    between atoms: C_1  and  N_2
REMARK    2  A    between atoms: C_3  and  C_4
REMARK    3  A    between atoms: C_4  and  O_5
REMARK    4  A    between atoms: O_5  and  C_6
REMARK                            x       y       z     vdW  Elec       q    Type
REMARK                         _______ _______ _______ _____ _____    ______ ____
ROOT
ATOM      1  C   UNL     1       3.503   3.622  17.316  0.00  0.00    +0.000 C 
ENDROOT
BRANCH   1   4
ATOM      2  C   UNL     1       1.318   2.263  18.816  0.00  0.00    +0.000 C 
ATOM      3  N   UNL     1       1.478   3.720  18.867  0.00  0.00    +0.000 NA
ATOM      4  C   UNL     1       2.180   4.328  17.736  0.00  0.00    +0.000 C 
ATOM      5  C   UNL     1       2.400   5.743  18.227  0.00  0.00    +0.000 C 
ATOM      6  C   UNL     1       2.761   5.599  19.710  0.00  0.00    +0.000 C 
ATOM      7  C   UNL     1       1.612   5.428  20.705  0.00  0.00    +0.000 C 
ATOM      8  C   UNL     1       2.176   4.194  20.067  0.00  0.00    +0.000 C 
ENDBRANCH   1   4
BRANCH   1   9
ATOM      9  O   UNL     1       4.367   4.444  16.613  0.00  0.00    +0.000 OA
BRANCH   9  10
ATOM     10  C   UNL     1       5.417   5.115  17.167  0.00  0.00    +0.000 A 
ATOM     11  C   UNL     1       5.838   6.381  16.710  0.00  0.00    +0.000 A 
ATOM     12  C   UNL     1       6.920   7.020  17.314  0.00  0.00    +0.000 A 
ATOM     13  C   UNL     1       7.581   6.394  18.370  0.00  0.00    +0.000 A 
ATOM     14  F   UNL     1       8.637   7.002  18.966  0.00  0.00    +0.000 F 
ATOM     15  N   UNL     1       7.167   5.175  18.806  0.00  0.00    +0.000 NA
ATOM     16  C   UNL     1       6.112   4.530  18.234  0.00  0.00    +0.000 A 
ENDBRANCH   9  10
ENDBRANCH   1   9
TORSDOF 3
ENDMDL
