MODEL 1
REMARK VINA RESULT:      -9.8      0.000      0.000
REMARK  Name = 
REMARK  11 active torsions:
REMARK  status: ('A' for Active; 'I' for Inactive)
REMARK    1  A    between atoms: C_1  and  O_2
REMARK    2  A    between atoms: O_2  and  C_3
REMARK    3  A    between atoms: C_7  and  C_8
REMARK    4  A    between atoms: N_10  and  C_11
REMARK    5  A    between atoms: C_17  and  N_18
REMARK    6  A    between atoms: N_18  and  S_19
REMARK    7  A    between atoms: S_19  and  C_22
REMARK    8  A    between atoms: C_25  and  C_26
REMARK    9  A    between atoms: C_26  and  C_27
REMARK   10  A    between atoms: C_26  and  C_28
REMARK   11  A    between atoms: C_31  and  O_32
REMARK                            x       y       z     vdW  Elec       q    Type
REMARK                         _______ _______ _______ _____ _____    ______ ____
ROOT
ATOM      1  C   UNL     1       2.138   6.608  19.331  0.00  0.00    +0.000 A 
ATOM      2  C   UNL     1       1.640   6.320  18.060  0.00  0.00    +0.000 A 
ATOM      3  C   UNL     1       1.931   5.078  17.429  0.00  0.00    +0.000 A 
ATOM      4  C   UNL     1       2.763   4.133  18.051  0.00  0.00    +0.000 A 
ATOM      5  C   UNL     1       3.503   4.593  19.123  0.00  0.00    +0.000 A 
ATOM      6  C   UNL     1       3.138   5.781  19.806  0.00  0.00    +0.000 A 
ATOM      7  C   UNL     1       4.580   3.709  19.771  0.00  0.00    +0.000 C 
ATOM      8  C   UNL     1       4.238   2.185  19.971  0.00  0.00    +0.000 C 
ATOM      9  C   UNL     1       3.531   1.623  18.720  0.00  0.00    +0.000 C 
ATOM     10  C   UNL     1       2.802   2.643  17.732  0.00  0.00    +0.000 C 
ENDROOT
BRANCH   1  13
ATOM     11  C   UNL     1       1.253   8.857  19.885  0.00  0.00    +0.000 C 
ATOM     12  O   UNL     1       1.383   9.336  18.764  0.00  0.00    +0.000 OA
ATOM     13  N   UNL     1       1.683   7.595  20.222  0.00  0.00    +0.000 N 
ATOM     14  H   UNL     1       1.476   7.288  21.169  0.00  0.00    +0.000 HD
BRANCH  11  19
ATOM     15  C   UNL     1      -0.206  11.790  21.861  0.00  0.00    +0.000 A 
ATOM     16  C   UNL     1      -0.735  11.105  22.959  0.00  0.00    +0.000 A 
ATOM     17  C   UNL     1      -0.633   9.720  23.053  0.00  0.00    +0.000 A 
ATOM     18  C   UNL     1       0.023   9.010  22.048  0.00  0.00    +0.000 A 
ATOM     19  C   UNL     1       0.571   9.684  20.936  0.00  0.00    +0.000 A 
ATOM     20  C   UNL     1       0.431  11.078  20.844  0.00  0.00    +0.000 A 
BRANCH  15  22
ATOM     21  C   UNL     1      -1.690  13.623  22.197  0.00  0.00    +0.000 C 
ATOM     22  O   UNL     1      -0.383  13.145  21.914  0.00  0.00    +0.000 OA
ENDBRANCH  15  22
ENDBRANCH  11  19
ENDBRANCH   1  13
BRANCH   7  23
ATOM     23  N   UNL     1       5.520   3.567  18.685  0.00  0.00    +0.000 NA
ATOM     24  H   UNL     1       5.428   2.790  18.027  0.00  0.00    +0.000 HD
BRANCH  23  25
ATOM     25  S   UNL     1       6.555   4.684  18.044  0.00  0.00    +0.000 S 
ATOM     26  O   UNL     1       6.017   5.973  18.417  0.00  0.00    +0.000 OA
ATOM     27  O   UNL     1       7.912   4.310  18.376  0.00  0.00    +0.000 OA
BRANCH  25  28
ATOM     28  C   UNL     1       6.353   4.537  16.293  0.00  0.00    +0.000 A 
ATOM     29  C   UNL     1       7.349   4.987  15.423  0.00  0.00    +0.000 A 
ATOM     30  C   UNL     1       7.223   4.738  14.051  0.00  0.00    +0.000 A 
ATOM     31  C   UNL     1       6.122   4.026  13.543  0.00  0.00    +0.000 A 
ATOM     32  C   UNL     1       5.133   3.589  14.438  0.00  0.00    +0.000 A 
ATOM     33  C   UNL     1       5.249   3.838  15.805  0.00  0.00    +0.000 A 
BRANCH  31  34
ATOM     34  C   UNL     1       6.036   3.705  12.059  0.00  0.00    +0.000 C 
ATOM     35  C   UNL     1       7.056   2.636  11.651  0.00  0.00    +0.000 C 
ATOM     36  C   UNL     1       4.623   3.282  11.648  0.00  0.00    +0.000 C 
ENDBRANCH  31  34
ENDBRANCH  25  28
ENDBRANCH  23  25
ENDBRANCH   7  23
BRANCH   8  37
ATOM     37  O   UNL     1       5.450   1.488  20.352  0.00  0.00    +0.000 OA
ATOM     38  H   UNL     1       5.235   0.560  20.426  0.00  0.00    +0.000 HD
ENDBRANCH   8  37
TORSDOF 8
ENDMDL
MODEL 2
REMARK VINA RESULT:      -8.9      0.821      1.231
REMARK  Name = 
REMARK  11 active torsions:
REMARK  status: ('A' for Active; 'I' for Inactive)
REMARK    1  A    between atoms: C_1  and  O_2
REMARK    2  A    between atoms: O_2  and  C_3
REMARK    3  A    between atoms: C_7  and  C_8
REMARK    4  A    between atoms: N_10  and  C_11
REMARK    5  A    between atoms: C_17  and  N_18
REMARK    6  A    between atoms: N_18  and  S_19
REMARK    7  A    between atoms: S_19  and  C_22
REMARK    8  A    between atoms: C_25  and  C_26
REMARK    9  A    between atoms: C_26  and  C_27
REMARK   10  A    between atoms: C_26  and  C_28
REMARK   11  A    between atoms: C_31  and  O_32
REMARK                            x       y       z     vdW  Elec       q    Type
REMARK                         _______ _______ _______ _____ _____    ______ ____
ROOT
ATOM      1  C   UNL     1       2.112   6.663  18.933  0.00  0.00    +0.000 A 
ATOM      2  C   UNL     1       1.600   6.175  17.731  0.00  0.00    +0.000 A 
ATOM      3  C   UNL     1       1.913   4.859  17.287  0.00  0.00    +0.000 A 
ATOM      4  C   UNL     1       2.781   4.039  18.026  0.00  0.00    +0.000 A 
ATOM      5  C   UNL     1       3.527   4.674  19.000  0.00  0.00    +0.000 A 
ATOM      6  C   UNL     1       3.143   5.941  19.506  0.00  0.00    +0.000 A 
ATOM      7  C   UNL     1       4.639   3.923  19.750  0.00  0.00    +0.000 C 
ATOM      8  C   UNL     1       4.342   2.439  20.184  0.00  0.00    +0.000 C 
ATOM      9  C   UNL     1       3.629   1.678  19.047  0.00  0.00    +0.000 C 
ATOM     10  C   UNL     1       2.855   2.520  17.933  0.00  0.00    +0.000 C 
ENDROOT
BRANCH   1  13
ATOM     11  C   UNL     1       1.620   9.072  19.259  0.00  0.00    +0.000 C 
ATOM     12  O   UNL     1       2.172   9.464  18.237  0.00  0.00    +0.000 OA
ATOM     13  N   UNL     1       1.645   7.761  19.676  0.00  0.00    +0.000 N 
ATOM     14  H   UNL     1       1.110   7.546  20.514  0.00  0.00    +0.000 HD
BRANCH  11  19
ATOM     15  C   UNL     1      -0.541  10.697  21.965  0.00  0.00    +0.000 A 
ATOM     16  C   UNL     1      -0.502  12.029  21.541  0.00  0.00    +0.000 A 
ATOM     17  C   UNL     1       0.219  12.396  20.409  0.00  0.00    +0.000 A 
ATOM     18  C   UNL     1       0.894  11.420  19.678  0.00  0.00    +0.000 A 
ATOM     19  C   UNL     1       0.861  10.070  20.085  0.00  0.00    +0.000 A 
ATOM     20  C   UNL     1       0.153   9.722  21.246  0.00  0.00    +0.000 A 
BRANCH  15  22
ATOM     21  C   UNL     1      -2.091  11.577  23.546  0.00  0.00    +0.000 C 
ATOM     22  O   UNL     1      -1.292  10.495  23.090  0.00  0.00    +0.000 OA
ENDBRANCH  15  22
ENDBRANCH  11  19
ENDBRANCH   1  13
BRANCH   7  23
ATOM     23  N   UNL     1       5.564   3.643  18.678  0.00  0.00    +0.000 NA
ATOM     24  H   UNL     1       5.409   2.838  18.066  0.00  0.00    +0.000 HD
BRANCH  23  25
ATOM     25  S   UNL     1       6.685   4.633  17.976  0.00  0.00    +0.000 S 
ATOM     26  O   UNL     1       6.290   5.979  18.329  0.00  0.00    +0.000 OA
ATOM     27  O   UNL     1       8.007   4.132  18.278  0.00  0.00    +0.000 OA
BRANCH  25  28
ATOM     28  C   UNL     1       6.412   4.464  16.236  0.00  0.00    +0.000 A 
ATOM     29  C   UNL     1       7.317   5.005  15.320  0.00  0.00    +0.000 A 
ATOM     30  C   UNL     1       7.148   4.744  13.955  0.00  0.00    +0.000 A 
ATOM     31  C   UNL     1       6.097   3.929  13.500  0.00  0.00    +0.000 A 
ATOM     32  C   UNL     1       5.199   3.402  14.440  0.00  0.00    +0.000 A 
ATOM     33  C   UNL     1       5.357   3.663  15.800  0.00  0.00    +0.000 A 
BRANCH  31  34
ATOM     34  C   UNL     1       5.969   3.599  12.020  0.00  0.00    +0.000 C 
ATOM     35  C   UNL     1       6.924   2.473  11.607  0.00  0.00    +0.000 C 
ATOM     36  C   UNL     1       4.529   3.249  11.636  0.00  0.00    +0.000 C 
ENDBRANCH  31  34
ENDBRANCH  25  28
ENDBRANCH  23  25
ENDBRANCH   7  23
BRANCH   8  37
ATOM     37  O   UNL     1       5.580   1.837  20.639  0.00  0.00    +0.000 OA
ATOM     38  H   UNL     1       5.735   1.062  20.102  0.00  0.00    +0.000 HD
ENDBRANCH   8  37
TORSDOF 8
ENDMDL
MODEL 3
REMARK VINA RESULT:      -8.4      4.312     11.668
REMARK  Name = 
REMARK  11 active torsions:
REMARK  status: ('A' for Active; 'I' for Inactive)
REMARK    1  A    between atoms: C_1  and  O_2
REMARK    2  A    between atoms: O_2  and  C_3
REMARK    3  A    between atoms: C_7  and  C_8
REMARK    4  A    between atoms: N_10  and  C_11
REMARK    5  A    between atoms: C_17  and  N_18
REMARK    6  A    between atoms: N_18  and  S_19
REMARK    7  A    between atoms: S_19  and  C_22
REMARK    8  A    between atoms: C_25  and  C_26
REMARK    9  A    between atoms: C_26  and  C_27
REMARK   10  A    between atoms: C_26  and  C_28
REMARK   11  A    between atoms: C_31  and  O_32
REMARK                            x       y       z     vdW  Elec       q    Type
REMARK                         _______ _______ _______ _____ _____    ______ ____
ROOT
ATOM      1  C   UNL     1       0.613  10.037  19.189  0.00  0.00    +0.000 A 
ATOM      2  C   UNL     1      -0.453  10.321  18.336  0.00  0.00    +0.000 A 
ATOM      3  C   UNL     1      -0.954  11.648  18.212  0.00  0.00    +0.000 A 
ATOM      4  C   UNL     1      -0.415  12.693  18.981  0.00  0.00    +0.000 A 
ATOM      5  C   UNL     1       0.379  12.313  20.045  0.00  0.00    +0.000 A 
ATOM      6  C   UNL     1       0.954  11.018  20.102  0.00  0.00    +0.000 A 
ATOM      7  C   UNL     1       0.877  13.351  21.064  0.00  0.00    +0.000 C 
ATOM      8  C   UNL     1       1.363  14.738  20.501  0.00  0.00    +0.000 C 
ATOM      9  C   UNL     1       0.403  15.241  19.403  0.00  0.00    +0.000 C 
ATOM     10  C   UNL     1      -0.521  14.177  18.652  0.00  0.00    +0.000 C 
ENDROOT
BRANCH   1  13
ATOM     11  C   UNL     1       1.502   7.930  20.148  0.00  0.00    +0.000 C 
ATOM     12  O   UNL     1       0.963   8.039  21.244  0.00  0.00    +0.000 OA
ATOM     13  N   UNL     1       1.437   8.899  19.174  0.00  0.00    +0.000 N 
ATOM     14  H   UNL     1       1.883   8.675  18.288  0.00  0.00    +0.000 HD
BRANCH  11  19
ATOM     15  C   UNL     1       2.809   4.336  20.250  0.00  0.00    +0.000 A 
ATOM     16  C   UNL     1       3.706   4.372  19.178  0.00  0.00    +0.000 A 
ATOM     17  C   UNL     1       3.875   5.532  18.428  0.00  0.00    +0.000 A 
ATOM     18  C   UNL     1       3.156   6.679  18.764  0.00  0.00    +0.000 A 
ATOM     19  C   UNL     1       2.253   6.665  19.848  0.00  0.00    +0.000 A 
ATOM     20  C   UNL     1       2.073   5.477  20.574  0.00  0.00    +0.000 A 
BRANCH  15  22
ATOM     21  C   UNL     1       1.521   2.753  21.479  0.00  0.00    +0.000 C 
ATOM     22  O   UNL     1       2.757   3.128  20.890  0.00  0.00    +0.000 OA
ENDBRANCH  15  22
ENDBRANCH  11  19
ENDBRANCH   1  13
BRANCH   7  23
ATOM     23  N   UNL     1      -0.368  13.791  21.649  0.00  0.00    +0.000 NA
ATOM     24  H   UNL     1      -1.037  14.322  21.087  0.00  0.00    +0.000 HD
BRANCH  23  25
ATOM     25  S   UNL     1      -1.127  13.261  23.016  0.00  0.00    +0.000 S 
ATOM     26  O   UNL     1      -0.690  11.895  23.199  0.00  0.00    +0.000 OA
ATOM     27  O   UNL     1      -0.963  14.250  24.057  0.00  0.00    +0.000 OA
BRANCH  25  28
ATOM     28  C   UNL     1      -2.842  13.191  22.584  0.00  0.00    +0.000 A 
ATOM     29  C   UNL     1      -3.232  12.954  21.264  0.00  0.00    +0.000 A 
ATOM     30  C   UNL     1      -4.589  12.771  20.974  0.00  0.00    +0.000 A 
ATOM     31  C   UNL     1      -5.557  12.801  21.994  0.00  0.00    +0.000 A 
ATOM     32  C   UNL     1      -5.139  13.045  23.311  0.00  0.00    +0.000 A 
ATOM     33  C   UNL     1      -3.789  13.234  23.606  0.00  0.00    +0.000 A 
BRANCH  31  34
ATOM     34  C   UNL     1      -7.019  12.532  21.670  0.00  0.00    +0.000 C 
ATOM     35  C   UNL     1      -7.169  11.487  20.559  0.00  0.00    +0.000 C 
ATOM     36  C   UNL     1      -7.810  12.111  22.912  0.00  0.00    +0.000 C 
ENDBRANCH  31  34
ENDBRANCH  25  28
ENDBRANCH  23  25
ENDBRANCH   7  23
BRANCH   8  37
ATOM     37  O   UNL     1       1.546  15.647  21.615  0.00  0.00    +0.000 OA
ATOM     38  H   UNL     1       1.228  15.205  22.400  0.00  0.00    +0.000 HD
ENDBRANCH   8  37
TORSDOF 8
ENDMDL
MODEL 4
REMARK VINA RESULT:      -8.4      3.734     11.754
REMARK  Name = 
REMARK  11 active torsions:
REMARK  status: ('A' for Active; 'I' for Inactive)
REMARK    1  A    between atoms: C_1  and  O_2
REMARK    2  A    between atoms: O_2  and  C_3
REMARK    3  A    between atoms: C_7  and  C_8
REMARK    4  A    between atoms: N_10  and  C_11
REMARK    5  A    between atoms: C_17  and  N_18
REMARK    6  A    between atoms: N_18  and  S_19
REMARK    7  A    between atoms: S_19  and  C_22
REMARK    8  A    between atoms: C_25  and  C_26
REMARK    9  A    between atoms: C_26  and  C_27
REMARK   10  A    between atoms: C_26  and  C_28
REMARK   11  A    between atoms: C_31  and  O_32
REMARK                            x       y       z     vdW  Elec       q    Type
REMARK                         _______ _______ _______ _____ _____    ______ ____
ROOT
ATOM      1  C   UNL     1       0.329  10.069  19.123  0.00  0.00    +0.000 A 
ATOM      2  C   UNL     1      -0.721  10.453  18.288  0.00  0.00    +0.000 A 
ATOM      3  C   UNL     1      -1.128  11.815  18.211  0.00  0.00    +0.000 A 
ATOM      4  C   UNL     1      -0.513  12.795  19.008  0.00  0.00    +0.000 A 
ATOM      5  C   UNL     1       0.259  12.326  20.053  0.00  0.00    +0.000 A 
ATOM      6  C   UNL     1       0.743  10.993  20.063  0.00  0.00    +0.000 A 
ATOM      7  C   UNL     1       0.835  13.294  21.099  0.00  0.00    +0.000 C 
ATOM      8  C   UNL     1       1.413  14.661  20.577  0.00  0.00    +0.000 C 
ATOM      9  C   UNL     1       0.483  15.265  19.504  0.00  0.00    +0.000 C 
ATOM     10  C   UNL     1      -0.518  14.292  18.728  0.00  0.00    +0.000 C 
ENDROOT
BRANCH   1  13
ATOM     11  C   UNL     1       2.015   8.554  18.118  0.00  0.00    +0.000 C 
ATOM     12  O   UNL     1       2.197   9.209  17.097  0.00  0.00    +0.000 OA
ATOM     13  N   UNL     1       1.071   8.877  19.065  0.00  0.00    +0.000 N 
ATOM     14  H   UNL     1       1.046   8.287  19.893  0.00  0.00    +0.000 HD
BRANCH  11  19
ATOM     15  C   UNL     1       4.737   5.883  17.807  0.00  0.00    +0.000 A 
ATOM     16  C   UNL     1       4.425   5.087  18.914  0.00  0.00    +0.000 A 
ATOM     17  C   UNL     1       3.364   5.415  19.752  0.00  0.00    +0.000 A 
ATOM     18  C   UNL     1       2.589   6.540  19.471  0.00  0.00    +0.000 A 
ATOM     19  C   UNL     1       2.882   7.351  18.354  0.00  0.00    +0.000 A 
ATOM     20  C   UNL     1       3.975   7.022  17.538  0.00  0.00    +0.000 A 
BRANCH  15  22
ATOM     21  C   UNL     1       5.645   5.343  15.672  0.00  0.00    +0.000 C 
ATOM     22  O   UNL     1       5.803   5.430  17.080  0.00  0.00    +0.000 OA
ENDBRANCH  15  22
ENDBRANCH  11  19
ENDBRANCH   1  13
BRANCH   7  23
ATOM     23  N   UNL     1      -0.372  13.800  21.709  0.00  0.00    +0.000 NA
ATOM     24  H   UNL     1      -1.014  14.381  21.166  0.00  0.00    +0.000 HD
BRANCH  23  25
ATOM     25  S   UNL     1      -1.145  13.295  23.079  0.00  0.00    +0.000 S 
ATOM     26  O   UNL     1      -0.711  11.931  23.289  0.00  0.00    +0.000 OA
ATOM     27  O   UNL     1      -0.987  14.301  24.104  0.00  0.00    +0.000 OA
BRANCH  25  28
ATOM     28  C   UNL     1      -2.855  13.221  22.633  0.00  0.00    +0.000 A 
ATOM     29  C   UNL     1      -3.237  12.851  21.341  0.00  0.00    +0.000 A 
ATOM     30  C   UNL     1      -4.595  12.672  21.054  0.00  0.00    +0.000 A 
ATOM     31  C   UNL     1      -5.573  12.837  22.051  0.00  0.00    +0.000 A 
ATOM     32  C   UNL     1      -5.163  13.213  23.339  0.00  0.00    +0.000 A 
ATOM     33  C   UNL     1      -3.813  13.399  23.631  0.00  0.00    +0.000 A 
BRANCH  31  34
ATOM     34  C   UNL     1      -7.038  12.571  21.738  0.00  0.00    +0.000 C 
ATOM     35  C   UNL     1      -7.198  11.605  20.559  0.00  0.00    +0.000 C 
ATOM     36  C   UNL     1      -7.797  12.053  22.962  0.00  0.00    +0.000 C 
ENDBRANCH  31  34
ENDBRANCH  25  28
ENDBRANCH  23  25
ENDBRANCH   7  23
BRANCH   8  37
ATOM     37  O   UNL     1       1.666  15.519  21.717  0.00  0.00    +0.000 OA
ATOM     38  H   UNL     1       0.819  15.821  22.041  0.00  0.00    +0.000 HD
ENDBRANCH   8  37
TORSDOF 8
ENDMDL
MODEL 5
REMARK VINA RESULT:      -8.4      2.127      2.729
REMARK  Name = 
REMARK  11 active torsions:
REMARK  status: ('A' for Active; 'I' for Inactive)
REMARK    1  A    between atoms: C_1  and  O_2
REMARK    2  A    between atoms: O_2  and  C_3
REMARK    3  A    between atoms: C_7  and  C_8
REMARK    4  A    between atoms: N_10  and  C_11
REMARK    5  A    between atoms: C_17  and  N_18
REMARK    6  A    between atoms: N_18  and  S_19
REMARK    7  A    between atoms: S_19  and  C_22
REMARK    8  A    between atoms: C_25  and  C_26
REMARK    9  A    between atoms: C_26  and  C_27
REMARK   10  A    between atoms: C_26  and  C_28
REMARK   11  A    between atoms: C_31  and  O_32
REMARK                            x       y       z     vdW  Elec       q    Type
REMARK                         _______ _______ _______ _____ _____    ______ ____
ROOT
ATOM      1  C   UNL     1       2.114   7.710  17.814  0.00  0.00    +0.000 A 
ATOM      2  C   UNL     1       1.327   6.580  17.589  0.00  0.00    +0.000 A 
ATOM      3  C   UNL     1       1.840   5.275  17.835  0.00  0.00    +0.000 A 
ATOM      4  C   UNL     1       3.165   5.094  18.267  0.00  0.00    +0.000 A 
ATOM      5  C   UNL     1       3.997   6.189  18.139  0.00  0.00    +0.000 A 
ATOM      6  C   UNL     1       3.467   7.497  17.997  0.00  0.00    +0.000 A 
ATOM      7  C   UNL     1       5.505   6.064  18.406  0.00  0.00    +0.000 C 
ATOM      8  C   UNL     1       5.950   5.195  19.640  0.00  0.00    +0.000 C 
ATOM      9  C   UNL     1       5.118   3.898  19.713  0.00  0.00    +0.000 C 
ATOM     10  C   UNL     1       3.701   3.858  18.978  0.00  0.00    +0.000 C 
ENDROOT
BRANCH   1  13
ATOM     11  C   UNL     1       1.237   9.625  19.124  0.00  0.00    +0.000 C 
ATOM     12  O   UNL     1       1.010   8.996  20.152  0.00  0.00    +0.000 OA
ATOM     13  N   UNL     1       1.676   9.037  17.960  0.00  0.00    +0.000 N 
ATOM     14  H   UNL     1       1.877   9.668  17.187  0.00  0.00    +0.000 HD
BRANCH  11  19
ATOM     15  C   UNL     1       1.702  13.384  18.584  0.00  0.00    +0.000 A 
ATOM     16  C   UNL     1       0.568  13.867  19.246  0.00  0.00    +0.000 A 
ATOM     17  C   UNL     1      -0.335  12.994  19.844  0.00  0.00    +0.000 A 
ATOM     18  C   UNL     1      -0.096  11.621  19.800  0.00  0.00    +0.000 A 
ATOM     19  C   UNL     1       1.046  11.114  19.144  0.00  0.00    +0.000 A 
ATOM     20  C   UNL     1       1.930  12.008  18.520  0.00  0.00    +0.000 A 
BRANCH  15  22
ATOM     21  C   UNL     1       3.107  15.271  18.955  0.00  0.00    +0.000 C 
ATOM     22  O   UNL     1       2.493  14.364  18.052  0.00  0.00    +0.000 OA
ENDBRANCH  15  22
ENDBRANCH  11  19
ENDBRANCH   1  13
BRANCH   7  23
ATOM     23  N   UNL     1       5.903   5.154  17.359  0.00  0.00    +0.000 NA
ATOM     24  H   UNL     1       5.218   4.516  16.948  0.00  0.00    +0.000 HD
BRANCH  23  25
ATOM     25  S   UNL     1       7.236   5.197  16.384  0.00  0.00    +0.000 S 
ATOM     26  O   UNL     1       7.569   6.597  16.242  0.00  0.00    +0.000 OA
ATOM     27  O   UNL     1       8.203   4.239  16.870  0.00  0.00    +0.000 OA
BRANCH  25  28
ATOM     28  C   UNL     1       6.660   4.650  14.803  0.00  0.00    +0.000 A 
ATOM     29  C   UNL     1       7.527   4.602  13.709  0.00  0.00    +0.000 A 
ATOM     30  C   UNL     1       7.080   4.041  12.507  0.00  0.00    +0.000 A 
ATOM     31  C   UNL     1       5.784   3.508  12.394  0.00  0.00    +0.000 A 
ATOM     32  C   UNL     1       4.932   3.572  13.507  0.00  0.00    +0.000 A 
ATOM     33  C   UNL     1       5.367   4.135  14.706  0.00  0.00    +0.000 A 
BRANCH  31  34
ATOM     34  C   UNL     1       5.340   2.840  11.101  0.00  0.00    +0.000 C 
ATOM     35  C   UNL     1       5.733   1.359  11.066  0.00  0.00    +0.000 C 
ATOM     36  C   UNL     1       3.836   3.002  10.863  0.00  0.00    +0.000 C 
ENDBRANCH  31  34
ENDBRANCH  25  28
ENDBRANCH  23  25
ENDBRANCH   7  23
BRANCH   8  37
ATOM     37  O   UNL     1       7.384   4.996  19.570  0.00  0.00    +0.000 OA
ATOM     38  H   UNL     1       7.549   4.343  18.892  0.00  0.00    +0.000 HD
ENDBRANCH   8  37
TORSDOF 8
ENDMDL
MODEL 6
REMARK VINA RESULT:      -8.3      2.000      2.638
REMARK  Name = 
REMARK  11 active torsions:
REMARK  status: ('A' for Active; 'I' for Inactive)
REMARK    1  A    between atoms: C_1  and  O_2
REMARK    2  A    between atoms: O_2  and  C_3
REMARK    3  A    between atoms: C_7  and  C_8
REMARK    4  A    between atoms: N_10  and  C_11
REMARK    5  A    between atoms: C_17  and  N_18
REMARK    6  A    between atoms: N_18  and  S_19
REMARK    7  A    between atoms: S_19  and  C_22
REMARK    8  A    between atoms: C_25  and  C_26
REMARK    9  A    between atoms: C_26  and  C_27
REMARK   10  A    between atoms: C_26  and  C_28
REMARK   11  A    between atoms: C_31  and  O_32
REMARK                            x       y       z     vdW  Elec       q    Type
REMARK                         _______ _______ _______ _____ _____    ______ ____
ROOT
ATOM      1  C   UNL     1       2.151   7.916  17.733  0.00  0.00    +0.000 A 
ATOM      2  C   UNL     1       1.334   6.804  17.526  0.00  0.00    +0.000 A 
ATOM      3  C   UNL     1       1.808   5.491  17.804  0.00  0.00    +0.000 A 
ATOM      4  C   UNL     1       3.123   5.282  18.249  0.00  0.00    +0.000 A 
ATOM      5  C   UNL     1       3.987   6.350  18.104  0.00  0.00    +0.000 A 
ATOM      6  C   UNL     1       3.496   7.669  17.930  0.00  0.00    +0.000 A 
ATOM      7  C   UNL     1       5.490   6.188  18.385  0.00  0.00    +0.000 C 
ATOM      8  C   UNL     1       5.901   5.334  19.641  0.00  0.00    +0.000 C 
ATOM      9  C   UNL     1       5.032   4.062  19.736  0.00  0.00    +0.000 C 
ATOM     10  C   UNL     1       3.620   4.047  18.991  0.00  0.00    +0.000 C 
ENDROOT
BRANCH   1  13
ATOM     11  C   UNL     1       1.224   9.857  18.967  0.00  0.00    +0.000 C 
ATOM     12  O   UNL     1       0.876   9.233  19.964  0.00  0.00    +0.000 OA
ATOM     13  N   UNL     1       1.750   9.259  17.846  0.00  0.00    +0.000 N 
ATOM     14  H   UNL     1       2.047   9.884  17.101  0.00  0.00    +0.000 HD
BRANCH  11  19
ATOM     15  C   UNL     1      -0.068  13.410  19.550  0.00  0.00    +0.000 A 
ATOM     16  C   UNL     1       0.959  14.145  18.949  0.00  0.00    +0.000 A 
ATOM     17  C   UNL     1       2.054  13.504  18.378  0.00  0.00    +0.000 A 
ATOM     18  C   UNL     1       2.117  12.111  18.387  0.00  0.00    +0.000 A 
ATOM     19  C   UNL     1       1.087  11.352  18.981  0.00  0.00    +0.000 A 
ATOM     20  C   UNL     1       0.005  12.017  19.580  0.00  0.00    +0.000 A 
BRANCH  15  22
ATOM     21  C   UNL     1      -2.188  13.509  20.633  0.00  0.00    +0.000 C 
ATOM     22  O   UNL     1      -1.075  14.181  20.063  0.00  0.00    +0.000 OA
ENDBRANCH  15  22
ENDBRANCH  11  19
ENDBRANCH   1  13
BRANCH   7  23
ATOM     23  N   UNL     1       5.868   5.244  17.360  0.00  0.00    +0.000 NA
ATOM     24  H   UNL     1       5.166   4.622  16.954  0.00  0.00    +0.000 HD
BRANCH  23  25
ATOM     25  S   UNL     1       7.214   5.222  16.402  0.00  0.00    +0.000 S 
ATOM     26  O   UNL     1       7.599   6.607  16.241  0.00  0.00    +0.000 OA
ATOM     27  O   UNL     1       8.139   4.238  16.916  0.00  0.00    +0.000 OA
BRANCH  25  28
ATOM     28  C   UNL     1       6.637   4.669  14.824  0.00  0.00    +0.000 A 
ATOM     29  C   UNL     1       7.496   4.644  13.723  0.00  0.00    +0.000 A 
ATOM     30  C   UNL     1       7.052   4.078  12.521  0.00  0.00    +0.000 A 
ATOM     31  C   UNL     1       5.767   3.518  12.417  0.00  0.00    +0.000 A 
ATOM     32  C   UNL     1       4.922   3.560  13.537  0.00  0.00    +0.000 A 
ATOM     33  C   UNL     1       5.355   4.128  14.734  0.00  0.00    +0.000 A 
BRANCH  31  34
ATOM     34  C   UNL     1       5.327   2.846  11.125  0.00  0.00    +0.000 C 
ATOM     35  C   UNL     1       5.739   1.370  11.086  0.00  0.00    +0.000 C 
ATOM     36  C   UNL     1       3.821   2.989  10.892  0.00  0.00    +0.000 C 
ENDBRANCH  31  34
ENDBRANCH  25  28
ENDBRANCH  23  25
ENDBRANCH   7  23
BRANCH   8  37
ATOM     37  O   UNL     1       7.329   5.093  19.585  0.00  0.00    +0.000 OA
ATOM     38  H   UNL     1       7.740   5.888  19.249  0.00  0.00    +0.000 HD
ENDBRANCH   8  37
TORSDOF 8
ENDMDL
MODEL 7
REMARK VINA RESULT:      -8.3      4.101     11.850
REMARK  Name = 
REMARK  11 active torsions:
REMARK  status: ('A' for Active; 'I' for Inactive)
REMARK    1  A    between atoms: C_1  and  O_2
REMARK    2  A    between atoms: O_2  and  C_3
REMARK    3  A    between atoms: C_7  and  C_8
REMARK    4  A    between atoms: N_10  and  C_11
REMARK    5  A    between atoms: C_17  and  N_18
REMARK    6  A    between atoms: N_18  and  S_19
REMARK    7  A    between atoms: S_19  and  C_22
REMARK    8  A    between atoms: C_25  and  C_26
REMARK    9  A    between atoms: C_26  and  C_27
REMARK   10  A    between atoms: C_26  and  C_28
REMARK   11  A    between atoms: C_31  and  O_32
REMARK                            x       y       z     vdW  Elec       q    Type
REMARK                         _______ _______ _______ _____ _____    ______ ____
ROOT
ATOM      1  C   UNL     1       0.168  10.283  19.113  0.00  0.00    +0.000 A 
ATOM      2  C   UNL     1      -0.869  10.725  18.291  0.00  0.00    +0.000 A 
ATOM      3  C   UNL     1      -1.226  12.102  18.247  0.00  0.00    +0.000 A 
ATOM      4  C   UNL     1      -0.572  13.040  19.064  0.00  0.00    +0.000 A 
ATOM      5  C   UNL     1       0.186  12.519  20.094  0.00  0.00    +0.000 A 
ATOM      6  C   UNL     1       0.620  11.169  20.072  0.00  0.00    +0.000 A 
ATOM      7  C   UNL     1       0.801  13.440  21.160  0.00  0.00    +0.000 C 
ATOM      8  C   UNL     1       1.428  14.796  20.667  0.00  0.00    +0.000 C 
ATOM      9  C   UNL     1       0.517  15.459  19.612  0.00  0.00    +0.000 C 
ATOM     10  C   UNL     1      -0.522  14.543  18.819  0.00  0.00    +0.000 C 
ENDROOT
BRANCH   1  13
ATOM     11  C   UNL     1       1.910   8.789  18.172  0.00  0.00    +0.000 C 
ATOM     12  O   UNL     1       2.247   9.530  17.255  0.00  0.00    +0.000 OA
ATOM     13  N   UNL     1       0.866   9.066  19.023  0.00  0.00    +0.000 N 
ATOM     14  H   UNL     1       0.712   8.400  19.776  0.00  0.00    +0.000 HD
BRANCH  11  19
ATOM     15  C   UNL     1       3.167   5.453  19.560  0.00  0.00    +0.000 A 
ATOM     16  C   UNL     1       4.222   5.202  18.676  0.00  0.00    +0.000 A 
ATOM     17  C   UNL     1       4.512   6.089  17.643  0.00  0.00    +0.000 A 
ATOM     18  C   UNL     1       3.755   7.251  17.502  0.00  0.00    +0.000 A 
ATOM     19  C   UNL     1       2.693   7.526  18.389  0.00  0.00    +0.000 A 
ATOM     20  C   UNL     1       2.395   6.605  19.406  0.00  0.00    +0.000 A 
BRANCH  15  22
ATOM     21  C   UNL     1       3.117   3.136  20.114  0.00  0.00    +0.000 C 
ATOM     22  O   UNL     1       3.010   4.492  20.521  0.00  0.00    +0.000 OA
ENDBRANCH  15  22
ENDBRANCH  11  19
ENDBRANCH   1  13
BRANCH   7  23
ATOM     23  N   UNL     1      -0.384  13.977  21.787  0.00  0.00    +0.000 NA
ATOM     24  H   UNL     1      -1.010  14.589  21.258  0.00  0.00    +0.000 HD
BRANCH  23  25
ATOM     25  S   UNL     1      -1.166  13.474  23.152  0.00  0.00    +0.000 S 
ATOM     26  O   UNL     1      -0.762  12.099  23.348  0.00  0.00    +0.000 OA
ATOM     27  O   UNL     1      -0.987  14.466  24.187  0.00  0.00    +0.000 OA
BRANCH  25  28
ATOM     28  C   UNL     1      -2.878  13.440  22.707  0.00  0.00    +0.000 A 
ATOM     29  C   UNL     1      -3.295  12.808  21.534  0.00  0.00    +0.000 A 
ATOM     30  C   UNL     1      -4.665  12.681  21.274  0.00  0.00    +0.000 A 
ATOM     31  C   UNL     1      -5.621  13.160  22.186  0.00  0.00    +0.000 A 
ATOM     32  C   UNL     1      -5.176  13.795  23.356  0.00  0.00    +0.000 A 
ATOM     33  C   UNL     1      -3.814  13.931  23.618  0.00  0.00    +0.000 A 
BRANCH  31  34
ATOM     34  C   UNL     1      -7.105  12.952  21.921  0.00  0.00    +0.000 C 
ATOM     35  C   UNL     1      -7.350  12.310  20.550  0.00  0.00    +0.000 C 
ATOM     36  C   UNL     1      -7.772  12.128  23.025  0.00  0.00    +0.000 C 
ENDBRANCH  31  34
ENDBRANCH  25  28
ENDBRANCH  23  25
ENDBRANCH   7  23
BRANCH   8  37
ATOM     37  O   UNL     1       1.716  15.618  21.826  0.00  0.00    +0.000 OA
ATOM     38  H   UNL     1       2.651  15.540  22.006  0.00  0.00    +0.000 HD
ENDBRANCH   8  37
TORSDOF 8
ENDMDL
MODEL 8
REMARK VINA RESULT:      -8.3      3.684     11.642
REMARK  Name = 
REMARK  11 active torsions:
REMARK  status: ('A' for Active; 'I' for Inactive)
REMARK    1  A    between atoms: C_1  and  O_2
REMARK    2  A    between atoms: O_2  and  C_3
REMARK    3  A    between atoms: C_7  and  C_8
REMARK    4  A    between atoms: N_10  and  C_11
REMARK    5  A    between atoms: C_17  and  N_18
REMARK    6  A    between atoms: N_18  and  S_19
REMARK    7  A    between atoms: S_19  and  C_22
REMARK    8  A    between atoms: C_25  and  C_26
REMARK    9  A    between atoms: C_26  and  C_27
REMARK   10  A    between atoms: C_26  and  C_28
REMARK   11  A    between atoms: C_31  and  O_32
REMARK                            x       y       z     vdW  Elec       q    Type
REMARK                         _______ _______ _______ _____ _____    ______ ____
ROOT
ATOM      1  C   UNL     1       0.361   9.935  19.071  0.00  0.00    +0.000 A 
ATOM      2  C   UNL     1      -0.687  10.320  18.234  0.00  0.00    +0.000 A 
ATOM      3  C   UNL     1      -1.096  11.682  18.159  0.00  0.00    +0.000 A 
ATOM      4  C   UNL     1      -0.486  12.660  18.961  0.00  0.00    +0.000 A 
ATOM      5  C   UNL     1       0.285  12.190  20.006  0.00  0.00    +0.000 A 
ATOM      6  C   UNL     1       0.771  10.858  20.014  0.00  0.00    +0.000 A 
ATOM      7  C   UNL     1       0.856  13.156  21.057  0.00  0.00    +0.000 C 
ATOM      8  C   UNL     1       1.433  14.526  20.540  0.00  0.00    +0.000 C 
ATOM      9  C   UNL     1       0.505  15.131  19.466  0.00  0.00    +0.000 C 
ATOM     10  C   UNL     1      -0.492  14.159  18.685  0.00  0.00    +0.000 C 
ENDROOT
BRANCH   1  13
ATOM     11  C   UNL     1       2.106   8.458  18.112  0.00  0.00    +0.000 C 
ATOM     12  O   UNL     1       2.351   9.151  17.131  0.00  0.00    +0.000 OA
ATOM     13  N   UNL     1       1.106   8.745  19.011  0.00  0.00    +0.000 N 
ATOM     14  H   UNL     1       1.030   8.123  19.812  0.00  0.00    +0.000 HD
BRANCH  11  19
ATOM     15  C   UNL     1       4.786   5.744  17.807  0.00  0.00    +0.000 A 
ATOM     16  C   UNL     1       4.471   4.963  18.925  0.00  0.00    +0.000 A 
ATOM     17  C   UNL     1       3.420   5.315  19.767  0.00  0.00    +0.000 A 
ATOM     18  C   UNL     1       2.660   6.448  19.481  0.00  0.00    +0.000 A 
ATOM     19  C   UNL     1       2.957   7.244  18.354  0.00  0.00    +0.000 A 
ATOM     20  C   UNL     1       4.039   6.891  17.533  0.00  0.00    +0.000 A 
BRANCH  15  22
ATOM     21  C   UNL     1       5.543   4.582  15.871  0.00  0.00    +0.000 C 
ATOM     22  O   UNL     1       5.840   5.268  17.078  0.00  0.00    +0.000 OA
ENDBRANCH  15  22
ENDBRANCH  11  19
ENDBRANCH   1  13
BRANCH   7  23
ATOM     23  N   UNL     1      -0.353  13.659  21.665  0.00  0.00    +0.000 NA
ATOM     24  H   UNL     1      -0.990  14.249  21.124  0.00  0.00    +0.000 HD
BRANCH  23  25
ATOM     25  S   UNL     1      -1.139  13.138  23.021  0.00  0.00    +0.000 S 
ATOM     26  O   UNL     1      -0.612  11.818  23.293  0.00  0.00    +0.000 OA
ATOM     27  O   UNL     1      -1.099  14.184  24.017  0.00  0.00    +0.000 OA
BRANCH  25  28
ATOM     28  C   UNL     1      -2.820  12.918  22.516  0.00  0.00    +0.000 A 
ATOM     29  C   UNL     1      -3.856  12.978  23.450  0.00  0.00    +0.000 A 
ATOM     30  C   UNL     1      -5.182  12.934  23.005  0.00  0.00    +0.000 A 
ATOM     31  C   UNL     1      -5.483  12.851  21.634  0.00  0.00    +0.000 A 
ATOM     32  C   UNL     1      -4.423  12.787  20.716  0.00  0.00    +0.000 A 
ATOM     33  C   UNL     1      -3.100  12.825  21.153  0.00  0.00    +0.000 A 
BRANCH  31  34
ATOM     34  C   UNL     1      -6.930  12.873  21.164  0.00  0.00    +0.000 C 
ATOM     35  C   UNL     1      -7.197  14.044  20.212  0.00  0.00    +0.000 C 
ATOM     36  C   UNL     1      -7.339  11.549  20.513  0.00  0.00    +0.000 C 
ENDBRANCH  31  34
ENDBRANCH  25  28
ENDBRANCH  23  25
ENDBRANCH   7  23
BRANCH   8  37
ATOM     37  O   UNL     1       1.681  15.381  21.684  0.00  0.00    +0.000 OA
ATOM     38  H   UNL     1       1.835  16.264  21.352  0.00  0.00    +0.000 HD
ENDBRANCH   8  37
TORSDOF 8
ENDMDL
MODEL 9
REMARK VINA RESULT:      -8.2      4.028     11.769
REMARK  Name = 
REMARK  11 active torsions:
REMARK  status: ('A' for Active; 'I' for Inactive)
REMARK    1  A    between atoms: C_1  and  O_2
REMARK    2  A    between atoms: O_2  and  C_3
REMARK    3  A    between atoms: C_7  and  C_8
REMARK    4  A    between atoms: N_10  and  C_11
REMARK    5  A    between atoms: C_17  and  N_18
REMARK    6  A    between atoms: N_18  and  S_19
REMARK    7  A    between atoms: S_19  and  C_22
REMARK    8  A    between atoms: C_25  and  C_26
REMARK    9  A    between atoms: C_26  and  C_27
REMARK   10  A    between atoms: C_26  and  C_28
REMARK   11  A    between atoms: C_31  and  O_32
REMARK                            x       y       z     vdW  Elec       q    Type
REMARK                         _______ _______ _______ _____ _____    ______ ____
ROOT
ATOM      1  C   UNL     1       0.691   9.943  18.960  0.00  0.00    +0.000 A 
ATOM      2  C   UNL     1      -0.416  10.197  18.149  0.00  0.00    +0.000 A 
ATOM      3  C   UNL     1      -0.995  11.496  18.095  0.00  0.00    +0.000 A 
ATOM      4  C   UNL     1      -0.495  12.540  18.891  0.00  0.00    +0.000 A 
ATOM      5  C   UNL     1       0.352  12.165  19.916  0.00  0.00    +0.000 A 
ATOM      6  C   UNL     1       1.002  10.905  19.902  0.00  0.00    +0.000 A 
ATOM      7  C   UNL     1       0.820  13.189  20.962  0.00  0.00    +0.000 C 
ATOM      8  C   UNL     1       1.209  14.623  20.444  0.00  0.00    +0.000 C 
ATOM      9  C   UNL     1       0.188  15.112  19.395  0.00  0.00    +0.000 C 
ATOM     10  C   UNL     1      -0.696  14.027  18.627  0.00  0.00    +0.000 C 
ENDROOT
BRANCH   1  13
ATOM     11  C   UNL     1       1.735   7.861  19.811  0.00  0.00    +0.000 C 
ATOM     12  O   UNL     1       1.232   7.901  20.928  0.00  0.00    +0.000 OA
ATOM     13  N   UNL     1       1.578   8.857  18.875  0.00  0.00    +0.000 N 
ATOM     14  H   UNL     1       2.002   8.689  17.966  0.00  0.00    +0.000 HD
BRANCH  11  19
ATOM     15  C   UNL     1       3.309   4.374  19.783  0.00  0.00    +0.000 A 
ATOM     16  C   UNL     1       4.095   4.470  18.630  0.00  0.00    +0.000 A 
ATOM     17  C   UNL     1       4.106   5.635  17.869  0.00  0.00    +0.000 A 
ATOM     18  C   UNL     1       3.339   6.727  18.274  0.00  0.00    +0.000 A 
ATOM     19  C   UNL     1       2.546   6.653  19.439  0.00  0.00    +0.000 A 
ATOM     20  C   UNL     1       2.524   5.459  20.176  0.00  0.00    +0.000 A 
BRANCH  15  22
ATOM     21  C   UNL     1       4.093   2.125  19.746  0.00  0.00    +0.000 C 
ATOM     22  O   UNL     1       3.407   3.169  20.422  0.00  0.00    +0.000 OA
ENDBRANCH  15  22
ENDBRANCH  11  19
ENDBRANCH   1  13
BRANCH   7  23
ATOM     23  N   UNL     1      -0.429  13.532  21.599  0.00  0.00    +0.000 NA
ATOM     24  H   UNL     1      -1.178  13.968  21.056  0.00  0.00    +0.000 HD
BRANCH  23  25
ATOM     25  S   UNL     1      -1.057  12.995  23.029  0.00  0.00    +0.000 S 
ATOM     26  O   UNL     1      -0.531  11.660  23.208  0.00  0.00    +0.000 OA
ATOM     27  O   UNL     1      -0.875  14.017  24.035  0.00  0.00    +0.000 OA
BRANCH  25  28
ATOM     28  C   UNL     1      -2.791  12.820  22.726  0.00  0.00    +0.000 A 
ATOM     29  C   UNL     1      -3.703  12.852  23.783  0.00  0.00    +0.000 A 
ATOM     30  C   UNL     1      -5.075  12.844  23.503  0.00  0.00    +0.000 A 
ATOM     31  C   UNL     1      -5.543  12.828  22.177  0.00  0.00    +0.000 A 
ATOM     32  C   UNL     1      -4.605  12.792  21.134  0.00  0.00    +0.000 A 
ATOM     33  C   UNL     1      -3.238  12.792  21.405  0.00  0.00    +0.000 A 
BRANCH  31  34
ATOM     34  C   UNL     1      -7.036  12.890  21.891  0.00  0.00    +0.000 C 
ATOM     35  C   UNL     1      -7.470  11.794  20.911  0.00  0.00    +0.000 C 
ATOM     36  C   UNL     1      -7.866  12.821  23.175  0.00  0.00    +0.000 C 
ENDBRANCH  31  34
ENDBRANCH  25  28
ENDBRANCH  23  25
ENDBRANCH   7  23
BRANCH   8  37
ATOM     37  O   UNL     1       1.373  15.497  21.589  0.00  0.00    +0.000 OA
ATOM     38  H   UNL     1       0.499  15.738  21.891  0.00  0.00    +0.000 HD
ENDBRANCH   8  37
TORSDOF 8
ENDMDL
