MODEL 1
REMARK VINA RESULT:      -8.6      0.000      0.000
REMARK  Name = 
REMARK  7 active torsions:
REMARK  status: ('A' for Active; 'I' for Inactive)
REMARK    1  A    between atoms: C_1  and  C_2
REMARK    2  A    between atoms: C_9  and  O_10
REMARK    3  A    between atoms: C_19  and  O_20
REMARK    4  A    between atoms: O_20  and  C_21
REMARK    5  A    between atoms: C_21  and  C_23
REMARK    6  A    between atoms: N_25  and  C_26
REMARK    7  A    between atoms: C_26  and  C_27
REMARK                            x       y       z     vdW  Elec       q    Type
REMARK                         _______ _______ _______ _____ _____    ______ ____
ROOT
ATOM      1  C   UNL     1      -0.278  10.038  21.175  0.00  0.00    +0.000 C 
ATOM      2  C   UNL     1      -0.026  11.158  20.132  0.00  0.00    +0.000 C 
ATOM      3  C   UNL     1       0.693  12.331  20.813  0.00  0.00    +0.000 C 
ATOM      4  C   UNL     1      -0.219  13.075  21.804  0.00  0.00    +0.000 C 
ATOM      5  C   UNL     1      -1.578  13.511  21.194  0.00  0.00    +0.000 C 
ATOM      6  C   UNL     1      -2.510  14.217  22.175  0.00  0.00    +0.000 A 
ATOM      7  C   UNL     1      -2.001  15.041  23.199  0.00  0.00    +0.000 A 
ATOM      8  C   UNL     1      -2.845  15.706  24.092  0.00  0.00    +0.000 A 
ATOM      9  C   UNL     1      -4.219  15.574  23.958  0.00  0.00    +0.000 A 
ATOM     10  C   UNL     1      -4.754  14.796  22.936  0.00  0.00    +0.000 A 
ATOM     11  C   UNL     1      -3.909  14.128  22.030  0.00  0.00    +0.000 A 
ATOM     12  C   UNL     1      -4.554  13.274  20.959  0.00  0.00    +0.000 C 
ATOM     13  C   UNL     1      -3.592  12.799  19.867  0.00  0.00    +0.000 C 
ATOM     14  C   UNL     1      -2.282  12.309  20.491  0.00  0.00    +0.000 C 
ATOM     15  C   UNL     1      -1.308  11.709  19.468  0.00  0.00    +0.000 C 
ATOM     16  C   UNL     1      -1.757  10.556  18.577  0.00  0.00    +0.000 C 
ATOM     17  C   UNL     1      -0.438   9.927  18.080  0.00  0.00    +0.000 C 
ATOM     18  C   UNL     1       0.701  10.588  18.887  0.00  0.00    +0.000 C 
ENDROOT
BRANCH   9  19
ATOM     19  O   UNL     1      -5.081  16.196  24.808  0.00  0.00    +0.000 OA
ATOM     20  H   UNL     1      -4.651  16.290  25.674  0.00  0.00    +0.000 HD
ENDBRANCH   9  19
BRANCH  18  21
ATOM     21  O   UNL     1       1.729   9.649  19.235  0.00  0.00    +0.000 OA
BRANCH  21  22
ATOM     22  C   UNL     1       2.130   8.794  18.253  0.00  0.00    +0.000 C 
ATOM     23  O   UNL     1       2.355   9.106  17.094  0.00  0.00    +0.000 OA
BRANCH  22  24
ATOM     24  C   UNL     1       2.277   7.418  18.791  0.00  0.00    +0.000 C 
ATOM     25  C   UNL     1       2.945   6.482  18.081  0.00  0.00    +0.000 C 
ATOM     26  N   UNL     1       3.193   5.190  18.556  0.00  0.00    +0.000 N 
ATOM     27  C   UNL     1       2.905   4.916  19.891  0.00  0.00    +0.000 C 
ATOM     28  C   UNL     1       2.222   5.757  20.678  0.00  0.00    +0.000 C 
ATOM     29  C   UNL     1       1.695   7.066  20.137  0.00  0.00    +0.000 C 
BRANCH  26  30
ATOM     30  C   UNL     1       3.589   4.095  17.643  0.00  0.00    +0.000 C 
BRANCH  30  31
ATOM     31  C   UNL     1       4.905   4.335  16.940  0.00  0.00    +0.000 A 
ATOM     32  C   UNL     1       6.094   4.483  17.673  0.00  0.00    +0.000 A 
ATOM     33  C   UNL     1       7.313   4.665  17.017  0.00  0.00    +0.000 A 
ATOM     34  C   UNL     1       7.362   4.693  15.625  0.00  0.00    +0.000 A 
ATOM     35  C   UNL     1       6.190   4.545  14.887  0.00  0.00    +0.000 A 
ATOM     36  C   UNL     1       4.968   4.373  15.540  0.00  0.00    +0.000 A 
ENDBRANCH  30  31
ENDBRANCH  26  30
ENDBRANCH  22  24
ENDBRANCH  21  22
ENDBRANCH  18  21
TORSDOF 6
ENDMDL
MODEL 2
REMARK VINA RESULT:      -8.4      2.773     10.872
REMARK  Name = 
REMARK  7 active torsions:
REMARK  status: ('A' for Active; 'I' for Inactive)
REMARK    1  A    between atoms: C_1  and  C_2
REMARK    2  A    between atoms: C_9  and  O_10
REMARK    3  A    between atoms: C_19  and  O_20
REMARK    4  A    between atoms: O_20  and  C_21
REMARK    5  A    between atoms: C_21  and  C_23
REMARK    6  A    between atoms: N_25  and  C_26
REMARK    7  A    between atoms: C_26  and  C_27
REMARK                            x       y       z     vdW  Elec       q    Type
REMARK                         _______ _______ _______ _____ _____    ______ ____
ROOT
ATOM      1  C   UNL     1      -0.346   9.328  18.058  0.00  0.00    +0.000 C 
ATOM      2  C   UNL     1       0.882   9.792  18.883  0.00  0.00    +0.000 C 
ATOM      3  C   UNL     1       2.124   9.799  17.981  0.00  0.00    +0.000 C 
ATOM      4  C   UNL     1       2.569   8.377  17.597  0.00  0.00    +0.000 C 
ATOM      5  C   UNL     1       2.748   7.429  18.812  0.00  0.00    +0.000 C 
ATOM      6  C   UNL     1       3.153   6.004  18.445  0.00  0.00    +0.000 A 
ATOM      7  C   UNL     1       3.983   5.746  17.334  0.00  0.00    +0.000 A 
ATOM      8  C   UNL     1       4.374   4.447  16.999  0.00  0.00    +0.000 A 
ATOM      9  C   UNL     1       3.959   3.384  17.787  0.00  0.00    +0.000 A 
ATOM     10  C   UNL     1       3.168   3.609  18.910  0.00  0.00    +0.000 A 
ATOM     11  C   UNL     1       2.775   4.916  19.256  0.00  0.00    +0.000 A 
ATOM     12  C   UNL     1       1.890   5.089  20.473  0.00  0.00    +0.000 C 
ATOM     13  C   UNL     1       1.725   6.541  20.931  0.00  0.00    +0.000 C 
ATOM     14  C   UNL     1       1.483   7.453  19.724  0.00  0.00    +0.000 C 
ATOM     15  C   UNL     1       1.194   8.910  20.113  0.00  0.00    +0.000 C 
ATOM     16  C   UNL     1       0.046   9.229  21.065  0.00  0.00    +0.000 C 
ATOM     17  C   UNL     1      -0.239  10.726  20.823  0.00  0.00    +0.000 C 
ATOM     18  C   UNL     1       0.586  11.143  19.586  0.00  0.00    +0.000 C 
ENDROOT
BRANCH   9  19
ATOM     19  O   UNL     1       4.308   2.102  17.496  0.00  0.00    +0.000 OA
ATOM     20  H   UNL     1       4.595   2.060  16.569  0.00  0.00    +0.000 HD
ENDBRANCH   9  19
BRANCH  18  21
ATOM     21  O   UNL     1      -0.132  12.054  18.742  0.00  0.00    +0.000 OA
BRANCH  21  22
ATOM     22  C   UNL     1      -0.950  12.946  19.367  0.00  0.00    +0.000 C 
ATOM     23  O   UNL     1      -0.587  13.979  19.907  0.00  0.00    +0.000 OA
BRANCH  22  24
ATOM     24  C   UNL     1      -2.364  12.498  19.288  0.00  0.00    +0.000 C 
ATOM     25  C   UNL     1      -3.250  12.886  20.231  0.00  0.00    +0.000 C 
ATOM     26  N   UNL     1      -4.612  12.570  20.180  0.00  0.00    +0.000 N 
ATOM     27  C   UNL     1      -5.110  11.995  19.013  0.00  0.00    +0.000 C 
ATOM     28  C   UNL     1      -4.322  11.548  18.028  0.00  0.00    +0.000 C 
ATOM     29  C   UNL     1      -2.817  11.623  18.146  0.00  0.00    +0.000 C 
BRANCH  26  30
ATOM     30  C   UNL     1      -5.475  12.683  21.378  0.00  0.00    +0.000 C 
BRANCH  30  31
ATOM     31  C   UNL     1      -4.861  13.495  22.495  0.00  0.00    +0.000 A 
ATOM     32  C   UNL     1      -5.058  14.883  22.567  0.00  0.00    +0.000 A 
ATOM     33  C   UNL     1      -4.521  15.622  23.623  0.00  0.00    +0.000 A 
ATOM     34  C   UNL     1      -3.791  14.984  24.624  0.00  0.00    +0.000 A 
ATOM     35  C   UNL     1      -3.591  13.607  24.565  0.00  0.00    +0.000 A 
ATOM     36  C   UNL     1      -4.117  12.867  23.505  0.00  0.00    +0.000 A 
ENDBRANCH  30  31
ENDBRANCH  26  30
ENDBRANCH  22  24
ENDBRANCH  21  22
ENDBRANCH  18  21
TORSDOF 6
ENDMDL
MODEL 3
REMARK VINA RESULT:      -8.3      0.817      1.178
REMARK  Name = 
REMARK  7 active torsions:
REMARK  status: ('A' for Active; 'I' for Inactive)
REMARK    1  A    between atoms: C_1  and  C_2
REMARK    2  A    between atoms: C_9  and  O_10
REMARK    3  A    between atoms: C_19  and  O_20
REMARK    4  A    between atoms: O_20  and  C_21
REMARK    5  A    between atoms: C_21  and  C_23
REMARK    6  A    between atoms: N_25  and  C_26
REMARK    7  A    between atoms: C_26  and  C_27
REMARK                            x       y       z     vdW  Elec       q    Type
REMARK                         _______ _______ _______ _____ _____    ______ ____
ROOT
ATOM      1  C   UNL     1      -0.381   9.304  20.998  0.00  0.00    +0.000 C 
ATOM      2  C   UNL     1       0.108  10.470  20.100  0.00  0.00    +0.000 C 
ATOM      3  C   UNL     1       0.859  11.493  20.962  0.00  0.00    +0.000 C 
ATOM      4  C   UNL     1      -0.083  12.253  21.913  0.00  0.00    +0.000 C 
ATOM      5  C   UNL     1      -1.307  12.889  21.203  0.00  0.00    +0.000 C 
ATOM      6  C   UNL     1      -2.271  13.614  22.138  0.00  0.00    +0.000 A 
ATOM      7  C   UNL     1      -1.804  14.289  23.285  0.00  0.00    +0.000 A 
ATOM      8  C   UNL     1      -2.676  14.970  24.139  0.00  0.00    +0.000 A 
ATOM      9  C   UNL     1      -4.030  15.007  23.844  0.00  0.00    +0.000 A 
ATOM     10  C   UNL     1      -4.518  14.381  22.701  0.00  0.00    +0.000 A 
ATOM     11  C   UNL     1      -3.645  13.697  21.833  0.00  0.00    +0.000 A 
ATOM     12  C   UNL     1      -4.242  13.012  20.622  0.00  0.00    +0.000 C 
ATOM     13  C   UNL     1      -3.212  12.522  19.602  0.00  0.00    +0.000 C 
ATOM     14  C   UNL     1      -2.043  11.836  20.317  0.00  0.00    +0.000 C 
ATOM     15  C   UNL     1      -1.022  11.216  19.354  0.00  0.00    +0.000 C 
ATOM     16  C   UNL     1      -1.479  10.197  18.315  0.00  0.00    +0.000 C 
ATOM     17  C   UNL     1      -0.183   9.465  17.909  0.00  0.00    +0.000 C 
ATOM     18  C   UNL     1       0.915   9.924  18.893  0.00  0.00    +0.000 C 
ENDROOT
BRANCH   9  19
ATOM     19  O   UNL     1      -4.918  15.651  24.649  0.00  0.00    +0.000 OA
ATOM     20  H   UNL     1      -4.735  16.604  24.614  0.00  0.00    +0.000 HD
ENDBRANCH   9  19
BRANCH  18  21
ATOM     21  O   UNL     1       1.791   8.849  19.262  0.00  0.00    +0.000 OA
BRANCH  21  22
ATOM     22  C   UNL     1       2.402   8.185  18.241  0.00  0.00    +0.000 C 
ATOM     23  O   UNL     1       2.670   8.662  17.149  0.00  0.00    +0.000 OA
BRANCH  22  24
ATOM     24  C   UNL     1       2.720   6.792  18.644  0.00  0.00    +0.000 C 
ATOM     25  C   UNL     1       3.997   6.353  18.613  0.00  0.00    +0.000 C 
ATOM     26  N   UNL     1       4.383   5.082  19.053  0.00  0.00    +0.000 N 
ATOM     27  C   UNL     1       3.442   4.307  19.727  0.00  0.00    +0.000 C 
ATOM     28  C   UNL     1       2.145   4.631  19.795  0.00  0.00    +0.000 C 
ATOM     29  C   UNL     1       1.620   5.868  19.105  0.00  0.00    +0.000 C 
BRANCH  26  30
ATOM     30  C   UNL     1       5.691   4.500  18.676  0.00  0.00    +0.000 C 
BRANCH  30  31
ATOM     31  C   UNL     1       5.944   4.489  17.186  0.00  0.00    +0.000 A 
ATOM     32  C   UNL     1       4.969   4.014  16.295  0.00  0.00    +0.000 A 
ATOM     33  C   UNL     1       5.193   4.042  14.917  0.00  0.00    +0.000 A 
ATOM     34  C   UNL     1       6.388   4.552  14.412  0.00  0.00    +0.000 A 
ATOM     35  C   UNL     1       7.362   5.028  15.286  0.00  0.00    +0.000 A 
ATOM     36  C   UNL     1       7.145   4.992  16.664  0.00  0.00    +0.000 A 
ENDBRANCH  30  31
ENDBRANCH  26  30
ENDBRANCH  22  24
ENDBRANCH  21  22
ENDBRANCH  18  21
TORSDOF 6
ENDMDL
MODEL 4
REMARK VINA RESULT:      -8.2      1.547      1.949
REMARK  Name = 
REMARK  7 active torsions:
REMARK  status: ('A' for Active; 'I' for Inactive)
REMARK    1  A    between atoms: C_1  and  C_2
REMARK    2  A    between atoms: C_9  and  O_10
REMARK    3  A    between atoms: C_19  and  O_20
REMARK    4  A    between atoms: O_20  and  C_21
REMARK    5  A    between atoms: C_21  and  C_23
REMARK    6  A    between atoms: N_25  and  C_26
REMARK    7  A    between atoms: C_26  and  C_27
REMARK                            x       y       z     vdW  Elec       q    Type
REMARK                         _______ _______ _______ _____ _____    ______ ____
ROOT
ATOM      1  C   UNL     1      -0.937   8.476  21.023  0.00  0.00    +0.000 C 
ATOM      2  C   UNL     1      -0.054   9.750  21.003  0.00  0.00    +0.000 C 
ATOM      3  C   UNL     1       0.159  10.242  22.441  0.00  0.00    +0.000 C 
ATOM      4  C   UNL     1      -1.132  10.810  23.056  0.00  0.00    +0.000 C 
ATOM      5  C   UNL     1      -1.821  11.887  22.177  0.00  0.00    +0.000 C 
ATOM      6  C   UNL     1      -3.123  12.433  22.757  0.00  0.00    +0.000 A 
ATOM      7  C   UNL     1      -3.302  12.567  24.149  0.00  0.00    +0.000 A 
ATOM      8  C   UNL     1      -4.483  13.082  24.690  0.00  0.00    +0.000 A 
ATOM      9  C   UNL     1      -5.499  13.495  23.841  0.00  0.00    +0.000 A 
ATOM     10  C   UNL     1      -5.340  13.408  22.461  0.00  0.00    +0.000 A 
ATOM     11  C   UNL     1      -4.151  12.896  21.910  0.00  0.00    +0.000 A 
ATOM     12  C   UNL     1      -4.053  12.801  20.402  0.00  0.00    +0.000 C 
ATOM     13  C   UNL     1      -2.649  12.486  19.879  0.00  0.00    +0.000 C 
ATOM     14  C   UNL     1      -2.009  11.373  20.716  0.00  0.00    +0.000 C 
ATOM     15  C   UNL     1      -0.643  10.920  20.183  0.00  0.00    +0.000 C 
ATOM     16  C   UNL     1      -0.513  10.433  18.744  0.00  0.00    +0.000 C 
ATOM     17  C   UNL     1       0.806   9.632  18.735  0.00  0.00    +0.000 C 
ATOM     18  C   UNL     1       1.253   9.493  20.207  0.00  0.00    +0.000 C 
ENDROOT
BRANCH   9  19
ATOM     19  O   UNL     1      -6.670  13.995  24.321  0.00  0.00    +0.000 OA
ATOM     20  H   UNL     1      -6.507  14.381  25.197  0.00  0.00    +0.000 HD
ENDBRANCH   9  19
BRANCH  18  21
ATOM     21  O   UNL     1       1.814   8.201  20.479  0.00  0.00    +0.000 OA
BRANCH  21  22
ATOM     22  C   UNL     1       2.346   7.533  19.418  0.00  0.00    +0.000 C 
ATOM     23  O   UNL     1       2.721   8.047  18.375  0.00  0.00    +0.000 OA
BRANCH  22  24
ATOM     24  C   UNL     1       2.428   6.079  19.708  0.00  0.00    +0.000 C 
ATOM     25  C   UNL     1       3.535   5.383  19.370  0.00  0.00    +0.000 C 
ATOM     26  N   UNL     1       3.718   4.031  19.681  0.00  0.00    +0.000 N 
ATOM     27  C   UNL     1       2.803   3.427  20.541  0.00  0.00    +0.000 C 
ATOM     28  C   UNL     1       1.659   4.012  20.916  0.00  0.00    +0.000 C 
ATOM     29  C   UNL     1       1.281   5.379  20.394  0.00  0.00    +0.000 C 
BRANCH  26  30
ATOM     30  C   UNL     1       4.745   3.214  18.998  0.00  0.00    +0.000 C 
BRANCH  30  31
ATOM     31  C   UNL     1       5.392   3.909  17.822  0.00  0.00    +0.000 A 
ATOM     32  C   UNL     1       4.800   3.871  16.550  0.00  0.00    +0.000 A 
ATOM     33  C   UNL     1       5.381   4.548  15.476  0.00  0.00    +0.000 A 
ATOM     34  C   UNL     1       6.554   5.279  15.661  0.00  0.00    +0.000 A 
ATOM     35  C   UNL     1       7.149   5.326  16.919  0.00  0.00    +0.000 A 
ATOM     36  C   UNL     1       6.575   4.642  17.992  0.00  0.00    +0.000 A 
ENDBRANCH  30  31
ENDBRANCH  26  30
ENDBRANCH  22  24
ENDBRANCH  21  22
ENDBRANCH  18  21
TORSDOF 6
ENDMDL
MODEL 5
REMARK VINA RESULT:      -8.2      3.170     11.015
REMARK  Name = 
REMARK  7 active torsions:
REMARK  status: ('A' for Active; 'I' for Inactive)
REMARK    1  A    between atoms: C_1  and  C_2
REMARK    2  A    between atoms: C_9  and  O_10
REMARK    3  A    between atoms: C_19  and  O_20
REMARK    4  A    between atoms: O_20  and  C_21
REMARK    5  A    between atoms: C_21  and  C_23
REMARK    6  A    between atoms: N_25  and  C_26
REMARK    7  A    between atoms: C_26  and  C_27
REMARK                            x       y       z     vdW  Elec       q    Type
REMARK                         _______ _______ _______ _____ _____    ______ ____
ROOT
ATOM      1  C   UNL     1      -0.427   9.319  17.974  0.00  0.00    +0.000 C 
ATOM      2  C   UNL     1       0.775   9.825  18.813  0.00  0.00    +0.000 C 
ATOM      3  C   UNL     1       2.033   9.847  17.935  0.00  0.00    +0.000 C 
ATOM      4  C   UNL     1       2.518   8.430  17.581  0.00  0.00    +0.000 C 
ATOM      5  C   UNL     1       2.696   7.505  18.815  0.00  0.00    +0.000 C 
ATOM      6  C   UNL     1       3.141   6.085  18.478  0.00  0.00    +0.000 A 
ATOM      7  C   UNL     1       3.997   5.829  17.388  0.00  0.00    +0.000 A 
ATOM      8  C   UNL     1       4.425   4.535  17.080  0.00  0.00    +0.000 A 
ATOM      9  C   UNL     1       4.019   3.475  17.878  0.00  0.00    +0.000 A 
ATOM     10  C   UNL     1       3.203   3.699  18.982  0.00  0.00    +0.000 A 
ATOM     11  C   UNL     1       2.773   5.001  19.300  0.00  0.00    +0.000 A 
ATOM     12  C   UNL     1       1.862   5.173  20.497  0.00  0.00    +0.000 C 
ATOM     13  C   UNL     1       1.655   6.627  20.929  0.00  0.00    +0.000 C 
ATOM     14  C   UNL     1       1.414   7.514  19.704  0.00  0.00    +0.000 C 
ATOM     15  C   UNL     1       1.084   8.970  20.063  0.00  0.00    +0.000 C 
ATOM     16  C   UNL     1      -0.089   9.276  20.989  0.00  0.00    +0.000 C 
ATOM     17  C   UNL     1      -0.404  10.763  20.718  0.00  0.00    +0.000 C 
ATOM     18  C   UNL     1       0.434  11.179  19.489  0.00  0.00    +0.000 C 
ENDROOT
BRANCH   9  19
ATOM     19  O   UNL     1       4.403   2.196  17.614  0.00  0.00    +0.000 OA
ATOM     20  H   UNL     1       3.611   1.637  17.566  0.00  0.00    +0.000 HD
ENDBRANCH   9  19
BRANCH  18  21
ATOM     21  O   UNL     1      -0.289  12.059  18.617  0.00  0.00    +0.000 OA
BRANCH  21  22
ATOM     22  C   UNL     1      -1.390  12.667  19.143  0.00  0.00    +0.000 C 
ATOM     23  O   UNL     1      -1.373  13.570  19.965  0.00  0.00    +0.000 OA
BRANCH  22  24
ATOM     24  C   UNL     1      -2.628  12.090  18.561  0.00  0.00    +0.000 C 
ATOM     25  C   UNL     1      -3.775  12.092  19.275  0.00  0.00    +0.000 C 
ATOM     26  N   UNL     1      -4.997  11.641  18.766  0.00  0.00    +0.000 N 
ATOM     27  C   UNL     1      -5.075  11.354  17.405  0.00  0.00    +0.000 C 
ATOM     28  C   UNL     1      -4.000  11.294  16.610  0.00  0.00    +0.000 C 
ATOM     29  C   UNL     1      -2.613  11.515  17.167  0.00  0.00    +0.000 C 
BRANCH  26  30
ATOM     30  C   UNL     1      -6.131  11.313  19.659  0.00  0.00    +0.000 C 
BRANCH  30  31
ATOM     31  C   UNL     1      -6.764  12.523  20.307  0.00  0.00    +0.000 A 
ATOM     32  C   UNL     1      -7.047  12.536  21.682  0.00  0.00    +0.000 A 
ATOM     33  C   UNL     1      -7.595  13.671  22.283  0.00  0.00    +0.000 A 
ATOM     34  C   UNL     1      -7.858  14.809  21.521  0.00  0.00    +0.000 A 
ATOM     35  C   UNL     1      -7.578  14.809  20.157  0.00  0.00    +0.000 A 
ATOM     36  C   UNL     1      -7.040  13.672  19.552  0.00  0.00    +0.000 A 
ENDBRANCH  30  31
ENDBRANCH  26  30
ENDBRANCH  22  24
ENDBRANCH  21  22
ENDBRANCH  18  21
TORSDOF 6
ENDMDL
MODEL 6
REMARK VINA RESULT:      -8.2      3.061     10.633
REMARK  Name = 
REMARK  7 active torsions:
REMARK  status: ('A' for Active; 'I' for Inactive)
REMARK    1  A    between atoms: C_1  and  C_2
REMARK    2  A    between atoms: C_9  and  O_10
REMARK    3  A    between atoms: C_19  and  O_20
REMARK    4  A    between atoms: O_20  and  C_21
REMARK    5  A    between atoms: C_21  and  C_23
REMARK    6  A    between atoms: N_25  and  C_26
REMARK    7  A    between atoms: C_26  and  C_27
REMARK                            x       y       z     vdW  Elec       q    Type
REMARK                         _______ _______ _______ _____ _____    ______ ____
ROOT
ATOM      1  C   UNL     1      -0.269   9.623  18.106  0.00  0.00    +0.000 C 
ATOM      2  C   UNL     1       0.966   9.988  18.970  0.00  0.00    +0.000 C 
ATOM      3  C   UNL     1       2.230   9.911  18.104  0.00  0.00    +0.000 C 
ATOM      4  C   UNL     1       2.581   8.464  17.717  0.00  0.00    +0.000 C 
ATOM      5  C   UNL     1       2.654   7.494  18.926  0.00  0.00    +0.000 C 
ATOM      6  C   UNL     1       2.964   6.047  18.555  0.00  0.00    +0.000 A 
ATOM      7  C   UNL     1       3.804   5.738  17.465  0.00  0.00    +0.000 A 
ATOM      8  C   UNL     1       4.109   4.417  17.126  0.00  0.00    +0.000 A 
ATOM      9  C   UNL     1       3.593   3.381  17.891  0.00  0.00    +0.000 A 
ATOM     10  C   UNL     1       2.789   3.653  18.993  0.00  0.00    +0.000 A 
ATOM     11  C   UNL     1       2.483   4.982  19.343  0.00  0.00    +0.000 A 
ATOM     12  C   UNL     1       1.579   5.210  20.536  0.00  0.00    +0.000 C 
ATOM     13  C   UNL     1       1.508   6.665  21.006  0.00  0.00    +0.000 C 
ATOM     14  C   UNL     1       1.368   7.604  19.802  0.00  0.00    +0.000 C 
ATOM     15  C   UNL     1       1.176   9.074  20.198  0.00  0.00    +0.000 C 
ATOM     16  C   UNL     1       0.027   9.468  21.122  0.00  0.00    +0.000 C 
ATOM     17  C   UNL     1      -0.140  10.985  20.888  0.00  0.00    +0.000 C 
ATOM     18  C   UNL     1       0.749  11.350  19.680  0.00  0.00    +0.000 C 
ENDROOT
BRANCH   9  19
ATOM     19  O   UNL     1       3.856   2.079  17.595  0.00  0.00    +0.000 OA
ATOM     20  H   UNL     1       3.122   1.726  17.067  0.00  0.00    +0.000 HD
ENDBRANCH   9  19
BRANCH  18  21
ATOM     21  O   UNL     1       0.125  12.319  18.826  0.00  0.00    +0.000 OA
BRANCH  21  22
ATOM     22  C   UNL     1       0.829  13.460  18.584  0.00  0.00    +0.000 C 
ATOM     23  O   UNL     1       1.846  13.533  17.911  0.00  0.00    +0.000 OA
BRANCH  22  24
ATOM     24  C   UNL     1       0.178  14.621  19.241  0.00  0.00    +0.000 C 
ATOM     25  C   UNL     1      -0.050  14.605  20.572  0.00  0.00    +0.000 C 
ATOM     26  N   UNL     1      -0.585  15.691  21.273  0.00  0.00    +0.000 N 
ATOM     27  C   UNL     1      -0.712  16.906  20.603  0.00  0.00    +0.000 C 
ATOM     28  C   UNL     1      -0.540  17.032  19.281  0.00  0.00    +0.000 C 
ATOM     29  C   UNL     1      -0.217  15.828  18.426  0.00  0.00    +0.000 C 
BRANCH  26  30
ATOM     30  C   UNL     1      -1.156  15.528  22.628  0.00  0.00    +0.000 C 
BRANCH  30  31
ATOM     31  C   UNL     1      -2.276  14.516  22.699  0.00  0.00    +0.000 A 
ATOM     32  C   UNL     1      -2.149  13.358  23.483  0.00  0.00    +0.000 A 
ATOM     33  C   UNL     1      -3.202  12.445  23.575  0.00  0.00    +0.000 A 
ATOM     34  C   UNL     1      -4.395  12.681  22.895  0.00  0.00    +0.000 A 
ATOM     35  C   UNL     1      -4.534  13.828  22.117  0.00  0.00    +0.000 A 
ATOM     36  C   UNL     1      -3.480  14.737  22.014  0.00  0.00    +0.000 A 
ENDBRANCH  30  31
ENDBRANCH  26  30
ENDBRANCH  22  24
ENDBRANCH  21  22
ENDBRANCH  18  21
TORSDOF 6
ENDMDL
MODEL 7
REMARK VINA RESULT:      -8.2      2.964     10.587
REMARK  Name = 
REMARK  7 active torsions:
REMARK  status: ('A' for Active; 'I' for Inactive)
REMARK    1  A    between atoms: C_1  and  C_2
REMARK    2  A    between atoms: C_9  and  O_10
REMARK    3  A    between atoms: C_19  and  O_20
REMARK    4  A    between atoms: O_20  and  C_21
REMARK    5  A    between atoms: C_21  and  C_23
REMARK    6  A    between atoms: N_25  and  C_26
REMARK    7  A    between atoms: C_26  and  C_27
REMARK                            x       y       z     vdW  Elec       q    Type
REMARK                         _______ _______ _______ _____ _____    ______ ____
ROOT
ATOM      1  C   UNL     1      -0.643   9.651  18.307  0.00  0.00    +0.000 C 
ATOM      2  C   UNL     1       0.536  10.152  19.180  0.00  0.00    +0.000 C 
ATOM      3  C   UNL     1       1.755  10.410  18.285  0.00  0.00    +0.000 C 
ATOM      4  C   UNL     1       2.355   9.106  17.732  0.00  0.00    +0.000 C 
ATOM      5  C   UNL     1       2.659   8.046  18.824  0.00  0.00    +0.000 C 
ATOM      6  C   UNL     1       3.221   6.732  18.288  0.00  0.00    +0.000 A 
ATOM      7  C   UNL     1       4.058   6.707  17.154  0.00  0.00    +0.000 A 
ATOM      8  C   UNL     1       4.591   5.511  16.665  0.00  0.00    +0.000 A 
ATOM      9  C   UNL     1       4.312   4.321  17.320  0.00  0.00    +0.000 A 
ATOM     10  C   UNL     1       3.518   4.317  18.462  0.00  0.00    +0.000 A 
ATOM     11  C   UNL     1       2.982   5.518  18.963  0.00  0.00    +0.000 A 
ATOM     12  C   UNL     1       2.101   5.442  20.193  0.00  0.00    +0.000 C 
ATOM     13  C   UNL     1       1.777   6.799  20.823  0.00  0.00    +0.000 C 
ATOM     14  C   UNL     1       1.413   7.815  19.734  0.00  0.00    +0.000 C 
ATOM     15  C   UNL     1       0.965   9.172  20.295  0.00  0.00    +0.000 C 
ATOM     16  C   UNL     1      -0.198   9.239  21.280  0.00  0.00    +0.000 C 
ATOM     17  C   UNL     1      -0.657  10.712  21.220  0.00  0.00    +0.000 C 
ATOM     18  C   UNL     1       0.096  11.366  20.041  0.00  0.00    +0.000 C 
ENDROOT
BRANCH   9  19
ATOM     19  O   UNL     1       4.802   3.131  16.876  0.00  0.00    +0.000 OA
ATOM     20  H   UNL     1       4.538   3.013  15.949  0.00  0.00    +0.000 HD
ENDBRANCH   9  19
BRANCH  18  21
ATOM     21  O   UNL     1      -0.734  12.281  19.313  0.00  0.00    +0.000 OA
BRANCH  21  22
ATOM     22  C   UNL     1      -0.768  13.565  19.768  0.00  0.00    +0.000 C 
ATOM     23  O   UNL     1      -0.016  14.460  19.413  0.00  0.00    +0.000 OA
BRANCH  22  24
ATOM     24  C   UNL     1      -1.866  13.738  20.751  0.00  0.00    +0.000 C 
ATOM     25  C   UNL     1      -3.145  13.501  20.386  0.00  0.00    +0.000 C 
ATOM     26  N   UNL     1      -4.223  13.566  21.276  0.00  0.00    +0.000 N 
ATOM     27  C   UNL     1      -3.945  13.693  22.635  0.00  0.00    +0.000 C 
ATOM     28  C   UNL     1      -2.720  13.959  23.107  0.00  0.00    +0.000 C 
ATOM     29  C   UNL     1      -1.557  14.164  22.165  0.00  0.00    +0.000 C 
BRANCH  26  30
ATOM     30  C   UNL     1      -5.618  13.665  20.792  0.00  0.00    +0.000 C 
BRANCH  30  31
ATOM     31  C   UNL     1      -6.167  12.365  20.250  0.00  0.00    +0.000 A 
ATOM     32  C   UNL     1      -5.748  11.872  19.004  0.00  0.00    +0.000 A 
ATOM     33  C   UNL     1      -6.229  10.652  18.526  0.00  0.00    +0.000 A 
ATOM     34  C   UNL     1      -7.126   9.905  19.289  0.00  0.00    +0.000 A 
ATOM     35  C   UNL     1      -7.546  10.383  20.528  0.00  0.00    +0.000 A 
ATOM     36  C   UNL     1      -7.075  11.607  21.003  0.00  0.00    +0.000 A 
ENDBRANCH  30  31
ENDBRANCH  26  30
ENDBRANCH  22  24
ENDBRANCH  21  22
ENDBRANCH  18  21
TORSDOF 6
ENDMDL
MODEL 8
REMARK VINA RESULT:      -8.1      2.811      9.775
REMARK  Name = 
REMARK  7 active torsions:
REMARK  status: ('A' for Active; 'I' for Inactive)
REMARK    1  A    between atoms: C_1  and  C_2
REMARK    2  A    between atoms: C_9  and  O_10
REMARK    3  A    between atoms: C_19  and  O_20
REMARK    4  A    between atoms: O_20  and  C_21
REMARK    5  A    between atoms: C_21  and  C_23
REMARK    6  A    between atoms: N_25  and  C_26
REMARK    7  A    between atoms: C_26  and  C_27
REMARK                            x       y       z     vdW  Elec       q    Type
REMARK                         _______ _______ _______ _____ _____    ______ ____
ROOT
ATOM      1  C   UNL     1      -0.474   9.538  18.496  0.00  0.00    +0.000 C 
ATOM      2  C   UNL     1       0.774   9.992  19.298  0.00  0.00    +0.000 C 
ATOM      3  C   UNL     1       1.969  10.119  18.344  0.00  0.00    +0.000 C 
ATOM      4  C   UNL     1       2.452   8.750  17.833  0.00  0.00    +0.000 C 
ATOM      5  C   UNL     1       2.726   7.723  18.963  0.00  0.00    +0.000 C 
ATOM      6  C   UNL     1       3.170   6.348  18.470  0.00  0.00    +0.000 A 
ATOM      7  C   UNL     1       3.955   6.210  17.307  0.00  0.00    +0.000 A 
ATOM      8  C   UNL     1       4.381   4.958  16.855  0.00  0.00    +0.000 A 
ATOM      9  C   UNL     1       4.046   3.822  17.578  0.00  0.00    +0.000 A 
ATOM     10  C   UNL     1       3.302   3.929  18.749  0.00  0.00    +0.000 A 
ATOM     11  C   UNL     1       2.874   5.187  19.212  0.00  0.00    +0.000 A 
ATOM     12  C   UNL     1       2.043   5.232  20.477  0.00  0.00    +0.000 C 
ATOM     13  C   UNL     1       1.843   6.636  21.052  0.00  0.00    +0.000 C 
ATOM     14  C   UNL     1       1.506   7.625  19.930  0.00  0.00    +0.000 C 
ATOM     15  C   UNL     1       1.179   9.034  20.441  0.00  0.00    +0.000 C 
ATOM     16  C   UNL     1       0.067   9.231  21.466  0.00  0.00    +0.000 C 
ATOM     17  C   UNL     1      -0.289  10.729  21.353  0.00  0.00    +0.000 C 
ATOM     18  C   UNL     1       0.458  11.272  20.115  0.00  0.00    +0.000 C 
ENDROOT
BRANCH   9  19
ATOM     19  O   UNL     1       4.431   2.581  17.174  0.00  0.00    +0.000 OA
ATOM     20  H   UNL     1       4.233   2.487  16.228  0.00  0.00    +0.000 HD
ENDBRANCH   9  19
BRANCH  18  21
ATOM     21  O   UNL     1      -0.336  12.211  19.376  0.00  0.00    +0.000 OA
BRANCH  21  22
ATOM     22  C   UNL     1      -0.754  13.318  20.052  0.00  0.00    +0.000 C 
ATOM     23  O   UNL     1      -0.035  14.231  20.425  0.00  0.00    +0.000 OA
BRANCH  22  24
ATOM     24  C   UNL     1      -2.224  13.274  20.260  0.00  0.00    +0.000 C 
ATOM     25  C   UNL     1      -2.983  12.414  19.546  0.00  0.00    +0.000 C 
ATOM     26  N   UNL     1      -4.359  12.259  19.742  0.00  0.00    +0.000 N 
ATOM     27  C   UNL     1      -4.938  12.878  20.848  0.00  0.00    +0.000 C 
ATOM     28  C   UNL     1      -4.289  13.770  21.607  0.00  0.00    +0.000 C 
ATOM     29  C   UNL     1      -2.871  14.177  21.280  0.00  0.00    +0.000 C 
BRANCH  26  30
ATOM     30  C   UNL     1      -5.214  11.603  18.728  0.00  0.00    +0.000 C 
BRANCH  30  31
ATOM     31  C   UNL     1      -4.439  10.997  17.580  0.00  0.00    +0.000 A 
ATOM     32  C   UNL     1      -4.335  11.668  16.351  0.00  0.00    +0.000 A 
ATOM     33  C   UNL     1      -3.585  11.123  15.307  0.00  0.00    +0.000 A 
ATOM     34  C   UNL     1      -2.925   9.907  15.479  0.00  0.00    +0.000 A 
ATOM     35  C   UNL     1      -3.019   9.234  16.695  0.00  0.00    +0.000 A 
ATOM     36  C   UNL     1      -3.776   9.772  17.737  0.00  0.00    +0.000 A 
ENDBRANCH  30  31
ENDBRANCH  26  30
ENDBRANCH  22  24
ENDBRANCH  21  22
ENDBRANCH  18  21
TORSDOF 6
ENDMDL
MODEL 9
REMARK VINA RESULT:      -8.1      0.763      1.107
REMARK  Name = 
REMARK  7 active torsions:
REMARK  status: ('A' for Active; 'I' for Inactive)
REMARK    1  A    between atoms: C_1  and  C_2
REMARK    2  A    between atoms: C_9  and  O_10
REMARK    3  A    between atoms: C_19  and  O_20
REMARK    4  A    between atoms: O_20  and  C_21
REMARK    5  A    between atoms: C_21  and  C_23
REMARK    6  A    between atoms: N_25  and  C_26
REMARK    7  A    between atoms: C_26  and  C_27
REMARK                            x       y       z     vdW  Elec       q    Type
REMARK                         _______ _______ _______ _____ _____    ______ ____
ROOT
ATOM      1  C   UNL     1      -0.369  10.643  21.620  0.00  0.00    +0.000 C 
ATOM      2  C   UNL     1      -0.238  11.734  20.526  0.00  0.00    +0.000 C 
ATOM      3  C   UNL     1       0.511  12.942  21.104  0.00  0.00    +0.000 C 
ATOM      4  C   UNL     1      -0.327  13.698  22.150  0.00  0.00    +0.000 C 
ATOM      5  C   UNL     1      -1.745  14.086  21.652  0.00  0.00    +0.000 C 
ATOM      6  C   UNL     1      -2.603  14.803  22.691  0.00  0.00    +0.000 A 
ATOM      7  C   UNL     1      -2.024  15.670  23.640  0.00  0.00    +0.000 A 
ATOM      8  C   UNL     1      -2.801  16.345  24.585  0.00  0.00    +0.000 A 
ATOM      9  C   UNL     1      -4.178  16.180  24.579  0.00  0.00    +0.000 A 
ATOM     10  C   UNL     1      -4.783  15.358  23.633  0.00  0.00    +0.000 A 
ATOM     11  C   UNL     1      -4.007  14.680  22.676  0.00  0.00    +0.000 A 
ATOM     12  C   UNL     1      -4.723  13.778  21.693  0.00  0.00    +0.000 C 
ATOM     13  C   UNL     1      -3.852  13.289  20.533  0.00  0.00    +0.000 C 
ATOM     14  C   UNL     1      -2.479  12.847  21.052  0.00  0.00    +0.000 C 
ATOM     15  C   UNL     1      -1.586  12.236  19.963  0.00  0.00    +0.000 C 
ATOM     16  C   UNL     1      -2.086  11.045  19.151  0.00  0.00    +0.000 C 
ATOM     17  C   UNL     1      -0.801  10.429  18.558  0.00  0.00    +0.000 C 
ATOM     18  C   UNL     1       0.389  11.139  19.238  0.00  0.00    +0.000 C 
ENDROOT
BRANCH   9  19
ATOM     19  O   UNL     1      -4.976  16.810  25.484  0.00  0.00    +0.000 OA
ATOM     20  H   UNL     1      -5.899  16.733  25.192  0.00  0.00    +0.000 HD
ENDBRANCH   9  19
BRANCH  18  21
ATOM     21  O   UNL     1       1.466  10.235  19.520  0.00  0.00    +0.000 OA
BRANCH  21  22
ATOM     22  C   UNL     1       1.858   9.419  18.502  0.00  0.00    +0.000 C 
ATOM     23  O   UNL     1       2.103   9.781  17.362  0.00  0.00    +0.000 OA
BRANCH  22  24
ATOM     24  C   UNL     1       1.968   8.015  18.974  0.00  0.00    +0.000 C 
ATOM     25  C   UNL     1       2.571   7.087  18.200  0.00  0.00    +0.000 C 
ATOM     26  N   UNL     1       2.782   5.766  18.610  0.00  0.00    +0.000 N 
ATOM     27  C   UNL     1       2.531   5.444  19.942  0.00  0.00    +0.000 C 
ATOM     28  C   UNL     1       1.911   6.275  20.789  0.00  0.00    +0.000 C 
ATOM     29  C   UNL     1       1.420   7.626  20.324  0.00  0.00    +0.000 C 
BRANCH  26  30
ATOM     30  C   UNL     1       3.101   4.698  17.636  0.00  0.00    +0.000 C 
BRANCH  30  31
ATOM     31  C   UNL     1       4.569   4.613  17.285  0.00  0.00    +0.000 A 
ATOM     32  C   UNL     1       4.982   4.113  16.040  0.00  0.00    +0.000 A 
ATOM     33  C   UNL     1       6.337   4.074  15.706  0.00  0.00    +0.000 A 
ATOM     34  C   UNL     1       7.294   4.540  16.606  0.00  0.00    +0.000 A 
ATOM     35  C   UNL     1       6.896   5.040  17.843  0.00  0.00    +0.000 A 
ATOM     36  C   UNL     1       5.543   5.071  18.184  0.00  0.00    +0.000 A 
ENDBRANCH  30  31
ENDBRANCH  26  30
ENDBRANCH  22  24
ENDBRANCH  21  22
ENDBRANCH  18  21
TORSDOF 6
ENDMDL
