MODEL 1
REMARK VINA RESULT:      -7.2      0.000      0.000
REMARK  Name = 
REMARK  8 active torsions:
REMARK  status: ('A' for Active; 'I' for Inactive)
REMARK    1  A    between atoms: C_1  and  C_2
REMARK    2  A    between atoms: C_6  and  O_7
REMARK    3  A    between atoms: O_7  and  C_8
REMARK    4  A    between atoms: C_8  and  C_9
REMARK    5  A    between atoms: C_9  and  O_11
REMARK    6  A    between atoms: O_11  and  C_12
REMARK    7  A    between atoms: C_12  and  C_13
REMARK    8  A    between atoms: C_12  and  C_14
REMARK                            x       y       z     vdW  Elec       q    Type
REMARK                         _______ _______ _______ _____ _____    ______ ____
ROOT
ATOM      1  C   UNL     1       2.241   2.998  20.290  0.00  0.00    +0.000 C 
ATOM      2  C   UNL     1       2.315   2.584  21.754  0.00  0.00    +0.000 C 
ENDROOT
BRANCH   1   3
ATOM      3  C   UNL     1       1.703   4.433  20.211  0.00  0.00    +0.000 C 
ATOM      4  O   UNL     1       0.578   4.712  20.621  0.00  0.00    +0.000 OA
ATOM      5  N   UNL     1       2.593   5.340  19.669  0.00  0.00    +0.000 N 
ATOM      6  C   UNL     1       2.297   6.692  19.495  0.00  0.00    +0.000 A 
ATOM      7  C   UNL     1       1.615   7.434  20.456  0.00  0.00    +0.000 A 
ATOM      8  C   UNL     1       1.306   8.768  20.185  0.00  0.00    +0.000 A 
ATOM      9  C   UNL     1       1.662   9.303  18.956  0.00  0.00    +0.000 A 
ATOM     10 CL   UNL     1       1.233  10.910  18.540  0.00  0.00    +0.000 Cl
ATOM     11  C   UNL     1       2.364   8.499  18.072  0.00  0.00    +0.000 A 
ATOM     12  N   UNL     1       2.726   7.218  18.331  0.00  0.00    +0.000 NA
ATOM     13  H   UNL     1       3.255   4.977  18.994  0.00  0.00    +0.000 HD
ENDBRANCH   1   3
BRANCH   1  14
ATOM     14  O   UNL     1       3.518   2.927  19.630  0.00  0.00    +0.000 OA
BRANCH  14  15
ATOM     15  C   UNL     1       3.553   2.086  18.551  0.00  0.00    +0.000 C 
ATOM     16  O   UNL     1       3.873   0.904  18.603  0.00  0.00    +0.000 OA
BRANCH  15  17
ATOM     17  C   UNL     1       3.031   2.767  17.294  0.00  0.00    +0.000 C 
BRANCH  17  18
ATOM     18  O   UNL     1       3.488   4.101  17.162  0.00  0.00    +0.000 OA
BRANCH  18  24
ATOM     19  C   UNL     1       6.598   4.097  13.254  0.00  0.00    +0.000 C 
ATOM     20  C   UNL     1       6.303   4.303  14.714  0.00  0.00    +0.000 A 
ATOM     21  C   UNL     1       7.308   4.722  15.586  0.00  0.00    +0.000 A 
ATOM     22  C   UNL     1       7.024   4.911  16.944  0.00  0.00    +0.000 A 
ATOM     23  C   UNL     1       5.733   4.683  17.423  0.00  0.00    +0.000 A 
ATOM     24  C   UNL     1       4.714   4.266  16.564  0.00  0.00    +0.000 A 
ATOM     25  C   UNL     1       5.008   4.072  15.209  0.00  0.00    +0.000 A 
ENDBRANCH  18  24
ENDBRANCH  17  18
ENDBRANCH  15  17
ENDBRANCH  14  15
ENDBRANCH   1  14
TORSDOF 6
ENDMDL
MODEL 2
REMARK VINA RESULT:      -7.2      2.713      6.144
REMARK  Name = 
REMARK  8 active torsions:
REMARK  status: ('A' for Active; 'I' for Inactive)
REMARK    1  A    between atoms: C_1  and  C_2
REMARK    2  A    between atoms: C_6  and  O_7
REMARK    3  A    between atoms: O_7  and  C_8
REMARK    4  A    between atoms: C_8  and  C_9
REMARK    5  A    between atoms: C_9  and  O_11
REMARK    6  A    between atoms: O_11  and  C_12
REMARK    7  A    between atoms: C_12  and  C_13
REMARK    8  A    between atoms: C_12  and  C_14
REMARK                            x       y       z     vdW  Elec       q    Type
REMARK                         _______ _______ _______ _____ _____    ______ ____
ROOT
ATOM      1  C   UNL     1       4.029   2.764  20.070  0.00  0.00    +0.000 C 
ATOM      2  C   UNL     1       4.742   1.529  20.607  0.00  0.00    +0.000 C 
ENDROOT
BRANCH   1   3
ATOM      3  C   UNL     1       4.391   2.936  18.588  0.00  0.00    +0.000 C 
ATOM      4  O   UNL     1       3.916   2.195  17.729  0.00  0.00    +0.000 OA
ATOM      5  N   UNL     1       5.257   3.982  18.338  0.00  0.00    +0.000 N 
ATOM      6  C   UNL     1       5.722   4.302  17.062  0.00  0.00    +0.000 A 
ATOM      7  C   UNL     1       4.894   4.284  15.942  0.00  0.00    +0.000 A 
ATOM      8  C   UNL     1       5.445   4.561  14.690  0.00  0.00    +0.000 A 
ATOM      9  C   UNL     1       6.806   4.816  14.598  0.00  0.00    +0.000 A 
ATOM     10 CL   UNL     1       7.549   5.080  13.075  0.00  0.00    +0.000 Cl
ATOM     11  C   UNL     1       7.548   4.842  15.769  0.00  0.00    +0.000 A 
ATOM     12  N   UNL     1       7.027   4.631  17.004  0.00  0.00    +0.000 NA
ATOM     13  H   UNL     1       5.903   4.224  19.080  0.00  0.00    +0.000 HD
ENDBRANCH   1   3
BRANCH   1  14
ATOM     14  O   UNL     1       2.599   2.682  20.209  0.00  0.00    +0.000 OA
BRANCH  14  15
ATOM     15  C   UNL     1       1.922   3.788  19.772  0.00  0.00    +0.000 C 
ATOM     16  O   UNL     1       1.011   3.765  18.953  0.00  0.00    +0.000 OA
BRANCH  15  17
ATOM     17  C   UNL     1       2.358   5.041  20.518  0.00  0.00    +0.000 C 
BRANCH  17  18
ATOM     18  O   UNL     1       3.027   5.971  19.684  0.00  0.00    +0.000 OA
BRANCH  18  24
ATOM     19  C   UNL     1       0.279   9.892  21.099  0.00  0.00    +0.000 C 
ATOM     20  C   UNL     1       1.059   9.123  20.071  0.00  0.00    +0.000 A 
ATOM     21  C   UNL     1       1.204   9.619  18.775  0.00  0.00    +0.000 A 
ATOM     22  C   UNL     1       1.933   8.895  17.825  0.00  0.00    +0.000 A 
ATOM     23  C   UNL     1       2.517   7.677  18.175  0.00  0.00    +0.000 A 
ATOM     24  C   UNL     1       2.385   7.165  19.469  0.00  0.00    +0.000 A 
ATOM     25  C   UNL     1       1.648   7.892  20.411  0.00  0.00    +0.000 A 
ENDBRANCH  18  24
ENDBRANCH  17  18
ENDBRANCH  15  17
ENDBRANCH  14  15
ENDBRANCH   1  14
TORSDOF 6
ENDMDL
MODEL 3
REMARK VINA RESULT:      -7.1      2.160      3.038
REMARK  Name = 
REMARK  8 active torsions:
REMARK  status: ('A' for Active; 'I' for Inactive)
REMARK    1  A    between atoms: C_1  and  C_2
REMARK    2  A    between atoms: C_6  and  O_7
REMARK    3  A    between atoms: O_7  and  C_8
REMARK    4  A    between atoms: C_8  and  C_9
REMARK    5  A    between atoms: C_9  and  O_11
REMARK    6  A    between atoms: O_11  and  C_12
REMARK    7  A    between atoms: C_12  and  C_13
REMARK    8  A    between atoms: C_12  and  C_14
REMARK                            x       y       z     vdW  Elec       q    Type
REMARK                         _______ _______ _______ _____ _____    ______ ____
ROOT
ATOM      1  C   UNL     1       2.904   5.957  19.343  0.00  0.00    +0.000 C 
ATOM      2  C   UNL     1       3.065   6.735  18.043  0.00  0.00    +0.000 C 
ENDROOT
BRANCH   1   3
ATOM      3  C   UNL     1       1.943   6.726  20.260  0.00  0.00    +0.000 C 
ATOM      4  O   UNL     1       1.285   6.143  21.121  0.00  0.00    +0.000 OA
ATOM      5  N   UNL     1       1.914   8.088  20.033  0.00  0.00    +0.000 N 
ATOM      6  C   UNL     1       1.099   8.966  20.747  0.00  0.00    +0.000 A 
ATOM      7  C   UNL     1       0.916   8.858  22.124  0.00  0.00    +0.000 A 
ATOM      8  C   UNL     1       0.040   9.740  22.759  0.00  0.00    +0.000 A 
ATOM      9  C   UNL     1      -0.641  10.676  21.995  0.00  0.00    +0.000 A 
ATOM     10 CL   UNL     1      -1.790  11.727  22.713  0.00  0.00    +0.000 Cl
ATOM     11  C   UNL     1      -0.374  10.731  20.636  0.00  0.00    +0.000 A 
ATOM     12  N   UNL     1       0.513   9.923  20.002  0.00  0.00    +0.000 NA
ATOM     13  H   UNL     1       2.115   8.395  19.088  0.00  0.00    +0.000 HD
ENDBRANCH   1   3
BRANCH   1  14
ATOM     14  O   UNL     1       2.404   4.625  19.133  0.00  0.00    +0.000 OA
BRANCH  14  15
ATOM     15  C   UNL     1       3.043   3.657  19.858  0.00  0.00    +0.000 C 
ATOM     16  O   UNL     1       2.683   3.267  20.963  0.00  0.00    +0.000 OA
BRANCH  15  17
ATOM     17  C   UNL     1       4.192   3.037  19.075  0.00  0.00    +0.000 C 
BRANCH  17  18
ATOM     18  O   UNL     1       5.448   3.603  19.403  0.00  0.00    +0.000 OA
BRANCH  18  24
ATOM     19  C   UNL     1       6.286   5.154  14.731  0.00  0.00    +0.000 C 
ATOM     20  C   UNL     1       6.456   5.278  16.219  0.00  0.00    +0.000 A 
ATOM     21  C   UNL     1       7.203   6.324  16.762  0.00  0.00    +0.000 A 
ATOM     22  C   UNL     1       7.355   6.430  18.149  0.00  0.00    +0.000 A 
ATOM     23  C   UNL     1       6.756   5.491  18.989  0.00  0.00    +0.000 A 
ATOM     24  C   UNL     1       6.001   4.440  18.464  0.00  0.00    +0.000 A 
ATOM     25  C   UNL     1       5.860   4.336  17.076  0.00  0.00    +0.000 A 
ENDBRANCH  18  24
ENDBRANCH  17  18
ENDBRANCH  15  17
ENDBRANCH  14  15
ENDBRANCH   1  14
TORSDOF 6
ENDMDL
MODEL 4
REMARK VINA RESULT:      -7.0      5.074      6.952
REMARK  Name = 
REMARK  8 active torsions:
REMARK  status: ('A' for Active; 'I' for Inactive)
REMARK    1  A    between atoms: C_1  and  C_2
REMARK    2  A    between atoms: C_6  and  O_7
REMARK    3  A    between atoms: O_7  and  C_8
REMARK    4  A    between atoms: C_8  and  C_9
REMARK    5  A    between atoms: C_9  and  O_11
REMARK    6  A    between atoms: O_11  and  C_12
REMARK    7  A    between atoms: C_12  and  C_13
REMARK    8  A    between atoms: C_12  and  C_14
REMARK                            x       y       z     vdW  Elec       q    Type
REMARK                         _______ _______ _______ _____ _____    ______ ____
ROOT
ATOM      1  C   UNL     1       6.376   5.974  16.189  0.00  0.00    +0.000 C 
ATOM      2  C   UNL     1       6.298   5.028  14.998  0.00  0.00    +0.000 C 
ENDROOT
BRANCH   1   3
ATOM      3  C   UNL     1       5.207   5.669  17.137  0.00  0.00    +0.000 C 
ATOM      4  O   UNL     1       4.360   6.523  17.393  0.00  0.00    +0.000 OA
ATOM      5  N   UNL     1       5.205   4.380  17.632  0.00  0.00    +0.000 N 
ATOM      6  C   UNL     1       4.238   3.903  18.518  0.00  0.00    +0.000 A 
ATOM      7  C   UNL     1       2.886   4.205  18.379  0.00  0.00    +0.000 A 
ATOM      8  C   UNL     1       1.987   3.738  19.339  0.00  0.00    +0.000 A 
ATOM      9  C   UNL     1       2.474   3.011  20.416  0.00  0.00    +0.000 A 
ATOM     10 CL   UNL     1       1.424   2.484  21.666  0.00  0.00    +0.000 Cl
ATOM     11  C   UNL     1       3.831   2.732  20.458  0.00  0.00    +0.000 A 
ATOM     12  N   UNL     1       4.718   3.127  19.510  0.00  0.00    +0.000 NA
ATOM     13  H   UNL     1       6.106   3.929  17.730  0.00  0.00    +0.000 HD
ENDBRANCH   1   3
BRANCH   1  14
ATOM     14  O   UNL     1       7.618   5.860  16.907  0.00  0.00    +0.000 OA
BRANCH  14  15
ATOM     15  C   UNL     1       7.683   6.607  18.051  0.00  0.00    +0.000 C 
ATOM     16  O   UNL     1       7.666   6.142  19.185  0.00  0.00    +0.000 OA
BRANCH  15  17
ATOM     17  C   UNL     1       7.899   8.082  17.745  0.00  0.00    +0.000 C 
BRANCH  17  18
ATOM     18  O   UNL     1       8.629   8.752  18.758  0.00  0.00    +0.000 OA
BRANCH  18  24
ATOM     19  C   UNL     1      11.813  12.598  18.778  0.00  0.00    +0.000 C 
ATOM     20  C   UNL     1      10.487  11.977  18.439  0.00  0.00    +0.000 A 
ATOM     21  C   UNL     1       9.511  12.714  17.769  0.00  0.00    +0.000 A 
ATOM     22  C   UNL     1       8.279  12.126  17.458  0.00  0.00    +0.000 A 
ATOM     23  C   UNL     1       8.029  10.801  17.817  0.00  0.00    +0.000 A 
ATOM     24  C   UNL     1       8.997  10.047  18.486  0.00  0.00    +0.000 A 
ATOM     25  C   UNL     1      10.223  10.644  18.800  0.00  0.00    +0.000 A 
ENDBRANCH  18  24
ENDBRANCH  17  18
ENDBRANCH  15  17
ENDBRANCH  14  15
ENDBRANCH   1  14
TORSDOF 6
ENDMDL
MODEL 5
REMARK VINA RESULT:      -7.0      2.286      3.450
REMARK  Name = 
REMARK  8 active torsions:
REMARK  status: ('A' for Active; 'I' for Inactive)
REMARK    1  A    between atoms: C_1  and  C_2
REMARK    2  A    between atoms: C_6  and  O_7
REMARK    3  A    between atoms: O_7  and  C_8
REMARK    4  A    between atoms: C_8  and  C_9
REMARK    5  A    between atoms: C_9  and  O_11
REMARK    6  A    between atoms: O_11  and  C_12
REMARK    7  A    between atoms: C_12  and  C_13
REMARK    8  A    between atoms: C_12  and  C_14
REMARK                            x       y       z     vdW  Elec       q    Type
REMARK                         _______ _______ _______ _____ _____    ______ ____
ROOT
ATOM      1  C   UNL     1       2.746   6.221  19.065  0.00  0.00    +0.000 C 
ATOM      2  C   UNL     1       3.169   7.255  18.030  0.00  0.00    +0.000 C 
ENDROOT
BRANCH   1   3
ATOM      3  C   UNL     1       1.862   6.908  20.115  0.00  0.00    +0.000 C 
ATOM      4  O   UNL     1       1.348   6.266  21.030  0.00  0.00    +0.000 OA
ATOM      5  N   UNL     1       1.731   8.271  19.936  0.00  0.00    +0.000 N 
ATOM      6  C   UNL     1       0.961   9.082  20.771  0.00  0.00    +0.000 A 
ATOM      7  C   UNL     1       0.953   8.929  22.155  0.00  0.00    +0.000 A 
ATOM      8  C   UNL     1       0.113   9.742  22.919  0.00  0.00    +0.000 A 
ATOM      9  C   UNL     1      -0.707  10.655  22.272  0.00  0.00    +0.000 A 
ATOM     10 CL   UNL     1      -1.817  11.618  23.156  0.00  0.00    +0.000 Cl
ATOM     11  C   UNL     1      -0.611  10.759  20.894  0.00  0.00    +0.000 A 
ATOM     12  N   UNL     1       0.236  10.021  20.132  0.00  0.00    +0.000 NA
ATOM     13  H   UNL     1       1.797   8.613  18.985  0.00  0.00    +0.000 HD
ENDBRANCH   1   3
BRANCH   1  14
ATOM     14  O   UNL     1       2.030   5.116  18.484  0.00  0.00    +0.000 OA
BRANCH  14  15
ATOM     15  C   UNL     1       2.230   3.917  19.111  0.00  0.00    +0.000 C 
ATOM     16  O   UNL     1       1.369   3.056  19.253  0.00  0.00    +0.000 OA
BRANCH  15  17
ATOM     17  C   UNL     1       3.687   3.729  19.508  0.00  0.00    +0.000 C 
BRANCH  17  18
ATOM     18  O   UNL     1       4.490   3.257  18.440  0.00  0.00    +0.000 OA
BRANCH  18  24
ATOM     19  C   UNL     1       7.969   6.839  18.472  0.00  0.00    +0.000 C 
ATOM     20  C   UNL     1       7.009   5.930  17.757  0.00  0.00    +0.000 A 
ATOM     21  C   UNL     1       6.909   5.960  16.366  0.00  0.00    +0.000 A 
ATOM     22  C   UNL     1       6.012   5.109  15.710  0.00  0.00    +0.000 A 
ATOM     23  C   UNL     1       5.220   4.229  16.448  0.00  0.00    +0.000 A 
ATOM     24  C   UNL     1       5.309   4.183  17.842  0.00  0.00    +0.000 A 
ATOM     25  C   UNL     1       6.202   5.042  18.491  0.00  0.00    +0.000 A 
ENDBRANCH  18  24
ENDBRANCH  17  18
ENDBRANCH  15  17
ENDBRANCH  14  15
ENDBRANCH   1  14
TORSDOF 6
ENDMDL
MODEL 6
REMARK VINA RESULT:      -7.0      2.516      4.029
REMARK  Name = 
REMARK  8 active torsions:
REMARK  status: ('A' for Active; 'I' for Inactive)
REMARK    1  A    between atoms: C_1  and  C_2
REMARK    2  A    between atoms: C_6  and  O_7
REMARK    3  A    between atoms: O_7  and  C_8
REMARK    4  A    between atoms: C_8  and  C_9
REMARK    5  A    between atoms: C_9  and  O_11
REMARK    6  A    between atoms: O_11  and  C_12
REMARK    7  A    between atoms: C_12  and  C_13
REMARK    8  A    between atoms: C_12  and  C_14
REMARK                            x       y       z     vdW  Elec       q    Type
REMARK                         _______ _______ _______ _____ _____    ______ ____
ROOT
ATOM      1  C   UNL     1       2.995   7.193  18.297  0.00  0.00    +0.000 C 
ATOM      2  C   UNL     1       4.040   7.380  17.205  0.00  0.00    +0.000 C 
ENDROOT
BRANCH   1   3
ATOM      3  C   UNL     1       2.118   8.452  18.360  0.00  0.00    +0.000 C 
ATOM      4  O   UNL     1       2.006   9.196  17.386  0.00  0.00    +0.000 OA
ATOM      5  N   UNL     1       1.482   8.636  19.572  0.00  0.00    +0.000 N 
ATOM      6  C   UNL     1       0.650   9.723  19.841  0.00  0.00    +0.000 A 
ATOM      7  C   UNL     1      -0.266  10.208  18.911  0.00  0.00    +0.000 A 
ATOM      8  C   UNL     1      -1.024  11.335  19.234  0.00  0.00    +0.000 A 
ATOM      9  C   UNL     1      -0.819  11.952  20.460  0.00  0.00    +0.000 A 
ATOM     10 CL   UNL     1      -1.662  13.387  20.872  0.00  0.00    +0.000 Cl
ATOM     11  C   UNL     1       0.093  11.383  21.335  0.00  0.00    +0.000 A 
ATOM     12  N   UNL     1       0.802  10.257  21.069  0.00  0.00    +0.000 NA
ATOM     13  H   UNL     1       1.950   8.267  20.391  0.00  0.00    +0.000 HD
ENDBRANCH   1   3
BRANCH   1  14
ATOM     14  O   UNL     1       2.164   6.039  18.079  0.00  0.00    +0.000 OA
BRANCH  14  15
ATOM     15  C   UNL     1       2.142   5.150  19.118  0.00  0.00    +0.000 C 
ATOM     16  O   UNL     1       1.829   5.436  20.269  0.00  0.00    +0.000 OA
BRANCH  15  17
ATOM     17  C   UNL     1       2.439   3.733  18.650  0.00  0.00    +0.000 C 
BRANCH  17  18
ATOM     18  O   UNL     1       3.725   3.285  19.038  0.00  0.00    +0.000 OA
BRANCH  18  24
ATOM     19  C   UNL     1       7.914   6.003  18.975  0.00  0.00    +0.000 C 
ATOM     20  C   UNL     1       6.848   5.195  18.290  0.00  0.00    +0.000 A 
ATOM     21  C   UNL     1       6.899   4.978  16.913  0.00  0.00    +0.000 A 
ATOM     22  C   UNL     1       5.902   4.223  16.284  0.00  0.00    +0.000 A 
ATOM     23  C   UNL     1       4.857   3.685  17.037  0.00  0.00    +0.000 A 
ATOM     24  C   UNL     1       4.791   3.889  18.418  0.00  0.00    +0.000 A 
ATOM     25  C   UNL     1       5.788   4.651  19.038  0.00  0.00    +0.000 A 
ENDBRANCH  18  24
ENDBRANCH  17  18
ENDBRANCH  15  17
ENDBRANCH  14  15
ENDBRANCH   1  14
TORSDOF 6
ENDMDL
MODEL 7
REMARK VINA RESULT:      -7.0      2.679      4.862
REMARK  Name = 
REMARK  8 active torsions:
REMARK  status: ('A' for Active; 'I' for Inactive)
REMARK    1  A    between atoms: C_1  and  C_2
REMARK    2  A    between atoms: C_6  and  O_7
REMARK    3  A    between atoms: O_7  and  C_8
REMARK    4  A    between atoms: C_8  and  C_9
REMARK    5  A    between atoms: C_9  and  O_11
REMARK    6  A    between atoms: O_11  and  C_12
REMARK    7  A    between atoms: C_12  and  C_13
REMARK    8  A    between atoms: C_12  and  C_14
REMARK                            x       y       z     vdW  Elec       q    Type
REMARK                         _______ _______ _______ _____ _____    ______ ____
ROOT
ATOM      1  C   UNL     1       3.080   7.044  17.754  0.00  0.00    +0.000 C 
ATOM      2  C   UNL     1       2.203   5.807  17.904  0.00  0.00    +0.000 C 
ENDROOT
BRANCH   1   3
ATOM      3  C   UNL     1       2.322   8.255  18.316  0.00  0.00    +0.000 C 
ATOM      4  O   UNL     1       2.261   9.311  17.689  0.00  0.00    +0.000 OA
ATOM      5  N   UNL     1       1.727   8.029  19.542  0.00  0.00    +0.000 N 
ATOM      6  C   UNL     1       1.003   9.002  20.232  0.00  0.00    +0.000 A 
ATOM      7  C   UNL     1       0.118   9.865  19.590  0.00  0.00    +0.000 A 
ATOM      8  C   UNL     1      -0.527  10.849  20.340  0.00  0.00    +0.000 A 
ATOM      9  C   UNL     1      -0.245  10.954  21.695  0.00  0.00    +0.000 A 
ATOM     10 CL   UNL     1      -0.947  12.197  22.645  0.00  0.00    +0.000 Cl
ATOM     11  C   UNL     1       0.626  10.033  22.254  0.00  0.00    +0.000 A 
ATOM     12  N   UNL     1       1.225   9.033  21.560  0.00  0.00    +0.000 NA
ATOM     13  H   UNL     1       2.175   7.349  20.145  0.00  0.00    +0.000 HD
ENDBRANCH   1   3
BRANCH   1  14
ATOM     14  O   UNL     1       4.343   6.912  18.430  0.00  0.00    +0.000 OA
BRANCH  14  15
ATOM     15  C   UNL     1       5.128   5.889  17.973  0.00  0.00    +0.000 C 
ATOM     16  O   UNL     1       5.427   5.716  16.798  0.00  0.00    +0.000 OA
BRANCH  15  17
ATOM     17  C   UNL     1       5.685   5.057  19.119  0.00  0.00    +0.000 C 
BRANCH  17  18
ATOM     18  O   UNL     1       5.536   3.664  18.908  0.00  0.00    +0.000 OA
BRANCH  18  24
ATOM     19  C   UNL     1       1.352   2.744  21.473  0.00  0.00    +0.000 C 
ATOM     20  C   UNL     1       2.181   2.677  20.222  0.00  0.00    +0.000 A 
ATOM     21  C   UNL     1       1.669   2.089  19.065  0.00  0.00    +0.000 A 
ATOM     22  C   UNL     1       2.450   2.031  17.904  0.00  0.00    +0.000 A 
ATOM     23  C   UNL     1       3.739   2.564  17.904  0.00  0.00    +0.000 A 
ATOM     24  C   UNL     1       4.267   3.160  19.053  0.00  0.00    +0.000 A 
ATOM     25  C   UNL     1       3.484   3.207  20.212  0.00  0.00    +0.000 A 
ENDBRANCH  18  24
ENDBRANCH  17  18
ENDBRANCH  15  17
ENDBRANCH  14  15
ENDBRANCH   1  14
TORSDOF 6
ENDMDL
MODEL 8
REMARK VINA RESULT:      -6.9      2.337      3.693
REMARK  Name = 
REMARK  8 active torsions:
REMARK  status: ('A' for Active; 'I' for Inactive)
REMARK    1  A    between atoms: C_1  and  C_2
REMARK    2  A    between atoms: C_6  and  O_7
REMARK    3  A    between atoms: O_7  and  C_8
REMARK    4  A    between atoms: C_8  and  C_9
REMARK    5  A    between atoms: C_9  and  O_11
REMARK    6  A    between atoms: O_11  and  C_12
REMARK    7  A    between atoms: C_12  and  C_13
REMARK    8  A    between atoms: C_12  and  C_14
REMARK                            x       y       z     vdW  Elec       q    Type
REMARK                         _______ _______ _______ _____ _____    ______ ____
ROOT
ATOM      1  C   UNL     1       2.789   6.823  19.238  0.00  0.00    +0.000 C 
ATOM      2  C   UNL     1       3.273   7.343  17.891  0.00  0.00    +0.000 C 
ENDROOT
BRANCH   1   3
ATOM      3  C   UNL     1       1.818   7.849  19.842  0.00  0.00    +0.000 C 
ATOM      4  O   UNL     1       1.414   7.736  20.998  0.00  0.00    +0.000 OA
ATOM      5  N   UNL     1       1.480   8.877  18.984  0.00  0.00    +0.000 N 
ATOM      6  C   UNL     1       0.603   9.905  19.331  0.00  0.00    +0.000 A 
ATOM      7  C   UNL     1       0.627  10.515  20.583  0.00  0.00    +0.000 A 
ATOM      8  C   UNL     1      -0.320  11.497  20.874  0.00  0.00    +0.000 A 
ATOM      9  C   UNL     1      -1.274  11.814  19.918  0.00  0.00    +0.000 A 
ATOM     10 CL   UNL     1      -2.511  12.953  20.255  0.00  0.00    +0.000 Cl
ATOM     11  C   UNL     1      -1.205  11.177  18.689  0.00  0.00    +0.000 A 
ATOM     12  N   UNL     1      -0.261  10.259  18.360  0.00  0.00    +0.000 NA
ATOM     13  H   UNL     1       1.487   8.664  17.994  0.00  0.00    +0.000 HD
ENDBRANCH   1   3
BRANCH   1  14
ATOM     14  O   UNL     1       2.135   5.546  19.137  0.00  0.00    +0.000 OA
BRANCH  14  15
ATOM     15  C   UNL     1       2.600   4.599  20.008  0.00  0.00    +0.000 C 
ATOM     16  O   UNL     1       2.424   4.625  21.221  0.00  0.00    +0.000 OA
BRANCH  15  17
ATOM     17  C   UNL     1       3.265   3.443  19.275  0.00  0.00    +0.000 C 
BRANCH  17  18
ATOM     18  O   UNL     1       4.679   3.474  19.369  0.00  0.00    +0.000 OA
BRANCH  18  24
ATOM     19  C   UNL     1       7.894   7.109  18.194  0.00  0.00    +0.000 C 
ATOM     20  C   UNL     1       6.882   6.063  17.820  0.00  0.00    +0.000 A 
ATOM     21  C   UNL     1       6.544   5.851  16.483  0.00  0.00    +0.000 A 
ATOM     22  C   UNL     1       5.600   4.874  16.145  0.00  0.00    +0.000 A 
ATOM     23  C   UNL     1       4.998   4.111  17.146  0.00  0.00    +0.000 A 
ATOM     24  C   UNL     1       5.327   4.307  18.490  0.00  0.00    +0.000 A 
ATOM     25  C   UNL     1       6.266   5.291  18.821  0.00  0.00    +0.000 A 
ENDBRANCH  18  24
ENDBRANCH  17  18
ENDBRANCH  15  17
ENDBRANCH  14  15
ENDBRANCH   1  14
TORSDOF 6
ENDMDL
MODEL 9
REMARK VINA RESULT:      -6.9      2.457      3.659
REMARK  Name = 
REMARK  8 active torsions:
REMARK  status: ('A' for Active; 'I' for Inactive)
REMARK    1  A    between atoms: C_1  and  C_2
REMARK    2  A    between atoms: C_6  and  O_7
REMARK    3  A    between atoms: O_7  and  C_8
REMARK    4  A    between atoms: C_8  and  C_9
REMARK    5  A    between atoms: C_9  and  O_11
REMARK    6  A    between atoms: O_11  and  C_12
REMARK    7  A    between atoms: C_12  and  C_13
REMARK    8  A    between atoms: C_12  and  C_14
REMARK                            x       y       z     vdW  Elec       q    Type
REMARK                         _______ _______ _______ _____ _____    ______ ____
ROOT
ATOM      1  C   UNL     1       2.978   7.216  18.330  0.00  0.00    +0.000 C 
ATOM      2  C   UNL     1       4.068   7.354  17.276  0.00  0.00    +0.000 C 
ENDROOT
BRANCH   1   3
ATOM      3  C   UNL     1       2.097   8.473  18.294  0.00  0.00    +0.000 C 
ATOM      4  O   UNL     1       1.996   9.147  17.270  0.00  0.00    +0.000 OA
ATOM      5  N   UNL     1       1.444   8.738  19.482  0.00  0.00    +0.000 N 
ATOM      6  C   UNL     1       0.606   9.838  19.665  0.00  0.00    +0.000 A 
ATOM      7  C   UNL     1      -0.300  10.254  18.692  0.00  0.00    +0.000 A 
ATOM      8  C   UNL     1      -1.064  11.398  18.926  0.00  0.00    +0.000 A 
ATOM      9  C   UNL     1      -0.877  12.099  20.109  0.00  0.00    +0.000 A 
ATOM     10 CL   UNL     1      -1.730  13.556  20.410  0.00  0.00    +0.000 Cl
ATOM     11  C   UNL     1       0.024  11.595  21.033  0.00  0.00    +0.000 A 
ATOM     12  N   UNL     1       0.739  10.456  20.855  0.00  0.00    +0.000 NA
ATOM     13  H   UNL     1       1.902   8.428  20.330  0.00  0.00    +0.000 HD
ENDBRANCH   1   3
BRANCH   1  14
ATOM     14  O   UNL     1       2.159   6.050  18.132  0.00  0.00    +0.000 OA
BRANCH  14  15
ATOM     15  C   UNL     1       2.267   5.106  19.116  0.00  0.00    +0.000 C 
ATOM     16  O   UNL     1       1.933   5.279  20.282  0.00  0.00    +0.000 OA
BRANCH  15  17
ATOM     17  C   UNL     1       2.742   3.771  18.562  0.00  0.00    +0.000 C 
BRANCH  17  18
ATOM     18  O   UNL     1       4.099   3.501  18.867  0.00  0.00    +0.000 OA
BRANCH  18  24
ATOM     19  C   UNL     1       5.808   4.171  14.224  0.00  0.00    +0.000 C 
ATOM     20  C   UNL     1       5.936   4.306  15.715  0.00  0.00    +0.000 A 
ATOM     21  C   UNL     1       7.050   4.928  16.277  0.00  0.00    +0.000 A 
ATOM     22  C   UNL     1       7.159   5.049  17.667  0.00  0.00    +0.000 A 
ATOM     23  C   UNL     1       6.150   4.549  18.491  0.00  0.00    +0.000 A 
ATOM     24  C   UNL     1       5.025   3.926  17.946  0.00  0.00    +0.000 A 
ATOM     25  C   UNL     1       4.927   3.802  16.555  0.00  0.00    +0.000 A 
ENDBRANCH  18  24
ENDBRANCH  17  18
ENDBRANCH  15  17
ENDBRANCH  14  15
ENDBRANCH   1  14
TORSDOF 6
ENDMDL
