MODEL 1
REMARK VINA RESULT:      -7.7      0.000      0.000
REMARK  Name = 
REMARK  7 active torsions:
REMARK  status: ('A' for Active; 'I' for Inactive)
REMARK    1  A    between atoms: C_1  and  O_2
REMARK    2  A    between atoms: O_2  and  C_3
REMARK    3  A    between atoms: C_3  and  C_5
REMARK    4  A    between atoms: C_6  and  C_7
REMARK    5  A    between atoms: C_7  and  N_8
REMARK    6  A    between atoms: N_20  and  C_21
REMARK    7  A    between atoms: C_21  and  C_22
REMARK                            x       y       z     vdW  Elec       q    Type
REMARK                         _______ _______ _______ _____ _____    ______ ____
ROOT
ATOM      1  N   UNL     1       5.602   5.362  16.136  0.00  0.00    +0.000 N 
ATOM      2  C   UNL     1       4.912   6.577  16.245  0.00  0.00    +0.000 A 
ATOM      3  O   UNL     1       4.980   7.476  15.411  0.00  0.00    +0.000 OA
ATOM      4  C   UNL     1       4.104   6.656  17.409  0.00  0.00    +0.000 A 
ATOM      5  C   UNL     1       4.038   5.658  18.335  0.00  0.00    +0.000 A 
ATOM      6  N   UNL     1       3.175   5.949  19.347  0.00  0.00    +0.000 NA
ATOM      7  C   UNL     1       2.692   7.136  19.037  0.00  0.00    +0.000 A 
ATOM      8  C   UNL     1       1.719   7.948  19.687  0.00  0.00    +0.000 A 
ATOM      9  C   UNL     1       1.368   9.133  19.152  0.00  0.00    +0.000 A 
ATOM     10  C   UNL     1       1.969   9.617  17.920  0.00  0.00    +0.000 A 
ATOM     11  C   UNL     1       2.888   8.859  17.298  0.00  0.00    +0.000 A 
ATOM     12  N   UNL     1       3.243   7.627  17.848  0.00  0.00    +0.000 N 
ATOM     13  N   UNL     1       4.752   4.489  18.198  0.00  0.00    +0.000 N 
ATOM     14  C   UNL     1       5.549   4.304  17.065  0.00  0.00    +0.000 A 
ATOM     15  O   UNL     1       6.164   3.251  16.873  0.00  0.00    +0.000 OA
ENDROOT
BRANCH   1  16
ATOM     16  C   UNL     1       6.413   5.169  14.944  0.00  0.00    +0.000 C 
BRANCH  16  18
ATOM     17  C   UNL     1       6.195   3.641  12.956  0.00  0.00    +0.000 C 
ATOM     18  C   UNL     1       5.639   4.386  13.925  0.00  0.00    +0.000 C 
BRANCH  17  19
ATOM     19  C   UNL     1       5.335   2.874  12.029  0.00  0.00    +0.000 C 
ATOM     20  O   UNL     1       5.650   1.832  11.483  0.00  0.00    +0.000 OA
BRANCH  19  22
ATOM     21  C   UNL     1       3.474   3.217  10.674  0.00  0.00    +0.000 C 
ATOM     22  O   UNL     1       4.158   3.536  11.888  0.00  0.00    +0.000 OA
ENDBRANCH  19  22
ENDBRANCH  17  19
ENDBRANCH  16  18
ENDBRANCH   1  16
BRANCH  13  23
ATOM     23  C   UNL     1       4.692   3.448  19.222  0.00  0.00    +0.000 C 
BRANCH  23  24
ATOM     24  C   UNL     1       3.272   3.002  19.497  0.00  0.00    +0.000 A 
ATOM     25  C   UNL     1       2.434   2.611  18.443  0.00  0.00    +0.000 A 
ATOM     26  C   UNL     1       1.099   2.281  18.684  0.00  0.00    +0.000 A 
ATOM     27  C   UNL     1       0.589   2.336  19.979  0.00  0.00    +0.000 A 
ATOM     28  C   UNL     1       1.419   2.701  21.038  0.00  0.00    +0.000 A 
ATOM     29  C   UNL     1       2.754   3.033  20.799  0.00  0.00    +0.000 A 
ENDBRANCH  23  24
ENDBRANCH  13  23
TORSDOF 6
ENDMDL
MODEL 2
REMARK VINA RESULT:      -7.6      1.717      5.121
REMARK  Name = 
REMARK  7 active torsions:
REMARK  status: ('A' for Active; 'I' for Inactive)
REMARK    1  A    between atoms: C_1  and  O_2
REMARK    2  A    between atoms: O_2  and  C_3
REMARK    3  A    between atoms: C_3  and  C_5
REMARK    4  A    between atoms: C_6  and  C_7
REMARK    5  A    between atoms: C_7  and  N_8
REMARK    6  A    between atoms: N_20  and  C_21
REMARK    7  A    between atoms: C_21  and  C_22
REMARK                            x       y       z     vdW  Elec       q    Type
REMARK                         _______ _______ _______ _____ _____    ______ ____
ROOT
ATOM      1  N   UNL     1       5.424   6.025  18.141  0.00  0.00    +0.000 N 
ATOM      2  C   UNL     1       5.174   4.913  18.956  0.00  0.00    +0.000 A 
ATOM      3  O   UNL     1       6.051   4.159  19.367  0.00  0.00    +0.000 OA
ATOM      4  C   UNL     1       3.800   4.758  19.279  0.00  0.00    +0.000 A 
ATOM      5  C   UNL     1       2.829   5.593  18.814  0.00  0.00    +0.000 A 
ATOM      6  N   UNL     1       1.595   5.263  19.283  0.00  0.00    +0.000 NA
ATOM      7  C   UNL     1       1.807   4.217  20.059  0.00  0.00    +0.000 A 
ATOM      8  C   UNL     1       0.911   3.450  20.858  0.00  0.00    +0.000 A 
ATOM      9  C   UNL     1       1.380   2.425  21.596  0.00  0.00    +0.000 A 
ATOM     10  C   UNL     1       2.789   2.069  21.590  0.00  0.00    +0.000 A 
ATOM     11  C   UNL     1       3.643   2.786  20.840  0.00  0.00    +0.000 A 
ATOM     12  N   UNL     1       3.157   3.854  20.084  0.00  0.00    +0.000 N 
ATOM     13  N   UNL     1       3.119   6.661  17.996  0.00  0.00    +0.000 N 
ATOM     14  C   UNL     1       4.449   6.917  17.651  0.00  0.00    +0.000 A 
ATOM     15  O   UNL     1       4.762   7.894  16.965  0.00  0.00    +0.000 OA
ENDROOT
BRANCH   1  16
ATOM     16  C   UNL     1       6.812   6.296  17.803  0.00  0.00    +0.000 C 
BRANCH  16  18
ATOM     17  C   UNL     1       6.716   4.829  15.760  0.00  0.00    +0.000 C 
ATOM     18  C   UNL     1       7.051   5.986  16.354  0.00  0.00    +0.000 C 
BRANCH  17  19
ATOM     19  C   UNL     1       6.958   4.646  14.313  0.00  0.00    +0.000 C 
ATOM     20  O   UNL     1       7.613   5.398  13.613  0.00  0.00    +0.000 OA
BRANCH  19  22
ATOM     21  C   UNL     1       5.989   3.525  12.518  0.00  0.00    +0.000 C 
ATOM     22  O   UNL     1       6.318   3.519  13.908  0.00  0.00    +0.000 OA
ENDBRANCH  19  22
ENDBRANCH  17  19
ENDBRANCH  16  18
ENDBRANCH   1  16
BRANCH  13  23
ATOM     23  C   UNL     1       2.057   7.522  17.481  0.00  0.00    +0.000 C 
BRANCH  23  24
ATOM     24  C   UNL     1       1.783   8.696  18.395  0.00  0.00    +0.000 A 
ATOM     25  C   UNL     1       1.364   8.485  19.717  0.00  0.00    +0.000 A 
ATOM     26  C   UNL     1       1.028   9.565  20.536  0.00  0.00    +0.000 A 
ATOM     27  C   UNL     1       1.112  10.866  20.044  0.00  0.00    +0.000 A 
ATOM     28  C   UNL     1       1.549  11.089  18.740  0.00  0.00    +0.000 A 
ATOM     29  C   UNL     1       1.883  10.011  17.919  0.00  0.00    +0.000 A 
ENDBRANCH  23  24
ENDBRANCH  13  23
TORSDOF 6
ENDMDL
MODEL 3
REMARK VINA RESULT:      -7.3      3.445      7.306
REMARK  Name = 
REMARK  7 active torsions:
REMARK  status: ('A' for Active; 'I' for Inactive)
REMARK    1  A    between atoms: C_1  and  O_2
REMARK    2  A    between atoms: O_2  and  C_3
REMARK    3  A    between atoms: C_3  and  C_5
REMARK    4  A    between atoms: C_6  and  C_7
REMARK    5  A    between atoms: C_7  and  N_8
REMARK    6  A    between atoms: N_20  and  C_21
REMARK    7  A    between atoms: C_21  and  C_22
REMARK                            x       y       z     vdW  Elec       q    Type
REMARK                         _______ _______ _______ _____ _____    ______ ____
ROOT
ATOM      1  N   UNL     1       1.895   8.495  19.205  0.00  0.00    +0.000 N 
ATOM      2  C   UNL     1       1.775   7.428  20.106  0.00  0.00    +0.000 A 
ATOM      3  O   UNL     1       1.146   7.493  21.159  0.00  0.00    +0.000 OA
ATOM      4  C   UNL     1       2.438   6.252  19.668  0.00  0.00    +0.000 A 
ATOM      5  C   UNL     1       3.142   6.187  18.503  0.00  0.00    +0.000 A 
ATOM      6  N   UNL     1       3.662   4.949  18.281  0.00  0.00    +0.000 NA
ATOM      7  C   UNL     1       3.264   4.235  19.316  0.00  0.00    +0.000 A 
ATOM      8  C   UNL     1       3.458   2.859  19.633  0.00  0.00    +0.000 A 
ATOM      9  C   UNL     1       2.923   2.348  20.758  0.00  0.00    +0.000 A 
ATOM     10  C   UNL     1       2.153   3.172  21.674  0.00  0.00    +0.000 A 
ATOM     11  C   UNL     1       1.963   4.471  21.385  0.00  0.00    +0.000 A 
ATOM     12  N   UNL     1       2.510   4.997  20.214  0.00  0.00    +0.000 N 
ATOM     13  N   UNL     1       3.252   7.269  17.658  0.00  0.00    +0.000 N 
ATOM     14  C   UNL     1       2.602   8.462  17.987  0.00  0.00    +0.000 A 
ATOM     15  O   UNL     1       2.628   9.440  17.235  0.00  0.00    +0.000 OA
ENDROOT
BRANCH   1  16
ATOM     16  C   UNL     1       1.200   9.727  19.545  0.00  0.00    +0.000 C 
BRANCH  16  18
ATOM     17  C   UNL     1      -0.910  10.865  18.780  0.00  0.00    +0.000 C 
ATOM     18  C   UNL     1      -0.110   9.787  18.816  0.00  0.00    +0.000 C 
BRANCH  17  19
ATOM     19  C   UNL     1      -2.161  10.829  17.992  0.00  0.00    +0.000 C 
ATOM     20  O   UNL     1      -3.068  11.638  18.083  0.00  0.00    +0.000 OA
BRANCH  19  22
ATOM     21  C   UNL     1      -2.644  10.003  15.872  0.00  0.00    +0.000 C 
ATOM     22  O   UNL     1      -2.125   9.744  17.177  0.00  0.00    +0.000 OA
ENDBRANCH  19  22
ENDBRANCH  17  19
ENDBRANCH  16  18
ENDBRANCH   1  16
BRANCH  13  23
ATOM     23  C   UNL     1       4.041   7.186  16.431  0.00  0.00    +0.000 C 
BRANCH  23  24
ATOM     24  C   UNL     1       5.315   6.393  16.627  0.00  0.00    +0.000 A 
ATOM     25  C   UNL     1       5.524   5.197  15.924  0.00  0.00    +0.000 A 
ATOM     26  C   UNL     1       6.658   4.421  16.165  0.00  0.00    +0.000 A 
ATOM     27  C   UNL     1       7.597   4.832  17.109  0.00  0.00    +0.000 A 
ATOM     28  C   UNL     1       7.412   6.030  17.797  0.00  0.00    +0.000 A 
ATOM     29  C   UNL     1       6.277   6.807  17.558  0.00  0.00    +0.000 A 
ENDBRANCH  23  24
ENDBRANCH  13  23
TORSDOF 6
ENDMDL
MODEL 4
REMARK VINA RESULT:      -7.2      3.449      7.289
REMARK  Name = 
REMARK  7 active torsions:
REMARK  status: ('A' for Active; 'I' for Inactive)
REMARK    1  A    between atoms: C_1  and  O_2
REMARK    2  A    between atoms: O_2  and  C_3
REMARK    3  A    between atoms: C_3  and  C_5
REMARK    4  A    between atoms: C_6  and  C_7
REMARK    5  A    between atoms: C_7  and  N_8
REMARK    6  A    between atoms: N_20  and  C_21
REMARK    7  A    between atoms: C_21  and  C_22
REMARK                            x       y       z     vdW  Elec       q    Type
REMARK                         _______ _______ _______ _____ _____    ______ ____
ROOT
ATOM      1  N   UNL     1       1.807   8.488  19.242  0.00  0.00    +0.000 N 
ATOM      2  C   UNL     1       1.715   7.416  20.140  0.00  0.00    +0.000 A 
ATOM      3  O   UNL     1       1.081   7.460  21.191  0.00  0.00    +0.000 OA
ATOM      4  C   UNL     1       2.412   6.260  19.701  0.00  0.00    +0.000 A 
ATOM      5  C   UNL     1       3.120   6.218  18.537  0.00  0.00    +0.000 A 
ATOM      6  N   UNL     1       3.676   4.996  18.314  0.00  0.00    +0.000 NA
ATOM      7  C   UNL     1       3.296   4.268  19.346  0.00  0.00    +0.000 A 
ATOM      8  C   UNL     1       3.528   2.898  19.659  0.00  0.00    +0.000 A 
ATOM      9  C   UNL     1       3.004   2.368  20.782  0.00  0.00    +0.000 A 
ATOM     10  C   UNL     1       2.209   3.168  21.698  0.00  0.00    +0.000 A 
ATOM     11  C   UNL     1       1.983   4.462  21.412  0.00  0.00    +0.000 A 
ATOM     12  N   UNL     1       2.518   5.007  20.244  0.00  0.00    +0.000 N 
ATOM     13  N   UNL     1       3.202   7.305  17.696  0.00  0.00    +0.000 N 
ATOM     14  C   UNL     1       2.518   8.478  18.027  0.00  0.00    +0.000 A 
ATOM     15  O   UNL     1       2.518   9.459  17.277  0.00  0.00    +0.000 OA
ENDROOT
BRANCH   1  16
ATOM     16  C   UNL     1       1.077   9.699  19.584  0.00  0.00    +0.000 C 
BRANCH  16  18
ATOM     17  C   UNL     1      -0.767  10.556  18.101  0.00  0.00    +0.000 C 
ATOM     18  C   UNL     1      -0.294   9.652  18.975  0.00  0.00    +0.000 C 
BRANCH  17  19
ATOM     19  C   UNL     1      -2.121  10.389  17.529  0.00  0.00    +0.000 C 
ATOM     20  O   UNL     1      -2.926   9.541  17.873  0.00  0.00    +0.000 OA
BRANCH  19  22
ATOM     21  C   UNL     1      -3.102  10.863  15.473  0.00  0.00    +0.000 C 
ATOM     22  O   UNL     1      -2.296  11.322  16.559  0.00  0.00    +0.000 OA
ENDBRANCH  19  22
ENDBRANCH  17  19
ENDBRANCH  16  18
ENDBRANCH   1  16
BRANCH  13  23
ATOM     23  C   UNL     1       3.997   7.247  16.471  0.00  0.00    +0.000 C 
BRANCH  23  24
ATOM     24  C   UNL     1       5.217   6.367  16.625  0.00  0.00    +0.000 A 
ATOM     25  C   UNL     1       6.253   6.735  17.497  0.00  0.00    +0.000 A 
ATOM     26  C   UNL     1       7.417   5.969  17.577  0.00  0.00    +0.000 A 
ATOM     27  C   UNL     1       7.557   4.826  16.792  0.00  0.00    +0.000 A 
ATOM     28  C   UNL     1       6.524   4.438  15.940  0.00  0.00    +0.000 A 
ATOM     29  C   UNL     1       5.361   5.204  15.857  0.00  0.00    +0.000 A 
ENDBRANCH  23  24
ENDBRANCH  13  23
TORSDOF 6
ENDMDL
MODEL 5
REMARK VINA RESULT:      -7.2      2.017      5.142
REMARK  Name = 
REMARK  7 active torsions:
REMARK  status: ('A' for Active; 'I' for Inactive)
REMARK    1  A    between atoms: C_1  and  O_2
REMARK    2  A    between atoms: O_2  and  C_3
REMARK    3  A    between atoms: C_3  and  C_5
REMARK    4  A    between atoms: C_6  and  C_7
REMARK    5  A    between atoms: C_7  and  N_8
REMARK    6  A    between atoms: N_20  and  C_21
REMARK    7  A    between atoms: C_21  and  C_22
REMARK                            x       y       z     vdW  Elec       q    Type
REMARK                         _______ _______ _______ _____ _____    ______ ____
ROOT
ATOM      1  N   UNL     1       5.410   6.092  18.189  0.00  0.00    +0.000 N 
ATOM      2  C   UNL     1       5.169   4.972  18.995  0.00  0.00    +0.000 A 
ATOM      3  O   UNL     1       6.055   4.228  19.410  0.00  0.00    +0.000 OA
ATOM      4  C   UNL     1       3.796   4.794  19.306  0.00  0.00    +0.000 A 
ATOM      5  C   UNL     1       2.816   5.617  18.837  0.00  0.00    +0.000 A 
ATOM      6  N   UNL     1       1.583   5.266  19.294  0.00  0.00    +0.000 NA
ATOM      7  C   UNL     1       1.804   4.219  20.065  0.00  0.00    +0.000 A 
ATOM      8  C   UNL     1       0.913   3.434  20.853  0.00  0.00    +0.000 A 
ATOM      9  C   UNL     1       1.391   2.412  21.588  0.00  0.00    +0.000 A 
ATOM     10  C   UNL     1       2.805   2.077  21.593  0.00  0.00    +0.000 A 
ATOM     11  C   UNL     1       3.655   2.812  20.854  0.00  0.00    +0.000 A 
ATOM     12  N   UNL     1       3.159   3.876  20.100  0.00  0.00    +0.000 N 
ATOM     13  N   UNL     1       3.097   6.694  18.027  0.00  0.00    +0.000 N 
ATOM     14  C   UNL     1       4.426   6.972  17.696  0.00  0.00    +0.000 A 
ATOM     15  O   UNL     1       4.730   7.958  17.017  0.00  0.00    +0.000 OA
ENDROOT
BRANCH   1  16
ATOM     16  C   UNL     1       6.797   6.386  17.864  0.00  0.00    +0.000 C 
BRANCH  16  18
ATOM     17  C   UNL     1       6.597   4.875  15.861  0.00  0.00    +0.000 C 
ATOM     18  C   UNL     1       7.082   5.982  16.448  0.00  0.00    +0.000 C 
BRANCH  17  19
ATOM     19  C   UNL     1       6.908   4.595  14.443  0.00  0.00    +0.000 C 
ATOM     20  O   UNL     1       6.389   3.721  13.772  0.00  0.00    +0.000 OA
BRANCH  19  22
ATOM     21  C   UNL     1       8.061   5.466  12.618  0.00  0.00    +0.000 C 
ATOM     22  O   UNL     1       7.869   5.463  14.034  0.00  0.00    +0.000 OA
ENDBRANCH  19  22
ENDBRANCH  17  19
ENDBRANCH  16  18
ENDBRANCH   1  16
BRANCH  13  23
ATOM     23  C   UNL     1       2.026   7.542  17.508  0.00  0.00    +0.000 C 
BRANCH  23  24
ATOM     24  C   UNL     1       1.680   8.668  18.458  0.00  0.00    +0.000 A 
ATOM     25  C   UNL     1       1.705  10.000  18.021  0.00  0.00    +0.000 A 
ATOM     26  C   UNL     1       1.470  11.045  18.916  0.00  0.00    +0.000 A 
ATOM     27  C   UNL     1       1.205  10.770  20.256  0.00  0.00    +0.000 A 
ATOM     28  C   UNL     1       1.154   9.449  20.697  0.00  0.00    +0.000 A 
ATOM     29  C   UNL     1       1.391   8.403  19.803  0.00  0.00    +0.000 A 
ENDBRANCH  23  24
ENDBRANCH  13  23
TORSDOF 6
ENDMDL
MODEL 6
REMARK VINA RESULT:      -7.1      3.330      6.467
REMARK  Name = 
REMARK  7 active torsions:
REMARK  status: ('A' for Active; 'I' for Inactive)
REMARK    1  A    between atoms: C_1  and  O_2
REMARK    2  A    between atoms: O_2  and  C_3
REMARK    3  A    between atoms: C_3  and  C_5
REMARK    4  A    between atoms: C_6  and  C_7
REMARK    5  A    between atoms: C_7  and  N_8
REMARK    6  A    between atoms: N_20  and  C_21
REMARK    7  A    between atoms: C_21  and  C_22
REMARK                            x       y       z     vdW  Elec       q    Type
REMARK                         _______ _______ _______ _____ _____    ______ ____
ROOT
ATOM      1  N   UNL     1       1.752   8.682  19.085  0.00  0.00    +0.000 N 
ATOM      2  C   UNL     1       2.580   8.408  17.989  0.00  0.00    +0.000 A 
ATOM      3  O   UNL     1       2.737   9.176  17.044  0.00  0.00    +0.000 OA
ATOM      4  C   UNL     1       3.241   7.155  18.090  0.00  0.00    +0.000 A 
ATOM      5  C   UNL     1       3.057   6.302  19.137  0.00  0.00    +0.000 A 
ATOM      6  N   UNL     1       3.820   5.180  19.029  0.00  0.00    +0.000 NA
ATOM      7  C   UNL     1       4.493   5.346  17.906  0.00  0.00    +0.000 A 
ATOM      8  C   UNL     1       5.479   4.531  17.278  0.00  0.00    +0.000 A 
ATOM      9  C   UNL     1       6.049   4.936  16.128  0.00  0.00    +0.000 A 
ATOM     10  C   UNL     1       5.676   6.190  15.496  0.00  0.00    +0.000 A 
ATOM     11  C   UNL     1       4.747   6.967  16.080  0.00  0.00    +0.000 A 
ATOM     12  N   UNL     1       4.164   6.551  17.277  0.00  0.00    +0.000 N 
ATOM     13  N   UNL     1       2.215   6.604  20.183  0.00  0.00    +0.000 N 
ATOM     14  C   UNL     1       1.547   7.832  20.189  0.00  0.00    +0.000 A 
ATOM     15  O   UNL     1       0.824   8.169  21.132  0.00  0.00    +0.000 OA
ENDROOT
BRANCH   1  16
ATOM     16  C   UNL     1       1.076   9.970  19.094  0.00  0.00    +0.000 C 
BRANCH  16  18
ATOM     17  C   UNL     1      -1.382  10.188  18.598  0.00  0.00    +0.000 C 
ATOM     18  C   UNL     1      -0.128   9.916  18.200  0.00  0.00    +0.000 C 
BRANCH  17  19
ATOM     19  C   UNL     1      -2.491  10.146  17.619  0.00  0.00    +0.000 C 
ATOM     20  O   UNL     1      -3.478   9.438  17.711  0.00  0.00    +0.000 OA
BRANCH  19  22
ATOM     21  C   UNL     1      -3.038  10.830  15.463  0.00  0.00    +0.000 C 
ATOM     22  O   UNL     1      -2.208  11.011  16.612  0.00  0.00    +0.000 OA
ENDBRANCH  19  22
ENDBRANCH  17  19
ENDBRANCH  16  18
ENDBRANCH   1  16
BRANCH  13  23
ATOM     23  C   UNL     1       2.007   5.658  21.277  0.00  0.00    +0.000 C 
BRANCH  23  24
ATOM     24  C   UNL     1       1.721   4.261  20.773  0.00  0.00    +0.000 A 
ATOM     25  C   UNL     1       2.438   3.164  21.274  0.00  0.00    +0.000 A 
ATOM     26  C   UNL     1       2.235   1.886  20.750  0.00  0.00    +0.000 A 
ATOM     27  C   UNL     1       1.313   1.689  19.725  0.00  0.00    +0.000 A 
ATOM     28  C   UNL     1       0.578   2.768  19.236  0.00  0.00    +0.000 A 
ATOM     29  C   UNL     1       0.780   4.047  19.757  0.00  0.00    +0.000 A 
ENDBRANCH  23  24
ENDBRANCH  13  23
TORSDOF 6
ENDMDL
MODEL 7
REMARK VINA RESULT:      -7.0      3.248      6.509
REMARK  Name = 
REMARK  7 active torsions:
REMARK  status: ('A' for Active; 'I' for Inactive)
REMARK    1  A    between atoms: C_1  and  O_2
REMARK    2  A    between atoms: O_2  and  C_3
REMARK    3  A    between atoms: C_3  and  C_5
REMARK    4  A    between atoms: C_6  and  C_7
REMARK    5  A    between atoms: C_7  and  N_8
REMARK    6  A    between atoms: N_20  and  C_21
REMARK    7  A    between atoms: C_21  and  C_22
REMARK                            x       y       z     vdW  Elec       q    Type
REMARK                         _______ _______ _______ _____ _____    ______ ____
ROOT
ATOM      1  N   UNL     1       5.495   5.930  17.847  0.00  0.00    +0.000 N 
ATOM      2  C   UNL     1       5.289   4.842  18.705  0.00  0.00    +0.000 A 
ATOM      3  O   UNL     1       6.184   4.089  19.078  0.00  0.00    +0.000 OA
ATOM      4  C   UNL     1       3.938   4.709  19.120  0.00  0.00    +0.000 A 
ATOM      5  C   UNL     1       2.946   5.542  18.697  0.00  0.00    +0.000 A 
ATOM      6  N   UNL     1       1.742   5.237  19.254  0.00  0.00    +0.000 NA
ATOM      7  C   UNL     1       1.994   4.209  20.041  0.00  0.00    +0.000 A 
ATOM      8  C   UNL     1       1.146   3.472  20.916  0.00  0.00    +0.000 A 
ATOM      9  C   UNL     1       1.652   2.461  21.647  0.00  0.00    +0.000 A 
ATOM     10  C   UNL     1       3.055   2.090  21.560  0.00  0.00    +0.000 A 
ATOM     11  C   UNL     1       3.865   2.779  20.737  0.00  0.00    +0.000 A 
ATOM     12  N   UNL     1       3.340   3.833  19.988  0.00  0.00    +0.000 N 
ATOM     13  N   UNL     1       3.191   6.587  17.835  0.00  0.00    +0.000 N 
ATOM     14  C   UNL     1       4.499   6.819  17.398  0.00  0.00    +0.000 A 
ATOM     15  O   UNL     1       4.775   7.776  16.668  0.00  0.00    +0.000 OA
ENDROOT
BRANCH   1  16
ATOM     16  C   UNL     1       6.861   6.178  17.413  0.00  0.00    +0.000 C 
BRANCH  16  18
ATOM     17  C   UNL     1       8.103   8.363  17.548  0.00  0.00    +0.000 C 
ATOM     18  C   UNL     1       7.414   7.371  18.135  0.00  0.00    +0.000 C 
BRANCH  17  19
ATOM     19  C   UNL     1       8.565   9.516  18.351  0.00  0.00    +0.000 C 
ATOM     20  O   UNL     1       9.180   9.436  19.400  0.00  0.00    +0.000 OA
BRANCH  19  22
ATOM     21  C   UNL     1       9.040  11.764  17.984  0.00  0.00    +0.000 C 
ATOM     22  O   UNL     1       8.174  10.658  17.729  0.00  0.00    +0.000 OA
ENDBRANCH  19  22
ENDBRANCH  17  19
ENDBRANCH  16  18
ENDBRANCH   1  16
BRANCH  13  23
ATOM     23  C   UNL     1       2.106   7.446  17.367  0.00  0.00    +0.000 C 
BRANCH  23  24
ATOM     24  C   UNL     1       1.830   8.585  18.324  0.00  0.00    +0.000 A 
ATOM     25  C   UNL     1       1.468   8.325  19.654  0.00  0.00    +0.000 A 
ATOM     26  C   UNL     1       1.131   9.371  20.514  0.00  0.00    +0.000 A 
ATOM     27  C   UNL     1       1.155  10.687  20.057  0.00  0.00    +0.000 A 
ATOM     28  C   UNL     1       1.536  10.959  18.744  0.00  0.00    +0.000 A 
ATOM     29  C   UNL     1       1.872   9.914  17.882  0.00  0.00    +0.000 A 
ENDBRANCH  23  24
ENDBRANCH  13  23
TORSDOF 6
ENDMDL
MODEL 8
REMARK VINA RESULT:      -7.0      2.376      3.823
REMARK  Name = 
REMARK  7 active torsions:
REMARK  status: ('A' for Active; 'I' for Inactive)
REMARK    1  A    between atoms: C_1  and  O_2
REMARK    2  A    between atoms: O_2  and  C_3
REMARK    3  A    between atoms: C_3  and  C_5
REMARK    4  A    between atoms: C_6  and  C_7
REMARK    5  A    between atoms: C_7  and  N_8
REMARK    6  A    between atoms: N_20  and  C_21
REMARK    7  A    between atoms: C_21  and  C_22
REMARK                            x       y       z     vdW  Elec       q    Type
REMARK                         _______ _______ _______ _____ _____    ______ ____
ROOT
ATOM      1  N   UNL     1       3.001   7.492  17.958  0.00  0.00    +0.000 N 
ATOM      2  C   UNL     1       2.342   8.691  18.263  0.00  0.00    +0.000 A 
ATOM      3  O   UNL     1       2.311   9.662  17.511  0.00  0.00    +0.000 OA
ATOM      4  C   UNL     1       1.691   8.663  19.524  0.00  0.00    +0.000 A 
ATOM      5  C   UNL     1       1.735   7.587  20.358  0.00  0.00    +0.000 A 
ATOM      6  N   UNL     1       1.012   7.783  21.495  0.00  0.00    +0.000 NA
ATOM      7  C   UNL     1       0.504   8.993  21.357  0.00  0.00    +0.000 A 
ATOM      8  C   UNL     1      -0.369   9.741  22.197  0.00  0.00    +0.000 A 
ATOM      9  C   UNL     1      -0.775  10.969  21.820  0.00  0.00    +0.000 A 
ATOM     10  C   UNL     1      -0.332  11.562  20.569  0.00  0.00    +0.000 A 
ATOM     11  C   UNL     1       0.492  10.865  19.768  0.00  0.00    +0.000 A 
ATOM     12  N   UNL     1       0.903   9.589  20.156  0.00  0.00    +0.000 N 
ATOM     13  N   UNL     1       2.414   6.436  20.027  0.00  0.00    +0.000 N 
ATOM     14  C   UNL     1       3.057   6.356  18.788  0.00  0.00    +0.000 A 
ATOM     15  O   UNL     1       3.633   5.325  18.425  0.00  0.00    +0.000 OA
ENDROOT
BRANCH   1  16
ATOM     16  C   UNL     1       3.650   7.409  16.659  0.00  0.00    +0.000 C 
BRANCH  16  18
ATOM     17  C   UNL     1       5.631   5.998  16.011  0.00  0.00    +0.000 C 
ATOM     18  C   UNL     1       5.050   6.894  16.825  0.00  0.00    +0.000 C 
BRANCH  17  19
ATOM     19  C   UNL     1       7.034   5.592  16.243  0.00  0.00    +0.000 C 
ATOM     20  O   UNL     1       7.559   5.484  17.337  0.00  0.00    +0.000 OA
BRANCH  19  22
ATOM     21  C   UNL     1       6.810   4.632  14.134  0.00  0.00    +0.000 C 
ATOM     22  O   UNL     1       7.625   5.380  15.039  0.00  0.00    +0.000 OA
ENDBRANCH  19  22
ENDBRANCH  17  19
ENDBRANCH  16  18
ENDBRANCH   1  16
BRANCH  13  23
ATOM     23  C   UNL     1       2.477   5.307  20.953  0.00  0.00    +0.000 C 
BRANCH  23  24
ATOM     24  C   UNL     1       2.112   4.001  20.282  0.00  0.00    +0.000 A 
ATOM     25  C   UNL     1       3.070   2.987  20.133  0.00  0.00    +0.000 A 
ATOM     26  C   UNL     1       2.761   1.816  19.440  0.00  0.00    +0.000 A 
ATOM     27  C   UNL     1       1.492   1.644  18.891  0.00  0.00    +0.000 A 
ATOM     28  C   UNL     1       0.525   2.634  19.052  0.00  0.00    +0.000 A 
ATOM     29  C   UNL     1       0.833   3.807  19.744  0.00  0.00    +0.000 A 
ENDBRANCH  23  24
ENDBRANCH  13  23
TORSDOF 6
ENDMDL
MODEL 9
REMARK VINA RESULT:      -6.9      6.917     12.013
REMARK  Name = 
REMARK  7 active torsions:
REMARK  status: ('A' for Active; 'I' for Inactive)
REMARK    1  A    between atoms: C_1  and  O_2
REMARK    2  A    between atoms: O_2  and  C_3
REMARK    3  A    between atoms: C_3  and  C_5
REMARK    4  A    between atoms: C_6  and  C_7
REMARK    5  A    between atoms: C_7  and  N_8
REMARK    6  A    between atoms: N_20  and  C_21
REMARK    7  A    between atoms: C_21  and  C_22
REMARK                            x       y       z     vdW  Elec       q    Type
REMARK                         _______ _______ _______ _____ _____    ______ ____
ROOT
ATOM      1  N   UNL     1      -0.855  12.267  22.107  0.00  0.00    +0.000 N 
ATOM      2  C   UNL     1      -0.201  11.028  22.120  0.00  0.00    +0.000 A 
ATOM      3  O   UNL     1      -0.113  10.314  23.116  0.00  0.00    +0.000 OA
ATOM      4  C   UNL     1       0.334  10.667  20.856  0.00  0.00    +0.000 A 
ATOM      5  C   UNL     1       0.241  11.466  19.756  0.00  0.00    +0.000 A 
ATOM      6  N   UNL     1       0.800  10.896  18.653  0.00  0.00    +0.000 NA
ATOM      7  C   UNL     1       1.233   9.723  19.074  0.00  0.00    +0.000 A 
ATOM      8  C   UNL     1       1.870   8.657  18.376  0.00  0.00    +0.000 A 
ATOM      9  C   UNL     1       2.201   7.528  19.032  0.00  0.00    +0.000 A 
ATOM     10  C   UNL     1       1.931   7.370  20.451  0.00  0.00    +0.000 A 
ATOM     11  C   UNL     1       1.330   8.369  21.120  0.00  0.00    +0.000 A 
ATOM     12  N   UNL     1       0.979   9.534  20.436  0.00  0.00    +0.000 N 
ATOM     13  N   UNL     1      -0.392  12.688  19.795  0.00  0.00    +0.000 N 
ATOM     14  C   UNL     1      -0.981  13.114  20.989  0.00  0.00    +0.000 A 
ATOM     15  O   UNL     1      -1.606  14.177  21.058  0.00  0.00    +0.000 OA
ENDROOT
BRANCH   1  16
ATOM     16  C   UNL     1      -1.483  12.694  23.348  0.00  0.00    +0.000 C 
BRANCH  16  18
ATOM     17  C   UNL     1      -3.903  13.159  23.860  0.00  0.00    +0.000 C 
ATOM     18  C   UNL     1      -2.951  12.392  23.303  0.00  0.00    +0.000 C 
BRANCH  17  19
ATOM     19  C   UNL     1      -5.327  12.788  23.717  0.00  0.00    +0.000 C 
ATOM     20  O   UNL     1      -5.910  11.972  24.409  0.00  0.00    +0.000 OA
BRANCH  19  22
ATOM     21  C   UNL     1      -6.297  12.671  21.605  0.00  0.00    +0.000 C 
ATOM     22  O   UNL     1      -5.854  13.495  22.685  0.00  0.00    +0.000 OA
ENDBRANCH  19  22
ENDBRANCH  17  19
ENDBRANCH  16  18
ENDBRANCH   1  16
BRANCH  13  23
ATOM     23  C   UNL     1      -0.448  13.543  18.611  0.00  0.00    +0.000 C 
BRANCH  23  24
ATOM     24  C   UNL     1       0.638  14.597  18.619  0.00  0.00    +0.000 A 
ATOM     25  C   UNL     1       0.313  15.952  18.782  0.00  0.00    +0.000 A 
ATOM     26  C   UNL     1       1.302  16.933  18.704  0.00  0.00    +0.000 A 
ATOM     27  C   UNL     1       2.627  16.571  18.466  0.00  0.00    +0.000 A 
ATOM     28  C   UNL     1       2.965  15.226  18.326  0.00  0.00    +0.000 A 
ATOM     29  C   UNL     1       1.976  14.244  18.401  0.00  0.00    +0.000 A 
ENDBRANCH  23  24
ENDBRANCH  13  23
TORSDOF 6
ENDMDL
