MODEL 1
REMARK VINA RESULT:      -7.4      0.000      0.000
REMARK  Name = 
REMARK  9 active torsions:
REMARK  status: ('A' for Active; 'I' for Inactive)
REMARK    1  A    between atoms: C_1  and  C_2
REMARK    2  A    between atoms: C_2  and  O_3
REMARK    3  A    between atoms: O_3  and  C_4
REMARK    4  A    between atoms: C_4  and  C_6
REMARK    5  A    between atoms: N_7  and  N_8
REMARK    6  A    between atoms: N_8  and  C_9
REMARK    7  A    between atoms: N_19  and  C_20
REMARK    8  A    between atoms: C_25  and  O_26
REMARK    9  A    between atoms: O_26  and  C_27
REMARK                            x       y       z     vdW  Elec       q    Type
REMARK                         _______ _______ _______ _____ _____    ______ ____
ROOT
ATOM      1  C   UNL     1       3.458   6.184  18.861  0.00  0.00    +0.000 C 
ATOM      2  N   UNL     1       4.584   6.281  18.190  0.00  0.00    +0.000 NA
ATOM      3  N   UNL     1       2.687   7.333  19.066  0.00  0.00    +0.000 N 
ATOM      4  C   UNL     1       1.591   7.345  20.051  0.00  0.00    +0.000 C 
ATOM      5  C   UNL     1       1.204   8.790  20.408  0.00  0.00    +0.000 C 
ATOM      6  N   UNL     1       0.797   9.486  19.171  0.00  0.00    +0.000 N 
ATOM      7  C   UNL     1       1.917   9.585  18.212  0.00  0.00    +0.000 C 
ATOM      8  C   UNL     1       2.402   8.154  17.858  0.00  0.00    +0.000 C 
ENDROOT
BRANCH   6   9
ATOM      9  C   UNL     1      -0.145  10.509  19.251  0.00  0.00    +0.000 A 
ATOM     10  C   UNL     1      -0.088  11.439  20.314  0.00  0.00    +0.000 A 
ATOM     11  C   UNL     1      -1.086  12.391  20.541  0.00  0.00    +0.000 A 
ATOM     12  C   UNL     1      -2.179  12.456  19.694  0.00  0.00    +0.000 A 
ATOM     13  C   UNL     1      -2.240  11.601  18.598  0.00  0.00    +0.000 A 
ATOM     14  C   UNL     1      -1.240  10.640  18.364  0.00  0.00    +0.000 A 
BRANCH  14  15
ATOM     15  O   UNL     1      -1.450   9.946  17.198  0.00  0.00    +0.000 OA
ATOM     16  C   UNL     1      -2.794   9.806  16.767  0.00  0.00    +0.000 C 
ENDBRANCH  14  15
ENDBRANCH   6   9
BRANCH   1  17
ATOM     17  C   UNL     1       2.952   4.772  19.318  0.00  0.00    +0.000 C 
ATOM     18  O   UNL     1       3.277   4.221  20.355  0.00  0.00    +0.000 OA
BRANCH  17  19
ATOM     19  O   UNL     1       2.272   4.226  18.276  0.00  0.00    +0.000 OA
BRANCH  19  21
ATOM     20  C   UNL     1       0.846   2.312  18.802  0.00  0.00    +0.000 C 
ATOM     21  C   UNL     1       2.179   2.801  18.274  0.00  0.00    +0.000 C 
ENDBRANCH  19  21
ENDBRANCH  17  19
ENDBRANCH   1  17
BRANCH   2  22
ATOM     22  N   UNL     1       5.304   5.150  18.007  0.00  0.00    +0.000 N 
ATOM     23  H   UNL     1       5.786   4.710  18.796  0.00  0.00    +0.000 HD
BRANCH  22  24
ATOM     24  C   UNL     1       5.733   4.791  16.718  0.00  0.00    +0.000 A 
ATOM     25  C   UNL     1       6.946   5.241  16.186  0.00  0.00    +0.000 A 
ATOM     26  C   UNL     1       7.295   4.966  14.860  0.00  0.00    +0.000 A 
ATOM     27  C   UNL     1       6.423   4.229  14.063  0.00  0.00    +0.000 A 
ATOM     28 BR   UNL     1       6.863   3.890  12.257  0.00  0.00    +0.000 Br
ATOM     29  C   UNL     1       5.218   3.756  14.579  0.00  0.00    +0.000 A 
ATOM     30  C   UNL     1       4.879   4.036  15.905  0.00  0.00    +0.000 A 
ENDBRANCH  22  24
ENDBRANCH   2  22
TORSDOF 7
ENDMDL
MODEL 2
REMARK VINA RESULT:      -7.2      1.100      1.844
REMARK  Name = 
REMARK  9 active torsions:
REMARK  status: ('A' for Active; 'I' for Inactive)
REMARK    1  A    between atoms: C_1  and  C_2
REMARK    2  A    between atoms: C_2  and  O_3
REMARK    3  A    between atoms: O_3  and  C_4
REMARK    4  A    between atoms: C_4  and  C_6
REMARK    5  A    between atoms: N_7  and  N_8
REMARK    6  A    between atoms: N_8  and  C_9
REMARK    7  A    between atoms: N_19  and  C_20
REMARK    8  A    between atoms: C_25  and  O_26
REMARK    9  A    between atoms: O_26  and  C_27
REMARK                            x       y       z     vdW  Elec       q    Type
REMARK                         _______ _______ _______ _____ _____    ______ ____
ROOT
ATOM      1  C   UNL     1       3.484   6.048  18.895  0.00  0.00    +0.000 C 
ATOM      2  N   UNL     1       4.597   6.141  18.202  0.00  0.00    +0.000 NA
ATOM      3  N   UNL     1       2.741   7.206  19.149  0.00  0.00    +0.000 N 
ATOM      4  C   UNL     1       1.667   7.213  20.158  0.00  0.00    +0.000 C 
ATOM      5  C   UNL     1       1.319   8.655  20.563  0.00  0.00    +0.000 C 
ATOM      6  N   UNL     1       0.899   9.392  19.354  0.00  0.00    +0.000 N 
ATOM      7  C   UNL     1       1.999   9.496  18.373  0.00  0.00    +0.000 C 
ATOM      8  C   UNL     1       2.446   8.066  17.970  0.00  0.00    +0.000 C 
ENDROOT
BRANCH   6   9
ATOM      9  C   UNL     1      -0.021  10.431  19.484  0.00  0.00    +0.000 A 
ATOM     10  C   UNL     1      -1.281  10.341  18.849  0.00  0.00    +0.000 A 
ATOM     11  C   UNL     1      -2.185  11.406  18.809  0.00  0.00    +0.000 A 
ATOM     12  C   UNL     1      -1.863  12.604  19.423  0.00  0.00    +0.000 A 
ATOM     13  C   UNL     1      -0.661  12.711  20.114  0.00  0.00    +0.000 A 
ATOM     14  C   UNL     1       0.254  11.644  20.158  0.00  0.00    +0.000 A 
BRANCH  14  15
ATOM     15  O   UNL     1       1.343  11.928  20.945  0.00  0.00    +0.000 OA
ATOM     16  C   UNL     1       2.036  13.135  20.673  0.00  0.00    +0.000 C 
ENDBRANCH  14  15
ENDBRANCH   6   9
BRANCH   1  17
ATOM     17  C   UNL     1       2.959   4.634  19.325  0.00  0.00    +0.000 C 
ATOM     18  O   UNL     1       3.306   4.043  20.332  0.00  0.00    +0.000 OA
BRANCH  17  19
ATOM     19  O   UNL     1       2.232   4.138  18.290  0.00  0.00    +0.000 OA
BRANCH  19  21
ATOM     20  C   UNL     1       0.733   2.272  18.786  0.00  0.00    +0.000 C 
ATOM     21  C   UNL     1       2.082   2.718  18.262  0.00  0.00    +0.000 C 
ENDBRANCH  19  21
ENDBRANCH  17  19
ENDBRANCH   1  17
BRANCH   2  22
ATOM     22  N   UNL     1       5.289   5.002  17.972  0.00  0.00    +0.000 N 
ATOM     23  H   UNL     1       5.742   4.506  18.745  0.00  0.00    +0.000 HD
BRANCH  22  24
ATOM     24  C   UNL     1       5.736   4.701  16.674  0.00  0.00    +0.000 A 
ATOM     25  C   UNL     1       6.989   5.112  16.206  0.00  0.00    +0.000 A 
ATOM     26  C   UNL     1       7.361   4.902  14.874  0.00  0.00    +0.000 A 
ATOM     27  C   UNL     1       6.474   4.269  14.008  0.00  0.00    +0.000 A 
ATOM     28 BR   UNL     1       6.949   4.020  12.196  0.00  0.00    +0.000 Br
ATOM     29  C   UNL     1       5.230   3.835  14.459  0.00  0.00    +0.000 A 
ATOM     30  C   UNL     1       4.866   4.049  15.792  0.00  0.00    +0.000 A 
ENDBRANCH  22  24
ENDBRANCH   2  22
TORSDOF 7
ENDMDL
MODEL 3
REMARK VINA RESULT:      -7.1      1.039      1.134
REMARK  Name = 
REMARK  9 active torsions:
REMARK  status: ('A' for Active; 'I' for Inactive)
REMARK    1  A    between atoms: C_1  and  C_2
REMARK    2  A    between atoms: C_2  and  O_3
REMARK    3  A    between atoms: O_3  and  C_4
REMARK    4  A    between atoms: C_4  and  C_6
REMARK    5  A    between atoms: N_7  and  N_8
REMARK    6  A    between atoms: N_8  and  C_9
REMARK    7  A    between atoms: N_19  and  C_20
REMARK    8  A    between atoms: C_25  and  O_26
REMARK    9  A    between atoms: O_26  and  C_27
REMARK                            x       y       z     vdW  Elec       q    Type
REMARK                         _______ _______ _______ _____ _____    ______ ____
ROOT
ATOM      1  C   UNL     1       2.764   6.430  19.491  0.00  0.00    +0.000 C 
ATOM      2  N   UNL     1       3.810   6.449  18.695  0.00  0.00    +0.000 NA
ATOM      3  N   UNL     1       2.074   7.622  19.737  0.00  0.00    +0.000 N 
ATOM      4  C   UNL     1       1.098   7.722  20.837  0.00  0.00    +0.000 C 
ATOM      5  C   UNL     1       0.822   9.195  21.180  0.00  0.00    +0.000 C 
ATOM      6  N   UNL     1       0.310   9.869  19.970  0.00  0.00    +0.000 N 
ATOM      7  C   UNL     1       1.317   9.881  18.889  0.00  0.00    +0.000 C 
ATOM      8  C   UNL     1       1.692   8.418  18.538  0.00  0.00    +0.000 C 
ENDROOT
BRANCH   6   9
ATOM      9  C   UNL     1      -0.570  10.940  20.117  0.00  0.00    +0.000 A 
ATOM     10  C   UNL     1      -0.542  11.719  21.296  0.00  0.00    +0.000 A 
ATOM     11  C   UNL     1      -1.493  12.705  21.574  0.00  0.00    +0.000 A 
ATOM     12  C   UNL     1      -2.506  12.959  20.664  0.00  0.00    +0.000 A 
ATOM     13  C   UNL     1      -2.529  12.259  19.462  0.00  0.00    +0.000 A 
ATOM     14  C   UNL     1      -1.576  11.265  19.177  0.00  0.00    +0.000 A 
BRANCH  14  15
ATOM     15  O   UNL     1      -1.733  10.743  17.916  0.00  0.00    +0.000 OA
ATOM     16  C   UNL     1      -2.892   9.961  17.684  0.00  0.00    +0.000 C 
ENDBRANCH  14  15
ENDBRANCH   6   9
BRANCH   1  17
ATOM     17  C   UNL     1       2.248   5.061  20.055  0.00  0.00    +0.000 C 
ATOM     18  O   UNL     1       2.604   4.568  21.111  0.00  0.00    +0.000 OA
BRANCH  17  19
ATOM     19  O   UNL     1       1.517   4.467  19.076  0.00  0.00    +0.000 OA
BRANCH  19  21
ATOM     20  C   UNL     1       2.146   2.176  18.504  0.00  0.00    +0.000 C 
ATOM     21  C   UNL     1       1.215   3.086  19.278  0.00  0.00    +0.000 C 
ENDBRANCH  19  21
ENDBRANCH  17  19
ENDBRANCH   1  17
BRANCH   2  22
ATOM     22  N   UNL     1       4.451   5.278  18.476  0.00  0.00    +0.000 N 
ATOM     23  H   UNL     1       4.825   4.738  19.261  0.00  0.00    +0.000 HD
BRANCH  22  24
ATOM     24  C   UNL     1       4.963   4.986  17.201  0.00  0.00    +0.000 A 
ATOM     25  C   UNL     1       5.176   5.981  16.239  0.00  0.00    +0.000 A 
ATOM     26  C   UNL     1       5.575   5.649  14.940  0.00  0.00    +0.000 A 
ATOM     27  C   UNL     1       5.768   4.313  14.605  0.00  0.00    +0.000 A 
ATOM     28 BR   UNL     1       6.264   3.850  12.840  0.00  0.00    +0.000 Br
ATOM     29  C   UNL     1       5.580   3.308  15.552  0.00  0.00    +0.000 A 
ATOM     30  C   UNL     1       5.181   3.649  16.847  0.00  0.00    +0.000 A 
ENDBRANCH  22  24
ENDBRANCH   2  22
TORSDOF 7
ENDMDL
MODEL 4
REMARK VINA RESULT:      -7.1      0.754      1.063
REMARK  Name = 
REMARK  9 active torsions:
REMARK  status: ('A' for Active; 'I' for Inactive)
REMARK    1  A    between atoms: C_1  and  C_2
REMARK    2  A    between atoms: C_2  and  O_3
REMARK    3  A    between atoms: O_3  and  C_4
REMARK    4  A    between atoms: C_4  and  C_6
REMARK    5  A    between atoms: N_7  and  N_8
REMARK    6  A    between atoms: N_8  and  C_9
REMARK    7  A    between atoms: N_19  and  C_20
REMARK    8  A    between atoms: C_25  and  O_26
REMARK    9  A    between atoms: O_26  and  C_27
REMARK                            x       y       z     vdW  Elec       q    Type
REMARK                         _______ _______ _______ _____ _____    ______ ____
ROOT
ATOM      1  C   UNL     1       3.401   6.206  18.757  0.00  0.00    +0.000 C 
ATOM      2  N   UNL     1       4.552   6.284  18.127  0.00  0.00    +0.000 NA
ATOM      3  N   UNL     1       2.664   7.376  18.974  0.00  0.00    +0.000 N 
ATOM      4  C   UNL     1       1.536   7.397  19.921  0.00  0.00    +0.000 C 
ATOM      5  C   UNL     1       1.189   8.843  20.313  0.00  0.00    +0.000 C 
ATOM      6  N   UNL     1       0.850   9.593  19.086  0.00  0.00    +0.000 N 
ATOM      7  C   UNL     1       2.005   9.681  18.169  0.00  0.00    +0.000 C 
ATOM      8  C   UNL     1       2.450   8.246  17.784  0.00  0.00    +0.000 C 
ENDROOT
BRANCH   6   9
ATOM      9  C   UNL     1      -0.058  10.647  19.169  0.00  0.00    +0.000 A 
ATOM     10  C   UNL     1       0.136  11.671  20.123  0.00  0.00    +0.000 A 
ATOM     11  C   UNL     1      -0.812  12.670  20.364  0.00  0.00    +0.000 A 
ATOM     12  C   UNL     1      -1.991  12.687  19.639  0.00  0.00    +0.000 A 
ATOM     13  C   UNL     1      -2.191  11.735  18.645  0.00  0.00    +0.000 A 
ATOM     14  C   UNL     1      -1.242  10.726  18.399  0.00  0.00    +0.000 A 
BRANCH  14  15
ATOM     15  O   UNL     1      -1.595   9.931  17.336  0.00  0.00    +0.000 OA
ATOM     16  C   UNL     1      -2.981   9.784  17.076  0.00  0.00    +0.000 C 
ENDBRANCH  14  15
ENDBRANCH   6   9
BRANCH   1  17
ATOM     17  C   UNL     1       2.829   4.801  19.150  0.00  0.00    +0.000 C 
ATOM     18  O   UNL     1       2.055   4.152  18.467  0.00  0.00    +0.000 OA
BRANCH  17  19
ATOM     19  O   UNL     1       3.190   4.559  20.437  0.00  0.00    +0.000 OA
BRANCH  19  21
ATOM     20  C   UNL     1       2.233   2.666  21.651  0.00  0.00    +0.000 C 
ATOM     21  C   UNL     1       2.139   4.138  21.308  0.00  0.00    +0.000 C 
ENDBRANCH  19  21
ENDBRANCH  17  19
ENDBRANCH   1  17
BRANCH   2  22
ATOM     22  N   UNL     1       5.237   5.133  17.931  0.00  0.00    +0.000 N 
ATOM     23  H   UNL     1       5.672   4.649  18.721  0.00  0.00    +0.000 HD
BRANCH  22  24
ATOM     24  C   UNL     1       5.701   4.803  16.647  0.00  0.00    +0.000 A 
ATOM     25  C   UNL     1       6.945   5.233  16.172  0.00  0.00    +0.000 A 
ATOM     26  C   UNL     1       7.332   4.989  14.850  0.00  0.00    +0.000 A 
ATOM     27  C   UNL     1       6.469   4.304  14.001  0.00  0.00    +0.000 A 
ATOM     28 BR   UNL     1       6.963   4.008  12.200  0.00  0.00    +0.000 Br
ATOM     29  C   UNL     1       5.234   3.850  14.459  0.00  0.00    +0.000 A 
ATOM     30  C   UNL     1       4.855   4.098  15.781  0.00  0.00    +0.000 A 
ENDBRANCH  22  24
ENDBRANCH   2  22
TORSDOF 7
ENDMDL
MODEL 5
REMARK VINA RESULT:      -7.0      4.149      9.604
REMARK  Name = 
REMARK  9 active torsions:
REMARK  status: ('A' for Active; 'I' for Inactive)
REMARK    1  A    between atoms: C_1  and  C_2
REMARK    2  A    between atoms: C_2  and  O_3
REMARK    3  A    between atoms: O_3  and  C_4
REMARK    4  A    between atoms: C_4  and  C_6
REMARK    5  A    between atoms: N_7  and  N_8
REMARK    6  A    between atoms: N_8  and  C_9
REMARK    7  A    between atoms: N_19  and  C_20
REMARK    8  A    between atoms: C_25  and  O_26
REMARK    9  A    between atoms: O_26  and  C_27
REMARK                            x       y       z     vdW  Elec       q    Type
REMARK                         _______ _______ _______ _____ _____    ______ ____
ROOT
ATOM      1  C   UNL     1       0.914  10.868  19.718  0.00  0.00    +0.000 C 
ATOM      2  N   UNL     1       1.061  11.319  20.944  0.00  0.00    +0.000 NA
ATOM      3  N   UNL     1       1.516   9.655  19.362  0.00  0.00    +0.000 N 
ATOM      4  C   UNL     1       1.639   9.256  17.949  0.00  0.00    +0.000 C 
ATOM      5  C   UNL     1       2.697   8.150  17.794  0.00  0.00    +0.000 C 
ATOM      6  N   UNL     1       2.295   6.998  18.625  0.00  0.00    +0.000 N 
ATOM      7  C   UNL     1       2.274   7.346  20.061  0.00  0.00    +0.000 C 
ATOM      8  C   UNL     1       1.270   8.508  20.279  0.00  0.00    +0.000 C 
ENDROOT
BRANCH   6   9
ATOM      9  C   UNL     1       2.665   5.715  18.224  0.00  0.00    +0.000 A 
ATOM     10  C   UNL     1       1.674   4.788  17.825  0.00  0.00    +0.000 A 
ATOM     11  C   UNL     1       1.958   3.446  17.560  0.00  0.00    +0.000 A 
ATOM     12  C   UNL     1       3.259   2.984  17.671  0.00  0.00    +0.000 A 
ATOM     13  C   UNL     1       4.272   3.879  17.996  0.00  0.00    +0.000 A 
ATOM     14  C   UNL     1       3.993   5.231  18.266  0.00  0.00    +0.000 A 
BRANCH  14  15
ATOM     15  O   UNL     1       5.134   5.959  18.499  0.00  0.00    +0.000 OA
ATOM     16  C   UNL     1       6.237   5.264  19.058  0.00  0.00    +0.000 C 
ENDBRANCH  14  15
ENDBRANCH   6   9
BRANCH   1  17
ATOM     17  C   UNL     1      -0.019  11.636  18.720  0.00  0.00    +0.000 C 
ATOM     18  O   UNL     1       0.279  12.672  18.151  0.00  0.00    +0.000 OA
BRANCH  17  19
ATOM     19  O   UNL     1      -1.244  11.053  18.777  0.00  0.00    +0.000 OA
BRANCH  19  21
ATOM     20  C   UNL     1      -3.109   9.940  17.655  0.00  0.00    +0.000 C 
ATOM     21  C   UNL     1      -1.654  10.352  17.601  0.00  0.00    +0.000 C 
ENDBRANCH  19  21
ENDBRANCH  17  19
ENDBRANCH   1  17
BRANCH   2  22
ATOM     22  N   UNL     1       0.464  12.492  21.256  0.00  0.00    +0.000 N 
ATOM     23  H   UNL     1       1.006  13.360  21.273  0.00  0.00    +0.000 HD
BRANCH  22  24
ATOM     24  C   UNL     1      -0.765  12.495  21.936  0.00  0.00    +0.000 A 
ATOM     25  C   UNL     1      -1.610  13.611  21.941  0.00  0.00    +0.000 A 
ATOM     26  C   UNL     1      -2.771  13.629  22.720  0.00  0.00    +0.000 A 
ATOM     27  C   UNL     1      -3.090  12.519  23.496  0.00  0.00    +0.000 A 
ATOM     28 BR   UNL     1      -4.632  12.550  24.589  0.00  0.00    +0.000 Br
ATOM     29  C   UNL     1      -2.273  11.391  23.492  0.00  0.00    +0.000 A 
ATOM     30  C   UNL     1      -1.115  11.381  22.709  0.00  0.00    +0.000 A 
ENDBRANCH  22  24
ENDBRANCH   2  22
TORSDOF 7
ENDMDL
MODEL 6
REMARK VINA RESULT:      -7.0      1.248      2.094
REMARK  Name = 
REMARK  9 active torsions:
REMARK  status: ('A' for Active; 'I' for Inactive)
REMARK    1  A    between atoms: C_1  and  C_2
REMARK    2  A    between atoms: C_2  and  O_3
REMARK    3  A    between atoms: O_3  and  C_4
REMARK    4  A    between atoms: C_4  and  C_6
REMARK    5  A    between atoms: N_7  and  N_8
REMARK    6  A    between atoms: N_8  and  C_9
REMARK    7  A    between atoms: N_19  and  C_20
REMARK    8  A    between atoms: C_25  and  O_26
REMARK    9  A    between atoms: O_26  and  C_27
REMARK                            x       y       z     vdW  Elec       q    Type
REMARK                         _______ _______ _______ _____ _____    ______ ____
ROOT
ATOM      1  C   UNL     1       3.665   6.071  18.778  0.00  0.00    +0.000 C 
ATOM      2  N   UNL     1       4.725   6.300  18.035  0.00  0.00    +0.000 NA
ATOM      3  N   UNL     1       2.829   7.140  19.120  0.00  0.00    +0.000 N 
ATOM      4  C   UNL     1       1.816   7.002  20.180  0.00  0.00    +0.000 C 
ATOM      5  C   UNL     1       1.354   8.386  20.666  0.00  0.00    +0.000 C 
ATOM      6  N   UNL     1       0.802   9.127  19.514  0.00  0.00    +0.000 N 
ATOM      7  C   UNL     1       1.833   9.376  18.486  0.00  0.00    +0.000 C 
ATOM      8  C   UNL     1       2.392   8.014  17.997  0.00  0.00    +0.000 C 
ENDROOT
BRANCH   6   9
ATOM      9  C   UNL     1      -0.204  10.066  19.736  0.00  0.00    +0.000 A 
ATOM     10  C   UNL     1      -1.100  10.398  18.694  0.00  0.00    +0.000 A 
ATOM     11  C   UNL     1      -2.029  11.437  18.799  0.00  0.00    +0.000 A 
ATOM     12  C   UNL     1      -2.105  12.176  19.967  0.00  0.00    +0.000 A 
ATOM     13  C   UNL     1      -1.286  11.836  21.040  0.00  0.00    +0.000 A 
ATOM     14  C   UNL     1      -0.348  10.793  20.941  0.00  0.00    +0.000 A 
BRANCH  14  15
ATOM     15  O   UNL     1       0.311  10.575  22.126  0.00  0.00    +0.000 OA
ATOM     16  C   UNL     1      -0.461  10.083  23.209  0.00  0.00    +0.000 C 
ENDBRANCH  14  15
ENDBRANCH   6   9
BRANCH   1  17
ATOM     17  C   UNL     1       3.300   4.597  19.168  0.00  0.00    +0.000 C 
ATOM     18  O   UNL     1       3.665   4.040  20.189  0.00  0.00    +0.000 OA
BRANCH  17  19
ATOM     19  O   UNL     1       2.697   4.028  18.092  0.00  0.00    +0.000 OA
BRANCH  19  21
ATOM     20  C   UNL     1       0.918   2.552  18.887  0.00  0.00    +0.000 C 
ATOM     21  C   UNL     1       1.284   3.849  18.195  0.00  0.00    +0.000 C 
ENDBRANCH  19  21
ENDBRANCH  17  19
ENDBRANCH   1  17
BRANCH   2  22
ATOM     22  N   UNL     1       5.509   5.243  17.720  0.00  0.00    +0.000 N 
ATOM     23  H   UNL     1       6.130   4.832  18.422  0.00  0.00    +0.000 HD
BRANCH  22  24
ATOM     24  C   UNL     1       5.790   4.953  16.374  0.00  0.00    +0.000 A 
ATOM     25  C   UNL     1       4.873   4.292  15.549  0.00  0.00    +0.000 A 
ATOM     26  C   UNL     1       5.222   3.912  14.249  0.00  0.00    +0.000 A 
ATOM     27  C   UNL     1       6.496   4.203  13.771  0.00  0.00    +0.000 A 
ATOM     28 BR   UNL     1       6.993   3.655  12.031  0.00  0.00    +0.000 Br
ATOM     29  C   UNL     1       7.417   4.878  14.569  0.00  0.00    +0.000 A 
ATOM     30  C   UNL     1       7.059   5.254  15.866  0.00  0.00    +0.000 A 
ENDBRANCH  22  24
ENDBRANCH   2  22
TORSDOF 7
ENDMDL
MODEL 7
REMARK VINA RESULT:      -7.0      4.076      9.616
REMARK  Name = 
REMARK  9 active torsions:
REMARK  status: ('A' for Active; 'I' for Inactive)
REMARK    1  A    between atoms: C_1  and  C_2
REMARK    2  A    between atoms: C_2  and  O_3
REMARK    3  A    between atoms: O_3  and  C_4
REMARK    4  A    between atoms: C_4  and  C_6
REMARK    5  A    between atoms: N_7  and  N_8
REMARK    6  A    between atoms: N_8  and  C_9
REMARK    7  A    between atoms: N_19  and  C_20
REMARK    8  A    between atoms: C_25  and  O_26
REMARK    9  A    between atoms: O_26  and  C_27
REMARK                            x       y       z     vdW  Elec       q    Type
REMARK                         _______ _______ _______ _____ _____    ______ ____
ROOT
ATOM      1  C   UNL     1       0.940  11.102  19.756  0.00  0.00    +0.000 C 
ATOM      2  N   UNL     1       1.101  11.496  20.999  0.00  0.00    +0.000 NA
ATOM      3  N   UNL     1       1.503   9.887  19.349  0.00  0.00    +0.000 N 
ATOM      4  C   UNL     1       1.615   9.544  17.920  0.00  0.00    +0.000 C 
ATOM      5  C   UNL     1       2.636   8.412  17.718  0.00  0.00    +0.000 C 
ATOM      6  N   UNL     1       2.196   7.239  18.500  0.00  0.00    +0.000 N 
ATOM      7  C   UNL     1       2.185   7.527  19.949  0.00  0.00    +0.000 C 
ATOM      8  C   UNL     1       1.219   8.711  20.217  0.00  0.00    +0.000 C 
ENDROOT
BRANCH   6   9
ATOM      9  C   UNL     1       2.524   5.963  18.045  0.00  0.00    +0.000 A 
ATOM     10  C   UNL     1       1.572   4.921  18.121  0.00  0.00    +0.000 A 
ATOM     11  C   UNL     1       1.883   3.590  17.828  0.00  0.00    +0.000 A 
ATOM     12  C   UNL     1       3.166   3.256  17.430  0.00  0.00    +0.000 A 
ATOM     13  C   UNL     1       4.115   4.263  17.279  0.00  0.00    +0.000 A 
ATOM     14  C   UNL     1       3.809   5.604  17.574  0.00  0.00    +0.000 A 
BRANCH  14  15
ATOM     15  O   UNL     1       4.857   6.447  17.296  0.00  0.00    +0.000 OA
ATOM     16  C   UNL     1       5.823   5.987  16.366  0.00  0.00    +0.000 C 
ENDBRANCH  14  15
ENDBRANCH   6   9
BRANCH   1  17
ATOM     17  C   UNL     1       0.034  11.942  18.791  0.00  0.00    +0.000 C 
ATOM     18  O   UNL     1       0.378  12.972  18.239  0.00  0.00    +0.000 OA
BRANCH  17  19
ATOM     19  O   UNL     1      -1.220  11.425  18.858  0.00  0.00    +0.000 OA
BRANCH  19  21
ATOM     20  C   UNL     1      -1.962   9.984  17.028  0.00  0.00    +0.000 C 
ATOM     21  C   UNL     1      -1.938  11.376  17.624  0.00  0.00    +0.000 C 
ENDBRANCH  19  21
ENDBRANCH  17  19
ENDBRANCH   1  17
BRANCH   2  22
ATOM     22  N   UNL     1       0.541  12.674  21.361  0.00  0.00    +0.000 N 
ATOM     23  H   UNL     1       1.092  13.537  21.336  0.00  0.00    +0.000 HD
BRANCH  22  24
ATOM     24  C   UNL     1      -0.629  12.687  22.136  0.00  0.00    +0.000 A 
ATOM     25  C   UNL     1      -1.108  11.540  22.779  0.00  0.00    +0.000 A 
ATOM     26  C   UNL     1      -2.336  11.551  23.448  0.00  0.00    +0.000 A 
ATOM     27  C   UNL     1      -3.087  12.722  23.478  0.00  0.00    +0.000 A 
ATOM     28 BR   UNL     1      -4.769  12.737  24.340  0.00  0.00    +0.000 Br
ATOM     29  C   UNL     1      -2.620  13.881  22.860  0.00  0.00    +0.000 A 
ATOM     30  C   UNL     1      -1.392  13.860  22.195  0.00  0.00    +0.000 A 
ENDBRANCH  22  24
ENDBRANCH   2  22
TORSDOF 7
ENDMDL
MODEL 8
REMARK VINA RESULT:      -6.9      4.015      9.548
REMARK  Name = 
REMARK  9 active torsions:
REMARK  status: ('A' for Active; 'I' for Inactive)
REMARK    1  A    between atoms: C_1  and  C_2
REMARK    2  A    between atoms: C_2  and  O_3
REMARK    3  A    between atoms: O_3  and  C_4
REMARK    4  A    between atoms: C_4  and  C_6
REMARK    5  A    between atoms: N_7  and  N_8
REMARK    6  A    between atoms: N_8  and  C_9
REMARK    7  A    between atoms: N_19  and  C_20
REMARK    8  A    between atoms: C_25  and  O_26
REMARK    9  A    between atoms: O_26  and  C_27
REMARK                            x       y       z     vdW  Elec       q    Type
REMARK                         _______ _______ _______ _____ _____    ______ ____
ROOT
ATOM      1  C   UNL     1       0.931  10.852  19.804  0.00  0.00    +0.000 C 
ATOM      2  N   UNL     1       1.101  11.337  21.014  0.00  0.00    +0.000 NA
ATOM      3  N   UNL     1       1.517   9.625  19.475  0.00  0.00    +0.000 N 
ATOM      4  C   UNL     1       1.616   9.183  18.073  0.00  0.00    +0.000 C 
ATOM      5  C   UNL     1       2.662   8.064  17.934  0.00  0.00    +0.000 C 
ATOM      6  N   UNL     1       2.263   6.939  18.805  0.00  0.00    +0.000 N 
ATOM      7  C   UNL     1       2.267   7.330  20.230  0.00  0.00    +0.000 C 
ATOM      8  C   UNL     1       1.276   8.507  20.429  0.00  0.00    +0.000 C 
ENDROOT
BRANCH   6   9
ATOM      9  C   UNL     1       2.616   5.643  18.436  0.00  0.00    +0.000 A 
ATOM     10  C   UNL     1       3.666   5.433  17.513  0.00  0.00    +0.000 A 
ATOM     11  C   UNL     1       3.968   4.175  16.984  0.00  0.00    +0.000 A 
ATOM     12  C   UNL     1       3.232   3.070  17.378  0.00  0.00    +0.000 A 
ATOM     13  C   UNL     1       2.234   3.224  18.334  0.00  0.00    +0.000 A 
ATOM     14  C   UNL     1       1.924   4.487  18.869  0.00  0.00    +0.000 A 
BRANCH  14  15
ATOM     15  O   UNL     1       0.958   4.415  19.843  0.00  0.00    +0.000 OA
ATOM     16  C   UNL     1       1.181   3.498  20.902  0.00  0.00    +0.000 C 
ENDBRANCH  14  15
ENDBRANCH   6   9
BRANCH   1  17
ATOM     17  C   UNL     1      -0.010  11.599  18.798  0.00  0.00    +0.000 C 
ATOM     18  O   UNL     1       0.257  12.655  18.252  0.00  0.00    +0.000 OA
BRANCH  17  19
ATOM     19  O   UNL     1      -1.212  10.966  18.818  0.00  0.00    +0.000 OA
BRANCH  19  21
ATOM     20  C   UNL     1      -2.490  10.012  16.965  0.00  0.00    +0.000 C 
ATOM     21  C   UNL     1      -2.085  11.257  17.726  0.00  0.00    +0.000 C 
ENDBRANCH  19  21
ENDBRANCH  17  19
ENDBRANCH   1  17
BRANCH   2  22
ATOM     22  N   UNL     1       0.518  12.524  21.300  0.00  0.00    +0.000 N 
ATOM     23  H   UNL     1       1.048  13.396  21.208  0.00  0.00    +0.000 HD
BRANCH  22  24
ATOM     24  C   UNL     1      -0.643  12.565  22.089  0.00  0.00    +0.000 A 
ATOM     25  C   UNL     1      -1.149  11.426  22.726  0.00  0.00    +0.000 A 
ATOM     26  C   UNL     1      -2.370  11.467  23.408  0.00  0.00    +0.000 A 
ATOM     27  C   UNL     1      -3.084  12.661  23.458  0.00  0.00    +0.000 A 
ATOM     28 BR   UNL     1      -4.755  12.718  24.339  0.00  0.00    +0.000 Br
ATOM     29  C   UNL     1      -2.589  13.811  22.847  0.00  0.00    +0.000 A 
ATOM     30  C   UNL     1      -1.369  13.760  22.168  0.00  0.00    +0.000 A 
ENDBRANCH  22  24
ENDBRANCH   2  22
TORSDOF 7
ENDMDL
MODEL 9
REMARK VINA RESULT:      -6.9      1.129      1.833
REMARK  Name = 
REMARK  9 active torsions:
REMARK  status: ('A' for Active; 'I' for Inactive)
REMARK    1  A    between atoms: C_1  and  C_2
REMARK    2  A    between atoms: C_2  and  O_3
REMARK    3  A    between atoms: O_3  and  C_4
REMARK    4  A    between atoms: C_4  and  C_6
REMARK    5  A    between atoms: N_7  and  N_8
REMARK    6  A    between atoms: N_8  and  C_9
REMARK    7  A    between atoms: N_19  and  C_20
REMARK    8  A    between atoms: C_25  and  O_26
REMARK    9  A    between atoms: O_26  and  C_27
REMARK                            x       y       z     vdW  Elec       q    Type
REMARK                         _______ _______ _______ _____ _____    ______ ____
ROOT
ATOM      1  C   UNL     1       3.510   6.158  19.030  0.00  0.00    +0.000 C 
ATOM      2  N   UNL     1       4.629   6.313  18.357  0.00  0.00    +0.000 NA
ATOM      3  N   UNL     1       2.696   7.272  19.262  0.00  0.00    +0.000 N 
ATOM      4  C   UNL     1       1.604   7.222  20.250  0.00  0.00    +0.000 C 
ATOM      5  C   UNL     1       1.164   8.643  20.639  0.00  0.00    +0.000 C 
ATOM      6  N   UNL     1       0.725   9.348  19.417  0.00  0.00    +0.000 N 
ATOM      7  C   UNL     1       1.836   9.510  18.457  0.00  0.00    +0.000 C 
ATOM      8  C   UNL     1       2.374   8.107  18.072  0.00  0.00    +0.000 C 
ENDROOT
BRANCH   6   9
ATOM      9  C   UNL     1      -0.256  10.332  19.522  0.00  0.00    +0.000 A 
ATOM     10  C   UNL     1      -1.074  10.633  18.410  0.00  0.00    +0.000 A 
ATOM     11  C   UNL     1      -1.968  11.708  18.397  0.00  0.00    +0.000 A 
ATOM     12  C   UNL     1      -2.086  12.516  19.515  0.00  0.00    +0.000 A 
ATOM     13  C   UNL     1      -1.346  12.213  20.653  0.00  0.00    +0.000 A 
ATOM     14  C   UNL     1      -0.444  11.134  20.672  0.00  0.00    +0.000 A 
BRANCH  14  15
ATOM     15  O   UNL     1       0.134  10.964  21.906  0.00  0.00    +0.000 OA
ATOM     16  C   UNL     1      -0.731  10.645  22.983  0.00  0.00    +0.000 C 
ENDBRANCH  14  15
ENDBRANCH   6   9
BRANCH   1  17
ATOM     17  C   UNL     1       3.060   4.719  19.459  0.00  0.00    +0.000 C 
ATOM     18  O   UNL     1       3.487   4.121  20.431  0.00  0.00    +0.000 OA
BRANCH  17  19
ATOM     19  O   UNL     1       2.291   4.218  18.459  0.00  0.00    +0.000 OA
BRANCH  19  21
ATOM     20  C   UNL     1       2.607   1.884  17.804  0.00  0.00    +0.000 C 
ATOM     21  C   UNL     1       1.830   2.878  18.641  0.00  0.00    +0.000 C 
ENDBRANCH  19  21
ENDBRANCH  17  19
ENDBRANCH   1  17
BRANCH   2  22
ATOM     22  N   UNL     1       5.391   5.215  18.148  0.00  0.00    +0.000 N 
ATOM     23  H   UNL     1       5.942   4.814  18.913  0.00  0.00    +0.000 HD
BRANCH  22  24
ATOM     24  C   UNL     1       5.757   4.852  16.841  0.00  0.00    +0.000 A 
ATOM     25  C   UNL     1       6.975   5.242  16.275  0.00  0.00    +0.000 A 
ATOM     26  C   UNL     1       7.264   4.968  14.934  0.00  0.00    +0.000 A 
ATOM     27  C   UNL     1       6.327   4.292  14.158  0.00  0.00    +0.000 A 
ATOM     28 BR   UNL     1       6.688   3.955  12.333  0.00  0.00    +0.000 Br
ATOM     29  C   UNL     1       5.116   3.878  14.708  0.00  0.00    +0.000 A 
ATOM     30  C   UNL     1       4.836   4.156  16.048  0.00  0.00    +0.000 A 
ENDBRANCH  22  24
ENDBRANCH   2  22
TORSDOF 7
ENDMDL
