MODEL 1
REMARK VINA RESULT:      -7.8      0.000      0.000
REMARK  Name = 
REMARK  12 active torsions:
REMARK  status: ('A' for Active; 'I' for Inactive)
REMARK    1  A    between atoms: C_1  and  C_2
REMARK    2  A    between atoms: C_2  and  C_3
REMARK    3  A    between atoms: C_2  and  C_4
REMARK    4  A    between atoms: C_2  and  C_5
REMARK    5  A    between atoms: C_7  and  C_8
REMARK    6  A    between atoms: C_9  and  C_10
REMARK    7  A    between atoms: C_9  and  C_12
REMARK    8  A    between atoms: C_18  and  C_19
REMARK    9  A    between atoms: C_19  and  C_20
REMARK   10  A    between atoms: C_19  and  C_21
REMARK   11  A    between atoms: C_19  and  C_22
REMARK   12  A    between atoms: C_23  and  O_24
REMARK                            x       y       z     vdW  Elec       q    Type
REMARK                         _______ _______ _______ _____ _____    ______ ____
ROOT
ATOM      1  C   UNL     1       3.291   4.555  18.493  0.00  0.00    +0.000 A 
ATOM      2  C   UNL     1       2.534   5.759  18.335  0.00  0.00    +0.000 A 
ATOM      3  C   UNL     1       3.132   6.997  18.079  0.00  0.00    +0.000 A 
ATOM      4  C   UNL     1       4.529   7.010  17.950  0.00  0.00    +0.000 A 
ATOM      5  C   UNL     1       5.357   5.861  18.046  0.00  0.00    +0.000 A 
ATOM      6  C   UNL     1       4.701   4.652  18.386  0.00  0.00    +0.000 A 
ENDROOT
BRANCH   1   8
ATOM      7  C   UNL     1       1.018   3.489  18.408  0.00  0.00    +0.000 C 
ATOM      8  C   UNL     1       2.511   3.228  18.723  0.00  0.00    +0.000 C 
ATOM      9  C   UNL     1       2.669   2.786  20.195  0.00  0.00    +0.000 C 
ATOM     10  C   UNL     1       2.912   2.010  17.856  0.00  0.00    +0.000 C 
ENDBRANCH   1   8
BRANCH   5  11
ATOM     11  C   UNL     1       6.896   6.014  17.823  0.00  0.00    +0.000 C 
ATOM     12  C   UNL     1       7.369   4.985  16.776  0.00  0.00    +0.000 C 
ATOM     13  C   UNL     1       7.352   7.427  17.385  0.00  0.00    +0.000 C 
ATOM     14  C   UNL     1       7.712   5.731  19.115  0.00  0.00    +0.000 C 
ENDBRANCH   5  11
BRANCH   3  15
ATOM     15  C   UNL     1       2.327   8.261  17.911  0.00  0.00    +0.000 C 
ATOM     16  C   UNL     1       1.594   8.889  18.866  0.00  0.00    +0.000 C 
BRANCH  16  17
ATOM     17  C   UNL     1       0.906  10.168  18.673  0.00  0.00    +0.000 C 
ATOM     18  N   UNL     1       1.410  11.349  18.632  0.00  0.00    +0.000 NA
ATOM     19  C   UNL     1       0.243  12.237  18.487  0.00  0.00    +0.000 C 
ATOM     20  C   UNL     1      -0.940  11.317  18.280  0.00  0.00    +0.000 C 
ATOM     21  O   UNL     1      -0.439  10.026  18.531  0.00  0.00    +0.000 OA
ENDBRANCH  16  17
BRANCH  16  22
ATOM     22  C   UNL     1       1.560   8.230  20.236  0.00  0.00    +0.000 C 
ATOM     23  N   UNL     1       1.532   7.684  21.372  0.00  0.00    +0.000 NA
ENDBRANCH  16  22
ENDBRANCH   3  15
BRANCH   6  24
ATOM     24  O   UNL     1       5.450   3.552  18.707  0.00  0.00    +0.000 OA
ATOM     25  H   UNL     1       5.239   2.857  18.063  0.00  0.00    +0.000 HD
ENDBRANCH   6  24
TORSDOF 6
ENDMDL
MODEL 2
REMARK VINA RESULT:      -7.8      0.652      3.768
REMARK  Name = 
REMARK  12 active torsions:
REMARK  status: ('A' for Active; 'I' for Inactive)
REMARK    1  A    between atoms: C_1  and  C_2
REMARK    2  A    between atoms: C_2  and  C_3
REMARK    3  A    between atoms: C_2  and  C_4
REMARK    4  A    between atoms: C_2  and  C_5
REMARK    5  A    between atoms: C_7  and  C_8
REMARK    6  A    between atoms: C_9  and  C_10
REMARK    7  A    between atoms: C_9  and  C_12
REMARK    8  A    between atoms: C_18  and  C_19
REMARK    9  A    between atoms: C_19  and  C_20
REMARK   10  A    between atoms: C_19  and  C_21
REMARK   11  A    between atoms: C_19  and  C_22
REMARK   12  A    between atoms: C_23  and  O_24
REMARK                            x       y       z     vdW  Elec       q    Type
REMARK                         _______ _______ _______ _____ _____    ______ ____
ROOT
ATOM      1  C   UNL     1       5.098   5.749  17.635  0.00  0.00    +0.000 A 
ATOM      2  C   UNL     1       4.370   6.977  17.542  0.00  0.00    +0.000 A 
ATOM      3  C   UNL     1       3.032   7.091  17.932  0.00  0.00    +0.000 A 
ATOM      4  C   UNL     1       2.426   5.940  18.458  0.00  0.00    +0.000 A 
ATOM      5  C   UNL     1       3.082   4.693  18.630  0.00  0.00    +0.000 A 
ATOM      6  C   UNL     1       4.410   4.619  18.142  0.00  0.00    +0.000 A 
ENDROOT
BRANCH   1   8
ATOM      7  C   UNL     1       7.127   7.205  17.362  0.00  0.00    +0.000 C 
ATOM      8  C   UNL     1       6.597   5.758  17.219  0.00  0.00    +0.000 C 
ATOM      9  C   UNL     1       6.727   5.294  15.751  0.00  0.00    +0.000 C 
ATOM     10  C   UNL     1       7.568   4.876  18.043  0.00  0.00    +0.000 C 
ENDBRANCH   1   8
BRANCH   5  11
ATOM     11  C   UNL     1       2.299   3.509  19.285  0.00  0.00    +0.000 C 
ATOM     12  C   UNL     1       1.838   2.529  18.187  0.00  0.00    +0.000 C 
ATOM     13  C   UNL     1       3.086   2.726  20.363  0.00  0.00    +0.000 C 
ATOM     14  C   UNL     1       1.013   3.983  20.017  0.00  0.00    +0.000 C 
ENDBRANCH   5  11
BRANCH   3  15
ATOM     15  C   UNL     1       2.272   8.389  17.834  0.00  0.00    +0.000 C 
ATOM     16  C   UNL     1       1.585   9.005  18.831  0.00  0.00    +0.000 C 
BRANCH  16  17
ATOM     17  C   UNL     1       0.941  10.314  18.706  0.00  0.00    +0.000 C 
ATOM     18  N   UNL     1       1.490  11.474  18.654  0.00  0.00    +0.000 NA
ATOM     19  C   UNL     1       0.355  12.412  18.601  0.00  0.00    +0.000 C 
ATOM     20  C   UNL     1      -0.877  11.546  18.456  0.00  0.00    +0.000 C 
ATOM     21  O   UNL     1      -0.416  10.231  18.650  0.00  0.00    +0.000 OA
ENDBRANCH  16  17
BRANCH  16  22
ATOM     22  C   UNL     1       1.559   8.292  20.174  0.00  0.00    +0.000 C 
ATOM     23  N   UNL     1       1.537   7.701  21.288  0.00  0.00    +0.000 NA
ENDBRANCH  16  22
ENDBRANCH   3  15
BRANCH   6  24
ATOM     24  O   UNL     1       5.030   3.401  18.075  0.00  0.00    +0.000 OA
ATOM     25  H   UNL     1       4.523   2.784  18.627  0.00  0.00    +0.000 HD
ENDBRANCH   6  24
TORSDOF 6
ENDMDL
MODEL 3
REMARK VINA RESULT:      -7.7      0.293      1.163
REMARK  Name = 
REMARK  12 active torsions:
REMARK  status: ('A' for Active; 'I' for Inactive)
REMARK    1  A    between atoms: C_1  and  C_2
REMARK    2  A    between atoms: C_2  and  C_3
REMARK    3  A    between atoms: C_2  and  C_4
REMARK    4  A    between atoms: C_2  and  C_5
REMARK    5  A    between atoms: C_7  and  C_8
REMARK    6  A    between atoms: C_9  and  C_10
REMARK    7  A    between atoms: C_9  and  C_12
REMARK    8  A    between atoms: C_18  and  C_19
REMARK    9  A    between atoms: C_19  and  C_20
REMARK   10  A    between atoms: C_19  and  C_21
REMARK   11  A    between atoms: C_19  and  C_22
REMARK   12  A    between atoms: C_23  and  O_24
REMARK                            x       y       z     vdW  Elec       q    Type
REMARK                         _______ _______ _______ _____ _____    ______ ____
ROOT
ATOM      1  C   UNL     1       3.181   4.561  18.677  0.00  0.00    +0.000 A 
ATOM      2  C   UNL     1       2.425   5.762  18.494  0.00  0.00    +0.000 A 
ATOM      3  C   UNL     1       3.019   6.982  18.158  0.00  0.00    +0.000 A 
ATOM      4  C   UNL     1       4.411   6.979  17.973  0.00  0.00    +0.000 A 
ATOM      5  C   UNL     1       5.235   5.829  18.089  0.00  0.00    +0.000 A 
ATOM      6  C   UNL     1       4.585   4.641  18.510  0.00  0.00    +0.000 A 
ENDROOT
BRANCH   1   8
ATOM      7  C   UNL     1       2.438   2.351  17.740  0.00  0.00    +0.000 C 
ATOM      8  C   UNL     1       2.403   3.252  18.999  0.00  0.00    +0.000 C 
ATOM      9  C   UNL     1       0.940   3.597  19.357  0.00  0.00    +0.000 C 
ATOM     10  C   UNL     1       2.940   2.374  20.155  0.00  0.00    +0.000 C 
ENDBRANCH   1   8
BRANCH   5  11
ATOM     11  C   UNL     1       6.765   5.960  17.799  0.00  0.00    +0.000 C 
ATOM     12  C   UNL     1       7.068   7.375  17.267  0.00  0.00    +0.000 C 
ATOM     13  C   UNL     1       7.684   5.666  19.009  0.00  0.00    +0.000 C 
ATOM     14  C   UNL     1       7.245   4.968  16.702  0.00  0.00    +0.000 C 
ENDBRANCH   5  11
BRANCH   3  15
ATOM     15  C   UNL     1       2.217   8.243  17.963  0.00  0.00    +0.000 C 
ATOM     16  C   UNL     1       1.516   8.914  18.913  0.00  0.00    +0.000 C 
BRANCH  16  17
ATOM     17  C   UNL     1       0.829  10.188  18.689  0.00  0.00    +0.000 C 
ATOM     18  N   UNL     1       1.325  11.372  18.673  0.00  0.00    +0.000 NA
ATOM     19  C   UNL     1       0.160  12.253  18.474  0.00  0.00    +0.000 C 
ATOM     20  C   UNL     1      -1.006  11.325  18.213  0.00  0.00    +0.000 C 
ATOM     21  O   UNL     1      -0.508  10.037  18.485  0.00  0.00    +0.000 OA
ENDBRANCH  16  17
BRANCH  16  22
ATOM     22  C   UNL     1       1.520   8.311  20.309  0.00  0.00    +0.000 C 
ATOM     23  N   UNL     1       1.523   7.810  21.466  0.00  0.00    +0.000 NA
ENDBRANCH  16  22
ENDBRANCH   3  15
BRANCH   6  24
ATOM     24  O   UNL     1       5.340   3.552  18.852  0.00  0.00    +0.000 OA
ATOM     25  H   UNL     1       4.867   2.761  18.548  0.00  0.00    +0.000 HD
ENDBRANCH   6  24
TORSDOF 6
ENDMDL
MODEL 4
REMARK VINA RESULT:      -7.7      0.479      3.756
REMARK  Name = 
REMARK  12 active torsions:
REMARK  status: ('A' for Active; 'I' for Inactive)
REMARK    1  A    between atoms: C_1  and  C_2
REMARK    2  A    between atoms: C_2  and  C_3
REMARK    3  A    between atoms: C_2  and  C_4
REMARK    4  A    between atoms: C_2  and  C_5
REMARK    5  A    between atoms: C_7  and  C_8
REMARK    6  A    between atoms: C_9  and  C_10
REMARK    7  A    between atoms: C_9  and  C_12
REMARK    8  A    between atoms: C_18  and  C_19
REMARK    9  A    between atoms: C_19  and  C_20
REMARK   10  A    between atoms: C_19  and  C_21
REMARK   11  A    between atoms: C_19  and  C_22
REMARK   12  A    between atoms: C_23  and  O_24
REMARK                            x       y       z     vdW  Elec       q    Type
REMARK                         _______ _______ _______ _____ _____    ______ ____
ROOT
ATOM      1  C   UNL     1       5.156   5.963  17.931  0.00  0.00    +0.000 A 
ATOM      2  C   UNL     1       4.354   7.139  17.784  0.00  0.00    +0.000 A 
ATOM      3  C   UNL     1       2.978   7.149  18.031  0.00  0.00    +0.000 A 
ATOM      4  C   UNL     1       2.406   5.945  18.467  0.00  0.00    +0.000 A 
ATOM      5  C   UNL     1       3.128   4.742  18.685  0.00  0.00    +0.000 A 
ATOM      6  C   UNL     1       4.502   4.774  18.339  0.00  0.00    +0.000 A 
ENDROOT
BRANCH   1   8
ATOM      7  C   UNL     1       7.045   5.192  16.465  0.00  0.00    +0.000 C 
ATOM      8  C   UNL     1       6.686   6.087  17.677  0.00  0.00    +0.000 C 
ATOM      9  C   UNL     1       7.457   5.611  18.929  0.00  0.00    +0.000 C 
ATOM     10  C   UNL     1       7.237   7.493  17.333  0.00  0.00    +0.000 C 
ENDBRANCH   1   8
BRANCH   5  11
ATOM     11  C   UNL     1       2.368   3.489  19.229  0.00  0.00    +0.000 C 
ATOM     12  C   UNL     1       2.039   2.540  18.059  0.00  0.00    +0.000 C 
ATOM     13  C   UNL     1       3.121   2.698  20.325  0.00  0.00    +0.000 C 
ATOM     14  C   UNL     1       1.010   3.860  19.887  0.00  0.00    +0.000 C 
ENDBRANCH   5  11
BRANCH   3  15
ATOM     15  C   UNL     1       2.141   8.393  17.878  0.00  0.00    +0.000 C 
ATOM     16  C   UNL     1       1.444   9.027  18.856  0.00  0.00    +0.000 C 
BRANCH  16  17
ATOM     17  C   UNL     1       0.720  10.288  18.671  0.00  0.00    +0.000 C 
ATOM     18  N   UNL     1       1.183  11.485  18.693  0.00  0.00    +0.000 NA
ATOM     19  C   UNL     1      -0.007  12.339  18.521  0.00  0.00    +0.000 C 
ATOM     20  C   UNL     1      -1.146  11.386  18.230  0.00  0.00    +0.000 C 
ATOM     21  O   UNL     1      -0.612  10.106  18.462  0.00  0.00    +0.000 OA
ENDBRANCH  16  17
BRANCH  16  22
ATOM     22  C   UNL     1       1.492   8.397  20.239  0.00  0.00    +0.000 C 
ATOM     23  N   UNL     1       1.532   7.874  21.385  0.00  0.00    +0.000 NA
ENDBRANCH  16  22
ENDBRANCH   3  15
BRANCH   6  24
ATOM     24  O   UNL     1       5.212   3.605  18.315  0.00  0.00    +0.000 OA
ATOM     25  H   UNL     1       5.619   3.492  19.189  0.00  0.00    +0.000 HD
ENDBRANCH   6  24
TORSDOF 6
ENDMDL
MODEL 5
REMARK VINA RESULT:      -7.7      0.192      1.293
REMARK  Name = 
REMARK  12 active torsions:
REMARK  status: ('A' for Active; 'I' for Inactive)
REMARK    1  A    between atoms: C_1  and  C_2
REMARK    2  A    between atoms: C_2  and  C_3
REMARK    3  A    between atoms: C_2  and  C_4
REMARK    4  A    between atoms: C_2  and  C_5
REMARK    5  A    between atoms: C_7  and  C_8
REMARK    6  A    between atoms: C_9  and  C_10
REMARK    7  A    between atoms: C_9  and  C_12
REMARK    8  A    between atoms: C_18  and  C_19
REMARK    9  A    between atoms: C_19  and  C_20
REMARK   10  A    between atoms: C_19  and  C_21
REMARK   11  A    between atoms: C_19  and  C_22
REMARK   12  A    between atoms: C_23  and  O_24
REMARK                            x       y       z     vdW  Elec       q    Type
REMARK                         _______ _______ _______ _____ _____    ______ ____
ROOT
ATOM      1  C   UNL     1       3.200   4.464  18.622  0.00  0.00    +0.000 A 
ATOM      2  C   UNL     1       2.457   5.674  18.442  0.00  0.00    +0.000 A 
ATOM      3  C   UNL     1       3.068   6.897  18.150  0.00  0.00    +0.000 A 
ATOM      4  C   UNL     1       4.464   6.888  18.007  0.00  0.00    +0.000 A 
ATOM      5  C   UNL     1       5.278   5.732  18.123  0.00  0.00    +0.000 A 
ATOM      6  C   UNL     1       4.610   4.540  18.500  0.00  0.00    +0.000 A 
ENDROOT
BRANCH   1   8
ATOM      7  C   UNL     1       2.816   2.624  20.289  0.00  0.00    +0.000 C 
ATOM      8  C   UNL     1       2.406   3.154  18.893  0.00  0.00    +0.000 C 
ATOM      9  C   UNL     1       2.754   2.107  17.811  0.00  0.00    +0.000 C 
ATOM     10  C   UNL     1       0.861   3.254  18.923  0.00  0.00    +0.000 C 
ENDBRANCH   1   8
BRANCH   5  11
ATOM     11  C   UNL     1       6.817   5.859  17.882  0.00  0.00    +0.000 C 
ATOM     12  C   UNL     1       7.562   5.709  19.224  0.00  0.00    +0.000 C 
ATOM     13  C   UNL     1       7.401   4.852  16.863  0.00  0.00    +0.000 C 
ATOM     14  C   UNL     1       7.213   7.251  17.315  0.00  0.00    +0.000 C 
ENDBRANCH   5  11
BRANCH   3  15
ATOM     15  C   UNL     1       2.279   8.166  17.958  0.00  0.00    +0.000 C 
ATOM     16  C   UNL     1       1.572   8.834  18.907  0.00  0.00    +0.000 C 
BRANCH  16  17
ATOM     17  C   UNL     1       0.899  10.116  18.687  0.00  0.00    +0.000 C 
ATOM     18  N   UNL     1       1.410  11.294  18.662  0.00  0.00    +0.000 NA
ATOM     19  C   UNL     1       0.254  12.189  18.474  0.00  0.00    +0.000 C 
ATOM     20  C   UNL     1      -0.927  11.274  18.229  0.00  0.00    +0.000 C 
ATOM     21  O   UNL     1      -0.442   9.982  18.499  0.00  0.00    +0.000 OA
ENDBRANCH  16  17
BRANCH  16  22
ATOM     22  C   UNL     1       1.555   8.217  20.296  0.00  0.00    +0.000 C 
ATOM     23  N   UNL     1       1.540   7.706  21.449  0.00  0.00    +0.000 NA
ENDBRANCH  16  22
ENDBRANCH   3  15
BRANCH   6  24
ATOM     24  O   UNL     1       5.349   3.439  18.841  0.00  0.00    +0.000 OA
ATOM     25  H   UNL     1       5.602   2.991  18.018  0.00  0.00    +0.000 HD
ENDBRANCH   6  24
TORSDOF 6
ENDMDL
MODEL 6
REMARK VINA RESULT:      -7.7      0.510      3.780
REMARK  Name = 
REMARK  12 active torsions:
REMARK  status: ('A' for Active; 'I' for Inactive)
REMARK    1  A    between atoms: C_1  and  C_2
REMARK    2  A    between atoms: C_2  and  C_3
REMARK    3  A    between atoms: C_2  and  C_4
REMARK    4  A    between atoms: C_2  and  C_5
REMARK    5  A    between atoms: C_7  and  C_8
REMARK    6  A    between atoms: C_9  and  C_10
REMARK    7  A    between atoms: C_9  and  C_12
REMARK    8  A    between atoms: C_18  and  C_19
REMARK    9  A    between atoms: C_19  and  C_20
REMARK   10  A    between atoms: C_19  and  C_21
REMARK   11  A    between atoms: C_19  and  C_22
REMARK   12  A    between atoms: C_23  and  O_24
REMARK                            x       y       z     vdW  Elec       q    Type
REMARK                         _______ _______ _______ _____ _____    ______ ____
ROOT
ATOM      1  C   UNL     1       5.080   5.834  17.911  0.00  0.00    +0.000 A 
ATOM      2  C   UNL     1       4.309   7.031  17.770  0.00  0.00    +0.000 A 
ATOM      3  C   UNL     1       2.939   7.081  18.043  0.00  0.00    +0.000 A 
ATOM      4  C   UNL     1       2.341   5.896  18.499  0.00  0.00    +0.000 A 
ATOM      5  C   UNL     1       3.034   4.676  18.713  0.00  0.00    +0.000 A 
ATOM      6  C   UNL     1       4.402   4.667  18.342  0.00  0.00    +0.000 A 
ENDROOT
BRANCH   1   8
ATOM      7  C   UNL     1       7.358   5.530  18.927  0.00  0.00    +0.000 C 
ATOM      8  C   UNL     1       6.608   5.914  17.628  0.00  0.00    +0.000 C 
ATOM      9  C   UNL     1       6.981   7.355  17.212  0.00  0.00    +0.000 C 
ATOM     10  C   UNL     1       7.176   4.982  16.530  0.00  0.00    +0.000 C 
ENDBRANCH   1   8
BRANCH   5  11
ATOM     11  C   UNL     1       2.251   3.448  19.281  0.00  0.00    +0.000 C 
ATOM     12  C   UNL     1       0.955   3.934  19.961  0.00  0.00    +0.000 C 
ATOM     13  C   UNL     1       1.896   2.363  18.236  0.00  0.00    +0.000 C 
ATOM     14  C   UNL     1       3.057   2.685  20.368  0.00  0.00    +0.000 C 
ENDBRANCH   5  11
BRANCH   3  15
ATOM     15  C   UNL     1       2.133   8.346  17.895  0.00  0.00    +0.000 C 
ATOM     16  C   UNL     1       1.462   9.000  18.879  0.00  0.00    +0.000 C 
BRANCH  16  17
ATOM     17  C   UNL     1       0.771  10.279  18.698  0.00  0.00    +0.000 C 
ATOM     18  N   UNL     1       1.268  11.463  18.694  0.00  0.00    +0.000 NA
ATOM     19  C   UNL     1       0.099  12.349  18.544  0.00  0.00    +0.000 C 
ATOM     20  C   UNL     1      -1.074  11.426  18.292  0.00  0.00    +0.000 C 
ATOM     21  O   UNL     1      -0.570  10.134  18.525  0.00  0.00    +0.000 OA
ENDBRANCH  16  17
BRANCH  16  22
ATOM     22  C   UNL     1       1.508   8.372  20.262  0.00  0.00    +0.000 C 
ATOM     23  N   UNL     1       1.546   7.851  21.410  0.00  0.00    +0.000 NA
ENDBRANCH  16  22
ENDBRANCH   3  15
BRANCH   6  24
ATOM     24  O   UNL     1       5.079   3.478  18.314  0.00  0.00    +0.000 OA
ATOM     25  H   UNL     1       5.591   3.452  17.489  0.00  0.00    +0.000 HD
ENDBRANCH   6  24
TORSDOF 6
ENDMDL
MODEL 7
REMARK VINA RESULT:      -7.7      0.745      1.105
REMARK  Name = 
REMARK  12 active torsions:
REMARK  status: ('A' for Active; 'I' for Inactive)
REMARK    1  A    between atoms: C_1  and  C_2
REMARK    2  A    between atoms: C_2  and  C_3
REMARK    3  A    between atoms: C_2  and  C_4
REMARK    4  A    between atoms: C_2  and  C_5
REMARK    5  A    between atoms: C_7  and  C_8
REMARK    6  A    between atoms: C_9  and  C_10
REMARK    7  A    between atoms: C_9  and  C_12
REMARK    8  A    between atoms: C_18  and  C_19
REMARK    9  A    between atoms: C_19  and  C_20
REMARK   10  A    between atoms: C_19  and  C_21
REMARK   11  A    between atoms: C_19  and  C_22
REMARK   12  A    between atoms: C_23  and  O_24
REMARK                            x       y       z     vdW  Elec       q    Type
REMARK                         _______ _______ _______ _____ _____    ______ ____
ROOT
ATOM      1  C   UNL     1       3.249   4.649  18.581  0.00  0.00    +0.000 A 
ATOM      2  C   UNL     1       2.456   5.830  18.424  0.00  0.00    +0.000 A 
ATOM      3  C   UNL     1       3.006   7.065  18.071  0.00  0.00    +0.000 A 
ATOM      4  C   UNL     1       4.390   7.100  17.842  0.00  0.00    +0.000 A 
ATOM      5  C   UNL     1       5.248   5.973  17.931  0.00  0.00    +0.000 A 
ATOM      6  C   UNL     1       4.645   4.768  18.371  0.00  0.00    +0.000 A 
ENDROOT
BRANCH   1   8
ATOM      7  C   UNL     1       2.538   2.421  17.665  0.00  0.00    +0.000 C 
ATOM      8  C   UNL     1       2.518   3.320  18.926  0.00  0.00    +0.000 C 
ATOM      9  C   UNL     1       1.058   3.624  19.331  0.00  0.00    +0.000 C 
ATOM     10  C   UNL     1       3.115   2.455  20.063  0.00  0.00    +0.000 C 
ENDBRANCH   1   8
BRANCH   5  11
ATOM     11  C   UNL     1       6.764   6.146  17.592  0.00  0.00    +0.000 C 
ATOM     12  C   UNL     1       7.120   5.279  16.368  0.00  0.00    +0.000 C 
ATOM     13  C   UNL     1       7.209   7.604  17.326  0.00  0.00    +0.000 C 
ATOM     14  C   UNL     1       7.686   5.669  18.749  0.00  0.00    +0.000 C 
ENDBRANCH   5  11
BRANCH   3  15
ATOM     15  C   UNL     1       2.163   8.304  17.903  0.00  0.00    +0.000 C 
ATOM     16  C   UNL     1       1.459   8.944  18.873  0.00  0.00    +0.000 C 
BRANCH  16  17
ATOM     17  C   UNL     1       0.731  10.200  18.673  0.00  0.00    +0.000 C 
ATOM     18  N   UNL     1      -0.502  10.367  18.355  0.00  0.00    +0.000 NA
ATOM     19  C   UNL     1      -0.650  11.828  18.228  0.00  0.00    +0.000 C 
ATOM     20  C   UNL     1       0.664  12.408  18.705  0.00  0.00    +0.000 C 
ATOM     21  O   UNL     1       1.514  11.298  18.854  0.00  0.00    +0.000 OA
ENDBRANCH  16  17
BRANCH  16  22
ATOM     22  C   UNL     1       1.505   8.327  20.261  0.00  0.00    +0.000 C 
ATOM     23  N   UNL     1       1.543   7.816  21.413  0.00  0.00    +0.000 NA
ENDBRANCH  16  22
ENDBRANCH   3  15
BRANCH   6  24
ATOM     24  O   UNL     1       5.440   3.700  18.687  0.00  0.00    +0.000 OA
ATOM     25  H   UNL     1       4.932   3.122  19.279  0.00  0.00    +0.000 HD
ENDBRANCH   6  24
TORSDOF 6
ENDMDL
MODEL 8
REMARK VINA RESULT:      -7.6      0.795      3.885
REMARK  Name = 
REMARK  12 active torsions:
REMARK  status: ('A' for Active; 'I' for Inactive)
REMARK    1  A    between atoms: C_1  and  C_2
REMARK    2  A    between atoms: C_2  and  C_3
REMARK    3  A    between atoms: C_2  and  C_4
REMARK    4  A    between atoms: C_2  and  C_5
REMARK    5  A    between atoms: C_7  and  C_8
REMARK    6  A    between atoms: C_9  and  C_10
REMARK    7  A    between atoms: C_9  and  C_12
REMARK    8  A    between atoms: C_18  and  C_19
REMARK    9  A    between atoms: C_19  and  C_20
REMARK   10  A    between atoms: C_19  and  C_21
REMARK   11  A    between atoms: C_19  and  C_22
REMARK   12  A    between atoms: C_23  and  O_24
REMARK                            x       y       z     vdW  Elec       q    Type
REMARK                         _______ _______ _______ _____ _____    ______ ____
ROOT
ATOM      1  C   UNL     1       5.121   5.872  17.906  0.00  0.00    +0.000 A 
ATOM      2  C   UNL     1       4.316   7.046  17.764  0.00  0.00    +0.000 A 
ATOM      3  C   UNL     1       2.939   7.050  18.009  0.00  0.00    +0.000 A 
ATOM      4  C   UNL     1       2.370   5.841  18.438  0.00  0.00    +0.000 A 
ATOM      5  C   UNL     1       3.095   4.640  18.649  0.00  0.00    +0.000 A 
ATOM      6  C   UNL     1       4.470   4.679  18.307  0.00  0.00    +0.000 A 
ENDROOT
BRANCH   1   8
ATOM      7  C   UNL     1       6.962   7.487  17.346  0.00  0.00    +0.000 C 
ATOM      8  C   UNL     1       6.651   6.002  17.656  0.00  0.00    +0.000 C 
ATOM      9  C   UNL     1       7.054   5.120  16.453  0.00  0.00    +0.000 C 
ATOM     10  C   UNL     1       7.596   5.613  18.819  0.00  0.00    +0.000 C 
ENDBRANCH   1   8
BRANCH   5  11
ATOM     11  C   UNL     1       2.339   3.381  19.185  0.00  0.00    +0.000 C 
ATOM     12  C   UNL     1       3.165   2.726  20.310  0.00  0.00    +0.000 C 
ATOM     13  C   UNL     1       0.906   3.654  19.702  0.00  0.00    +0.000 C 
ATOM     14  C   UNL     1       2.152   2.294  18.090  0.00  0.00    +0.000 C 
ENDBRANCH   5  11
BRANCH   3  15
ATOM     15  C   UNL     1       2.098   8.292  17.862  0.00  0.00    +0.000 C 
ATOM     16  C   UNL     1       1.441   8.950  18.852  0.00  0.00    +0.000 C 
BRANCH  16  17
ATOM     17  C   UNL     1       0.713  10.207  18.668  0.00  0.00    +0.000 C 
ATOM     18  N   UNL     1      -0.511  10.379  18.321  0.00  0.00    +0.000 NA
ATOM     19  C   UNL     1      -0.663  11.842  18.231  0.00  0.00    +0.000 C 
ATOM     20  C   UNL     1       0.635  12.414  18.759  0.00  0.00    +0.000 C 
ATOM     21  O   UNL     1       1.486  11.303  18.900  0.00  0.00    +0.000 OA
ENDBRANCH  16  17
BRANCH  16  22
ATOM     22  C   UNL     1       1.545   8.351  20.246  0.00  0.00    +0.000 C 
ATOM     23  N   UNL     1       1.630   7.854  21.402  0.00  0.00    +0.000 NA
ENDBRANCH  16  22
ENDBRANCH   3  15
BRANCH   6  24
ATOM     24  O   UNL     1       5.184   3.512  18.277  0.00  0.00    +0.000 OA
ATOM     25  H   UNL     1       5.783   3.554  17.515  0.00  0.00    +0.000 HD
ENDBRANCH   6  24
TORSDOF 6
ENDMDL
MODEL 9
REMARK VINA RESULT:      -7.6      0.706      1.510
REMARK  Name = 
REMARK  12 active torsions:
REMARK  status: ('A' for Active; 'I' for Inactive)
REMARK    1  A    between atoms: C_1  and  C_2
REMARK    2  A    between atoms: C_2  and  C_3
REMARK    3  A    between atoms: C_2  and  C_4
REMARK    4  A    between atoms: C_2  and  C_5
REMARK    5  A    between atoms: C_7  and  C_8
REMARK    6  A    between atoms: C_9  and  C_10
REMARK    7  A    between atoms: C_9  and  C_12
REMARK    8  A    between atoms: C_18  and  C_19
REMARK    9  A    between atoms: C_19  and  C_20
REMARK   10  A    between atoms: C_19  and  C_21
REMARK   11  A    between atoms: C_19  and  C_22
REMARK   12  A    between atoms: C_23  and  O_24
REMARK                            x       y       z     vdW  Elec       q    Type
REMARK                         _______ _______ _______ _____ _____    ______ ____
ROOT
ATOM      1  C   UNL     1       3.232   4.521  18.644  0.00  0.00    +0.000 A 
ATOM      2  C   UNL     1       2.468   5.716  18.455  0.00  0.00    +0.000 A 
ATOM      3  C   UNL     1       3.057   6.947  18.152  0.00  0.00    +0.000 A 
ATOM      4  C   UNL     1       4.453   6.962  18.007  0.00  0.00    +0.000 A 
ATOM      5  C   UNL     1       5.287   5.820  18.131  0.00  0.00    +0.000 A 
ATOM      6  C   UNL     1       4.640   4.620  18.518  0.00  0.00    +0.000 A 
ENDROOT
BRANCH   1   8
ATOM      7  C   UNL     1       2.960   2.633  20.278  0.00  0.00    +0.000 C 
ATOM      8  C   UNL     1       2.461   3.200  18.926  0.00  0.00    +0.000 C 
ATOM      9  C   UNL     1       2.743   2.186  17.795  0.00  0.00    +0.000 C 
ATOM     10  C   UNL     1       0.921   3.291  19.057  0.00  0.00    +0.000 C 
ENDBRANCH   1   8
BRANCH   5  11
ATOM     11  C   UNL     1       6.823   5.973  17.886  0.00  0.00    +0.000 C 
ATOM     12  C   UNL     1       7.116   7.373  17.310  0.00  0.00    +0.000 C 
ATOM     13  C   UNL     1       7.706   5.746  19.136  0.00  0.00    +0.000 C 
ATOM     14  C   UNL     1       7.360   4.950  16.846  0.00  0.00    +0.000 C 
ENDBRANCH   5  11
BRANCH   3  15
ATOM     15  C   UNL     1       2.245   8.202  17.950  0.00  0.00    +0.000 C 
ATOM     16  C   UNL     1       1.524   8.861  18.894  0.00  0.00    +0.000 C 
BRANCH  16  17
ATOM     17  C   UNL     1       0.828  10.130  18.665  0.00  0.00    +0.000 C 
ATOM     18  N   UNL     1      -0.407  10.323  18.371  0.00  0.00    +0.000 NA
ATOM     19  C   UNL     1      -0.516  11.782  18.192  0.00  0.00    +0.000 C 
ATOM     20  C   UNL     1       0.827  12.339  18.613  0.00  0.00    +0.000 C 
ATOM     21  O   UNL     1       1.647  11.210  18.783  0.00  0.00    +0.000 OA
ENDBRANCH  16  17
BRANCH  16  22
ATOM     22  C   UNL     1       1.513   8.252  20.286  0.00  0.00    +0.000 C 
ATOM     23  N   UNL     1       1.504   7.746  21.441  0.00  0.00    +0.000 NA
ENDBRANCH  16  22
ENDBRANCH   3  15
BRANCH   6  24
ATOM     24  O   UNL     1       5.398   3.535  18.867  0.00  0.00    +0.000 OA
ATOM     25  H   UNL     1       6.065   3.837  19.505  0.00  0.00    +0.000 HD
ENDBRANCH   6  24
TORSDOF 6
ENDMDL
