MODEL 1
REMARK VINA RESULT:      -7.5      0.000      0.000
REMARK  Name = 
REMARK  11 active torsions:
REMARK  status: ('A' for Active; 'I' for Inactive)
REMARK    1  A    between atoms: C_1  and  N_2
REMARK    2  A    between atoms: C_8  and  C_9
REMARK    3  A    between atoms: C_11  and  C_12
REMARK    4  A    between atoms: C_12  and  C_13
REMARK    5  A    between atoms: C_12  and  C_14
REMARK    6  A    between atoms: C_12  and  C_15
REMARK    7  A    between atoms: C_16  and  O_17
REMARK    8  A    between atoms: C_18  and  C_19
REMARK    9  A    between atoms: C_19  and  C_20
REMARK   10  A    between atoms: C_19  and  C_21
REMARK   11  A    between atoms: C_19  and  C_22
REMARK                            x       y       z     vdW  Elec       q    Type
REMARK                         _______ _______ _______ _____ _____    ______ ____
ROOT
ATOM      1  C   UNL     1       2.984   6.853  18.796  0.00  0.00    +0.000 A 
ATOM      2  C   UNL     1       4.331   6.788  18.456  0.00  0.00    +0.000 A 
ATOM      3  C   UNL     1       5.107   5.617  18.603  0.00  0.00    +0.000 A 
ATOM      4  C   UNL     1       4.424   4.449  19.115  0.00  0.00    +0.000 A 
ATOM      5  C   UNL     1       3.035   4.508  19.482  0.00  0.00    +0.000 A 
ATOM      6  C   UNL     1       2.357   5.732  19.315  0.00  0.00    +0.000 A 
ENDROOT
BRANCH   1  14
ATOM      7  C   UNL     1       0.659   8.968  23.419  0.00  0.00    +0.000 C 
ATOM      8  N   UNL     1       0.717   9.379  22.037  0.00  0.00    +0.000 NA
ATOM      9  C   UNL     1       0.226  10.476  21.554  0.00  0.00    +0.000 C 
ATOM     10  N   UNL     1      -0.436  11.419  22.388  0.00  0.00    +0.000 N 
ATOM     11  N   UNL     1       0.354  10.757  20.156  0.00  0.00    +0.000 N 
ATOM     12  C   UNL     1       1.031   9.888  19.258  0.00  0.00    +0.000 A 
ATOM     13  N   UNL     1       1.609   8.729  19.619  0.00  0.00    +0.000 NA
ATOM     14  C   UNL     1       2.234   8.113  18.576  0.00  0.00    +0.000 A 
ATOM     15  N   UNL     1       2.174   8.748  17.369  0.00  0.00    +0.000 NA
ATOM     16  S   UNL     1       1.292  10.138  17.635  0.00  0.00    +0.000 S 
ATOM     17  H   UNL     1      -0.548  11.268  23.401  0.00  0.00    +0.000 HD
ATOM     18  H   UNL     1      -0.812  12.288  21.983  0.00  0.00    +0.000 HD
ATOM     19  H   UNL     1      -0.034  11.636  19.785  0.00  0.00    +0.000 HD
ENDBRANCH   1  14
BRANCH   3  20
ATOM     20  C   UNL     1       6.633   5.674  18.223  0.00  0.00    +0.000 C 
ATOM     21  C   UNL     1       7.038   6.997  17.506  0.00  0.00    +0.000 C 
ATOM     22  C   UNL     1       7.501   5.618  19.504  0.00  0.00    +0.000 C 
ATOM     23  C   UNL     1       7.028   4.548  17.237  0.00  0.00    +0.000 C 
ENDBRANCH   3  20
BRANCH   5  24
ATOM     24  C   UNL     1       2.271   3.269  20.053  0.00  0.00    +0.000 C 
ATOM     25  C   UNL     1       2.381   2.074  19.080  0.00  0.00    +0.000 C 
ATOM     26  C   UNL     1       2.839   2.781  21.416  0.00  0.00    +0.000 C 
ATOM     27  C   UNL     1       0.784   3.611  20.296  0.00  0.00    +0.000 C 
ENDBRANCH   5  24
BRANCH   4  28
ATOM     28  O   UNL     1       5.049   3.264  19.274  0.00  0.00    +0.000 OA
ATOM     29  H   UNL     1       5.717   3.038  19.921  0.00  0.00    +0.000 HD
ENDBRANCH   4  28
TORSDOF 4
ENDMDL
MODEL 2
REMARK VINA RESULT:      -7.4      0.046      1.232
REMARK  Name = 
REMARK  11 active torsions:
REMARK  status: ('A' for Active; 'I' for Inactive)
REMARK    1  A    between atoms: C_1  and  N_2
REMARK    2  A    between atoms: C_8  and  C_9
REMARK    3  A    between atoms: C_11  and  C_12
REMARK    4  A    between atoms: C_12  and  C_13
REMARK    5  A    between atoms: C_12  and  C_14
REMARK    6  A    between atoms: C_12  and  C_15
REMARK    7  A    between atoms: C_16  and  O_17
REMARK    8  A    between atoms: C_18  and  C_19
REMARK    9  A    between atoms: C_19  and  C_20
REMARK   10  A    between atoms: C_19  and  C_21
REMARK   11  A    between atoms: C_19  and  C_22
REMARK                            x       y       z     vdW  Elec       q    Type
REMARK                         _______ _______ _______ _____ _____    ______ ____
ROOT
ATOM      1  C   UNL     1       2.980   6.860  18.809  0.00  0.00    +0.000 A 
ATOM      2  C   UNL     1       4.331   6.804  18.481  0.00  0.00    +0.000 A 
ATOM      3  C   UNL     1       5.112   5.636  18.629  0.00  0.00    +0.000 A 
ATOM      4  C   UNL     1       4.430   4.462  19.127  0.00  0.00    +0.000 A 
ATOM      5  C   UNL     1       3.038   4.512  19.482  0.00  0.00    +0.000 A 
ATOM      6  C   UNL     1       2.355   5.733  19.316  0.00  0.00    +0.000 A 
ENDROOT
BRANCH   1  14
ATOM      7  C   UNL     1       0.661   8.974  23.435  0.00  0.00    +0.000 C 
ATOM      8  N   UNL     1       0.714   9.383  22.053  0.00  0.00    +0.000 NA
ATOM      9  C   UNL     1       0.218  10.477  21.570  0.00  0.00    +0.000 C 
ATOM     10  N   UNL     1      -0.445  11.420  22.404  0.00  0.00    +0.000 N 
ATOM     11  N   UNL     1       0.342  10.758  20.171  0.00  0.00    +0.000 N 
ATOM     12  C   UNL     1       1.019   9.890  19.273  0.00  0.00    +0.000 A 
ATOM     13  N   UNL     1       1.602   8.733  19.633  0.00  0.00    +0.000 NA
ATOM     14  C   UNL     1       2.226   8.118  18.590  0.00  0.00    +0.000 A 
ATOM     15  N   UNL     1       2.162   8.752  17.382  0.00  0.00    +0.000 NA
ATOM     16  S   UNL     1       1.275  10.138  17.649  0.00  0.00    +0.000 S 
ATOM     17  H   UNL     1      -0.554  11.270  23.417  0.00  0.00    +0.000 HD
ATOM     18  H   UNL     1      -0.824  12.287  21.999  0.00  0.00    +0.000 HD
ATOM     19  H   UNL     1      -0.050  11.635  19.800  0.00  0.00    +0.000 HD
ENDBRANCH   1  14
BRANCH   3  20
ATOM     20  C   UNL     1       6.641   5.703  18.263  0.00  0.00    +0.000 C 
ATOM     21  C   UNL     1       7.104   4.534  17.343  0.00  0.00    +0.000 C 
ATOM     22  C   UNL     1       6.939   6.997  17.465  0.00  0.00    +0.000 C 
ATOM     23  C   UNL     1       7.543   5.606  19.518  0.00  0.00    +0.000 C 
ENDBRANCH   3  20
BRANCH   5  24
ATOM     24  C   UNL     1       2.275   3.265  20.039  0.00  0.00    +0.000 C 
ATOM     25  C   UNL     1       0.782   3.602  20.257  0.00  0.00    +0.000 C 
ATOM     26  C   UNL     1       2.316   2.047  19.073  0.00  0.00    +0.000 C 
ATOM     27  C   UNL     1       2.904   2.791  21.369  0.00  0.00    +0.000 C 
ENDBRANCH   5  24
BRANCH   4  28
ATOM     28  O   UNL     1       5.060   3.279  19.286  0.00  0.00    +0.000 OA
ATOM     29  H   UNL     1       5.062   2.717  20.060  0.00  0.00    +0.000 HD
ENDBRANCH   4  28
TORSDOF 4
ENDMDL
MODEL 3
REMARK VINA RESULT:      -7.3      0.106      3.725
REMARK  Name = 
REMARK  11 active torsions:
REMARK  status: ('A' for Active; 'I' for Inactive)
REMARK    1  A    between atoms: C_1  and  N_2
REMARK    2  A    between atoms: C_8  and  C_9
REMARK    3  A    between atoms: C_11  and  C_12
REMARK    4  A    between atoms: C_12  and  C_13
REMARK    5  A    between atoms: C_12  and  C_14
REMARK    6  A    between atoms: C_12  and  C_15
REMARK    7  A    between atoms: C_16  and  O_17
REMARK    8  A    between atoms: C_18  and  C_19
REMARK    9  A    between atoms: C_19  and  C_20
REMARK   10  A    between atoms: C_19  and  C_21
REMARK   11  A    between atoms: C_19  and  C_22
REMARK                            x       y       z     vdW  Elec       q    Type
REMARK                         _______ _______ _______ _____ _____    ______ ____
ROOT
ATOM      1  C   UNL     1       2.988   6.918  18.711  0.00  0.00    +0.000 A 
ATOM      2  C   UNL     1       2.374   5.791  19.246  0.00  0.00    +0.000 A 
ATOM      3  C   UNL     1       3.059   4.578  19.480  0.00  0.00    +0.000 A 
ATOM      4  C   UNL     1       4.468   4.559  19.154  0.00  0.00    +0.000 A 
ATOM      5  C   UNL     1       5.111   5.713  18.588  0.00  0.00    +0.000 A 
ATOM      6  C   UNL     1       4.331   6.868  18.375  0.00  0.00    +0.000 A 
ENDROOT
BRANCH   1  14
ATOM      7  C   UNL     1       0.769   8.934  23.429  0.00  0.00    +0.000 C 
ATOM      8  N   UNL     1       0.772   9.360  22.051  0.00  0.00    +0.000 NA
ATOM      9  C   UNL     1       0.240  10.449  21.595  0.00  0.00    +0.000 C 
ATOM     10  N   UNL     1      -0.416  11.369  22.460  0.00  0.00    +0.000 N 
ATOM     11  N   UNL     1       0.316  10.747  20.197  0.00  0.00    +0.000 N 
ATOM     12  C   UNL     1       0.982   9.903  19.269  0.00  0.00    +0.000 A 
ATOM     13  N   UNL     1       1.598   8.754  19.598  0.00  0.00    +0.000 NA
ATOM     14  C   UNL     1       2.203   8.163  18.529  0.00  0.00    +0.000 A 
ATOM     15  N   UNL     1       2.089   8.808  17.331  0.00  0.00    +0.000 NA
ATOM     16  S   UNL     1       1.184  10.174  17.641  0.00  0.00    +0.000 S 
ATOM     17  H   UNL     1      -0.490  11.206  23.474  0.00  0.00    +0.000 HD
ATOM     18  H   UNL     1      -0.824  12.232  22.077  0.00  0.00    +0.000 HD
ATOM     19  H   UNL     1      -0.104  11.620  19.848  0.00  0.00    +0.000 HD
ENDBRANCH   1  14
BRANCH   3  20
ATOM     20  C   UNL     1       2.249   3.356  20.051  0.00  0.00    +0.000 C 
ATOM     21  C   UNL     1       2.766   2.871  21.439  0.00  0.00    +0.000 C 
ATOM     22  C   UNL     1       0.772   3.760  20.281  0.00  0.00    +0.000 C 
ATOM     23  C   UNL     1       2.347   2.114  19.132  0.00  0.00    +0.000 C 
ENDBRANCH   3  20
BRANCH   5  24
ATOM     24  C   UNL     1       6.628   5.720  18.209  0.00  0.00    +0.000 C 
ATOM     25  C   UNL     1       7.500   5.620  19.481  0.00  0.00    +0.000 C 
ATOM     26  C   UNL     1       7.032   4.524  17.302  0.00  0.00    +0.000 C 
ATOM     27  C   UNL     1       6.988   7.004  17.427  0.00  0.00    +0.000 C 
ENDBRANCH   5  24
BRANCH   4  28
ATOM     28  O   UNL     1       5.237   3.468  19.359  0.00  0.00    +0.000 OA
ATOM     29  H   UNL     1       4.947   2.568  19.503  0.00  0.00    +0.000 HD
ENDBRANCH   4  28
TORSDOF 4
ENDMDL
MODEL 4
REMARK VINA RESULT:      -7.3      0.102      3.733
REMARK  Name = 
REMARK  11 active torsions:
REMARK  status: ('A' for Active; 'I' for Inactive)
REMARK    1  A    between atoms: C_1  and  N_2
REMARK    2  A    between atoms: C_8  and  C_9
REMARK    3  A    between atoms: C_11  and  C_12
REMARK    4  A    between atoms: C_12  and  C_13
REMARK    5  A    between atoms: C_12  and  C_14
REMARK    6  A    between atoms: C_12  and  C_15
REMARK    7  A    between atoms: C_16  and  O_17
REMARK    8  A    between atoms: C_18  and  C_19
REMARK    9  A    between atoms: C_19  and  C_20
REMARK   10  A    between atoms: C_19  and  C_21
REMARK   11  A    between atoms: C_19  and  C_22
REMARK                            x       y       z     vdW  Elec       q    Type
REMARK                         _______ _______ _______ _____ _____    ______ ____
ROOT
ATOM      1  C   UNL     1       2.988   6.899  18.722  0.00  0.00    +0.000 A 
ATOM      2  C   UNL     1       2.374   5.772  19.259  0.00  0.00    +0.000 A 
ATOM      3  C   UNL     1       3.059   4.561  19.498  0.00  0.00    +0.000 A 
ATOM      4  C   UNL     1       4.469   4.542  19.174  0.00  0.00    +0.000 A 
ATOM      5  C   UNL     1       5.112   5.695  18.605  0.00  0.00    +0.000 A 
ATOM      6  C   UNL     1       4.331   6.848  18.387  0.00  0.00    +0.000 A 
ENDROOT
BRANCH   1  14
ATOM      7  C   UNL     1       0.777   8.938  23.434  0.00  0.00    +0.000 C 
ATOM      8  N   UNL     1       0.777   9.357  22.053  0.00  0.00    +0.000 NA
ATOM      9  C   UNL     1       0.244  10.443  21.593  0.00  0.00    +0.000 C 
ATOM     10  N   UNL     1      -0.411  11.367  22.455  0.00  0.00    +0.000 N 
ATOM     11  N   UNL     1       0.317  10.734  20.193  0.00  0.00    +0.000 N 
ATOM     12  C   UNL     1       0.982   9.885  19.268  0.00  0.00    +0.000 A 
ATOM     13  N   UNL     1       1.599   8.739  19.602  0.00  0.00    +0.000 NA
ATOM     14  C   UNL     1       2.202   8.142  18.535  0.00  0.00    +0.000 A 
ATOM     15  N   UNL     1       2.086   8.782  17.334  0.00  0.00    +0.000 NA
ATOM     16  S   UNL     1       1.181  10.149  17.639  0.00  0.00    +0.000 S 
ATOM     17  H   UNL     1      -0.483  11.209  23.470  0.00  0.00    +0.000 HD
ATOM     18  H   UNL     1      -0.820  12.229  22.068  0.00  0.00    +0.000 HD
ATOM     19  H   UNL     1      -0.104  11.605  19.841  0.00  0.00    +0.000 HD
ENDBRANCH   1  14
BRANCH   3  20
ATOM     20  C   UNL     1       2.250   3.340  20.072  0.00  0.00    +0.000 C 
ATOM     21  C   UNL     1       0.729   3.637  20.241  0.00  0.00    +0.000 C 
ATOM     22  C   UNL     1       2.329   2.143  19.093  0.00  0.00    +0.000 C 
ATOM     23  C   UNL     1       2.737   2.934  21.485  0.00  0.00    +0.000 C 
ENDBRANCH   3  20
BRANCH   5  24
ATOM     24  C   UNL     1       6.630   5.702  18.228  0.00  0.00    +0.000 C 
ATOM     25  C   UNL     1       6.952   4.528  17.276  0.00  0.00    +0.000 C 
ATOM     26  C   UNL     1       7.065   7.000  17.491  0.00  0.00    +0.000 C 
ATOM     27  C   UNL     1       7.506   5.604  19.497  0.00  0.00    +0.000 C 
ENDBRANCH   5  24
BRANCH   4  28
ATOM     28  O   UNL     1       5.238   3.453  19.383  0.00  0.00    +0.000 OA
ATOM     29  H   UNL     1       5.989   3.371  19.970  0.00  0.00    +0.000 HD
ENDBRANCH   4  28
TORSDOF 4
ENDMDL
MODEL 5
REMARK VINA RESULT:      -7.1      0.888      1.330
REMARK  Name = 
REMARK  11 active torsions:
REMARK  status: ('A' for Active; 'I' for Inactive)
REMARK    1  A    between atoms: C_1  and  N_2
REMARK    2  A    between atoms: C_8  and  C_9
REMARK    3  A    between atoms: C_11  and  C_12
REMARK    4  A    between atoms: C_12  and  C_13
REMARK    5  A    between atoms: C_12  and  C_14
REMARK    6  A    between atoms: C_12  and  C_15
REMARK    7  A    between atoms: C_16  and  O_17
REMARK    8  A    between atoms: C_18  and  C_19
REMARK    9  A    between atoms: C_19  and  C_20
REMARK   10  A    between atoms: C_19  and  C_21
REMARK   11  A    between atoms: C_19  and  C_22
REMARK                            x       y       z     vdW  Elec       q    Type
REMARK                         _______ _______ _______ _____ _____    ______ ____
ROOT
ATOM      1  C   UNL     1       2.960   7.195  18.311  0.00  0.00    +0.000 A 
ATOM      2  C   UNL     1       4.204   6.982  17.725  0.00  0.00    +0.000 A 
ATOM      3  C   UNL     1       4.832   5.717  17.689  0.00  0.00    +0.000 A 
ATOM      4  C   UNL     1       4.103   4.617  18.282  0.00  0.00    +0.000 A 
ATOM      5  C   UNL     1       2.823   4.828  18.902  0.00  0.00    +0.000 A 
ATOM      6  C   UNL     1       2.294   6.134  18.902  0.00  0.00    +0.000 A 
ENDROOT
BRANCH   1  14
ATOM      7  C   UNL     1      -0.350   8.346  22.666  0.00  0.00    +0.000 C 
ATOM      8  N   UNL     1       0.078   9.079  21.500  0.00  0.00    +0.000 NA
ATOM      9  C   UNL     1      -0.218  10.311  21.231  0.00  0.00    +0.000 C 
ATOM     10  N   UNL     1      -1.020  11.088  22.113  0.00  0.00    +0.000 N 
ATOM     11  N   UNL     1       0.276  10.916  20.031  0.00  0.00    +0.000 N 
ATOM     12  C   UNL     1       1.112  10.226  19.113  0.00  0.00    +0.000 A 
ATOM     13  N   UNL     1       1.519   8.954  19.270  0.00  0.00    +0.000 NA
ATOM     14  C   UNL     1       2.356   8.549  18.274  0.00  0.00    +0.000 A 
ATOM     15  N   UNL     1       2.638   9.468  17.304  0.00  0.00    +0.000 NA
ATOM     16  S   UNL     1       1.789  10.840  17.725  0.00  0.00    +0.000 S 
ATOM     17  H   UNL     1      -1.393  10.703  22.993  0.00  0.00    +0.000 HD
ATOM     18  H   UNL     1      -1.235  12.067  21.883  0.00  0.00    +0.000 HD
ATOM     19  H   UNL     1       0.040  11.898  19.833  0.00  0.00    +0.000 HD
ENDBRANCH   1  14
BRANCH   3  20
ATOM     20  C   UNL     1       6.258   5.605  17.035  0.00  0.00    +0.000 C 
ATOM     21  C   UNL     1       7.203   4.620  17.787  0.00  0.00    +0.000 C 
ATOM     22  C   UNL     1       6.139   5.044  15.597  0.00  0.00    +0.000 C 
ATOM     23  C   UNL     1       7.008   6.960  17.042  0.00  0.00    +0.000 C 
ENDBRANCH   3  20
BRANCH   5  24
ATOM     24  C   UNL     1       2.017   3.664  19.566  0.00  0.00    +0.000 C 
ATOM     25  C   UNL     1       1.496   2.688  18.488  0.00  0.00    +0.000 C 
ATOM     26  C   UNL     1       2.873   2.817  20.550  0.00  0.00    +0.000 C 
ATOM     27  C   UNL     1       0.831   4.221  20.386  0.00  0.00    +0.000 C 
ENDBRANCH   5  24
BRANCH   4  28
ATOM     28  O   UNL     1       4.585   3.356  18.286  0.00  0.00    +0.000 OA
ATOM     29  H   UNL     1       5.277   2.997  18.840  0.00  0.00    +0.000 HD
ENDBRANCH   4  28
TORSDOF 4
ENDMDL
MODEL 6
REMARK VINA RESULT:      -7.0      0.923      3.754
REMARK  Name = 
REMARK  11 active torsions:
REMARK  status: ('A' for Active; 'I' for Inactive)
REMARK    1  A    between atoms: C_1  and  N_2
REMARK    2  A    between atoms: C_8  and  C_9
REMARK    3  A    between atoms: C_11  and  C_12
REMARK    4  A    between atoms: C_12  and  C_13
REMARK    5  A    between atoms: C_12  and  C_14
REMARK    6  A    between atoms: C_12  and  C_15
REMARK    7  A    between atoms: C_16  and  O_17
REMARK    8  A    between atoms: C_18  and  C_19
REMARK    9  A    between atoms: C_19  and  C_20
REMARK   10  A    between atoms: C_19  and  C_21
REMARK   11  A    between atoms: C_19  and  C_22
REMARK                            x       y       z     vdW  Elec       q    Type
REMARK                         _______ _______ _______ _____ _____    ______ ____
ROOT
ATOM      1  C   UNL     1       2.965   7.012  18.233  0.00  0.00    +0.000 A 
ATOM      2  C   UNL     1       2.283   6.017  18.926  0.00  0.00    +0.000 A 
ATOM      3  C   UNL     1       2.746   4.686  19.018  0.00  0.00    +0.000 A 
ATOM      4  C   UNL     1       4.003   4.393  18.364  0.00  0.00    +0.000 A 
ATOM      5  C   UNL     1       4.710   5.410  17.633  0.00  0.00    +0.000 A 
ATOM      6  C   UNL     1       4.150   6.702  17.586  0.00  0.00    +0.000 A 
ENDROOT
BRANCH   1  14
ATOM      7  C   UNL     1      -0.361   8.225  22.559  0.00  0.00    +0.000 C 
ATOM      8  N   UNL     1       0.119   8.961  21.415  0.00  0.00    +0.000 NA
ATOM      9  C   UNL     1      -0.115  10.211  21.168  0.00  0.00    +0.000 C 
ATOM     10  N   UNL     1      -0.895  11.006  22.054  0.00  0.00    +0.000 N 
ATOM     11  N   UNL     1       0.426  10.817  19.989  0.00  0.00    +0.000 N 
ATOM     12  C   UNL     1       1.245  10.107  19.070  0.00  0.00    +0.000 A 
ATOM     13  N   UNL     1       1.591   8.816  19.206  0.00  0.00    +0.000 NA
ATOM     14  C   UNL     1       2.425   8.393  18.215  0.00  0.00    +0.000 A 
ATOM     15  N   UNL     1       2.765   9.318  17.269  0.00  0.00    +0.000 NA
ATOM     16  S   UNL     1       1.973  10.719  17.706  0.00  0.00    +0.000 S 
ATOM     17  H   UNL     1      -1.300  10.620  22.919  0.00  0.00    +0.000 HD
ATOM     18  H   UNL     1      -1.061  11.999  21.842  0.00  0.00    +0.000 HD
ATOM     19  H   UNL     1       0.239  11.813  19.808  0.00  0.00    +0.000 HD
ENDBRANCH   1  14
BRANCH   3  20
ATOM     20  C   UNL     1       1.869   3.637  19.796  0.00  0.00    +0.000 C 
ATOM     21  C   UNL     1       2.658   2.878  20.904  0.00  0.00    +0.000 C 
ATOM     22  C   UNL     1       0.712   4.356  20.533  0.00  0.00    +0.000 C 
ATOM     23  C   UNL     1       1.326   2.528  18.861  0.00  0.00    +0.000 C 
ENDBRANCH   3  20
BRANCH   5  24
ATOM     24  C   UNL     1       6.062   5.122  16.902  0.00  0.00    +0.000 C 
ATOM     25  C   UNL     1       6.603   6.412  16.245  0.00  0.00    +0.000 C 
ATOM     26  C   UNL     1       7.175   4.615  17.862  0.00  0.00    +0.000 C 
ATOM     27  C   UNL     1       5.878   4.026  15.829  0.00  0.00    +0.000 C 
ENDBRANCH   5  24
BRANCH   4  28
ATOM     28  O   UNL     1       4.564   3.166  18.404  0.00  0.00    +0.000 OA
ATOM     29  H   UNL     1       5.021   2.709  17.699  0.00  0.00    +0.000 HD
ENDBRANCH   4  28
TORSDOF 4
ENDMDL
MODEL 7
REMARK VINA RESULT:      -6.8      0.948      3.833
REMARK  Name = 
REMARK  11 active torsions:
REMARK  status: ('A' for Active; 'I' for Inactive)
REMARK    1  A    between atoms: C_1  and  N_2
REMARK    2  A    between atoms: C_8  and  C_9
REMARK    3  A    between atoms: C_11  and  C_12
REMARK    4  A    between atoms: C_12  and  C_13
REMARK    5  A    between atoms: C_12  and  C_14
REMARK    6  A    between atoms: C_12  and  C_15
REMARK    7  A    between atoms: C_16  and  O_17
REMARK    8  A    between atoms: C_18  and  C_19
REMARK    9  A    between atoms: C_19  and  C_20
REMARK   10  A    between atoms: C_19  and  C_21
REMARK   11  A    between atoms: C_19  and  C_22
REMARK                            x       y       z     vdW  Elec       q    Type
REMARK                         _______ _______ _______ _____ _____    ______ ____
ROOT
ATOM      1  C   UNL     1       2.975   7.270  18.211  0.00  0.00    +0.000 A 
ATOM      2  C   UNL     1       2.310   6.223  18.842  0.00  0.00    +0.000 A 
ATOM      3  C   UNL     1       2.832   4.912  18.917  0.00  0.00    +0.000 A 
ATOM      4  C   UNL     1       4.131   4.699  18.315  0.00  0.00    +0.000 A 
ATOM      5  C   UNL     1       4.820   5.770  17.648  0.00  0.00    +0.000 A 
ATOM      6  C   UNL     1       4.202   7.036  17.612  0.00  0.00    +0.000 A 
ENDROOT
BRANCH   1  14
ATOM      7  C   UNL     1      -0.381   8.287  22.566  0.00  0.00    +0.000 C 
ATOM      8  N   UNL     1       0.059   9.056  21.426  0.00  0.00    +0.000 NA
ATOM      9  C   UNL     1      -0.235  10.295  21.192  0.00  0.00    +0.000 C 
ATOM     10  N   UNL     1      -1.047  11.044  22.089  0.00  0.00    +0.000 N 
ATOM     11  N   UNL     1       0.271  10.936  20.016  0.00  0.00    +0.000 N 
ATOM     12  C   UNL     1       1.117  10.274  19.086  0.00  0.00    +0.000 A 
ATOM     13  N   UNL     1       1.523   8.998  19.209  0.00  0.00    +0.000 NA
ATOM     14  C   UNL     1       2.371   8.624  18.209  0.00  0.00    +0.000 A 
ATOM     15  N   UNL     1       2.662   9.572  17.270  0.00  0.00    +0.000 NA
ATOM     16  S   UNL     1       1.808  10.931  17.724  0.00  0.00    +0.000 S 
ATOM     17  H   UNL     1      -1.428  10.632  22.953  0.00  0.00    +0.000 HD
ATOM     18  H   UNL     1      -1.260  12.030  21.887  0.00  0.00    +0.000 HD
ATOM     19  H   UNL     1       0.036  11.924  19.845  0.00  0.00    +0.000 HD
ENDBRANCH   1  14
BRANCH   3  20
ATOM     20  C   UNL     1       1.972   3.800  19.620  0.00  0.00    +0.000 C 
ATOM     21  C   UNL     1       0.806   4.376  20.479  0.00  0.00    +0.000 C 
ATOM     22  C   UNL     1       1.294   2.901  18.557  0.00  0.00    +0.000 C 
ATOM     23  C   UNL     1       2.813   2.952  20.607  0.00  0.00    +0.000 C 
ENDBRANCH   3  20
BRANCH   5  24
ATOM     24  C   UNL     1       6.217   5.569  16.973  0.00  0.00    +0.000 C 
ATOM     25  C   UNL     1       7.082   4.597  17.806  0.00  0.00    +0.000 C 
ATOM     26  C   UNL     1       6.118   4.961  15.546  0.00  0.00    +0.000 C 
ATOM     27  C   UNL     1       6.948   6.922  16.822  0.00  0.00    +0.000 C 
ENDBRANCH   5  24
BRANCH   4  28
ATOM     28  O   UNL     1       4.747   3.499  18.345  0.00  0.00    +0.000 OA
ATOM     29  H   UNL     1       4.433   2.672  17.982  0.00  0.00    +0.000 HD
ENDBRANCH   4  28
TORSDOF 4
ENDMDL
