MODEL 1
REMARK VINA RESULT:      -7.7      0.000      0.000
REMARK  Name = 
REMARK  5 active torsions:
REMARK  status: ('A' for Active; 'I' for Inactive)
REMARK    1  A    between atoms: C_1  and  C_2
REMARK    2  A    between atoms: C_5  and  N_6
REMARK    3  A    between atoms: C_7  and  C_9
REMARK    4  A    between atoms: C_9  and  N_10
REMARK    5  A    between atoms: C_11  and  C_12
REMARK                            x       y       z     vdW  Elec       q    Type
REMARK                         _______ _______ _______ _____ _____    ______ ____
ROOT
ATOM      1  N   UNL     1       3.309   5.005  18.486  0.00  0.00    +0.000 N 
ATOM      2  C   UNL     1       4.609   4.550  18.313  0.00  0.00    +0.000 A 
ATOM      3  N   UNL     1       4.878   3.611  19.202  0.00  0.00    +0.000 NA
ATOM      4  C   UNL     1       3.751   3.434  19.949  0.00  0.00    +0.000 A 
ATOM      5  C   UNL     1       3.517   2.532  20.996  0.00  0.00    +0.000 A 
ATOM      6  C   UNL     1       2.262   2.521  21.609  0.00  0.00    +0.000 A 
ATOM      7  C   UNL     1       1.257   3.388  21.179  0.00  0.00    +0.000 A 
ATOM      8  C   UNL     1       1.471   4.286  20.125  0.00  0.00    +0.000 A 
ATOM      9  C   UNL     1       2.742   4.292  19.531  0.00  0.00    +0.000 A 
ENDROOT
BRANCH   2  10
ATOM     10  C   UNL     1       5.588   4.922  17.321  0.00  0.00    +0.000 A 
ATOM     11  C   UNL     1       6.567   5.899  17.301  0.00  0.00    +0.000 A 
ATOM     12  N   UNL     1       7.362   5.966  16.168  0.00  0.00    +0.000 NA
ATOM     13  C   UNL     1       7.016   5.007  15.346  0.00  0.00    +0.000 A 
ATOM     14  S   UNL     1       5.718   4.015  15.848  0.00  0.00    +0.000 S 
ENDBRANCH   2  10
BRANCH   1  15
ATOM     15  C   UNL     1       2.552   5.912  17.641  0.00  0.00    +0.000 C 
BRANCH  15  17
ATOM     16  N   UNL     1       1.556   7.971  18.560  0.00  0.00    +0.000 N 
ATOM     17  C   UNL     1       2.691   7.363  18.053  0.00  0.00    +0.000 C 
ATOM     18  O   UNL     1       3.772   7.933  17.922  0.00  0.00    +0.000 OA
ATOM     19  H   UNL     1       0.809   7.385  18.916  0.00  0.00    +0.000 HD
BRANCH  16  24
ATOM     20  C   UNL     1       1.398  13.513  20.102  0.00  0.00    +0.000 C 
ATOM     21  C   UNL     1       1.394  12.070  19.686  0.00  0.00    +0.000 A 
ATOM     22  C   UNL     1       1.855  11.704  18.422  0.00  0.00    +0.000 A 
ATOM     23  C   UNL     1       1.887  10.359  18.044  0.00  0.00    +0.000 A 
ATOM     24  C   UNL     1       1.471   9.347  18.916  0.00  0.00    +0.000 A 
ATOM     25  C   UNL     1       0.956   9.725  20.166  0.00  0.00    +0.000 A 
ATOM     26 BR   UNL     1       0.328   8.427  21.406  0.00  0.00    +0.000 Br
ATOM     27  C   UNL     1       0.930  11.073  20.553  0.00  0.00    +0.000 A 
ENDBRANCH  16  24
ENDBRANCH  15  17
ENDBRANCH   1  15
TORSDOF 4
ENDMDL
MODEL 2
REMARK VINA RESULT:      -7.7      2.110      2.604
REMARK  Name = 
REMARK  5 active torsions:
REMARK  status: ('A' for Active; 'I' for Inactive)
REMARK    1  A    between atoms: C_1  and  C_2
REMARK    2  A    between atoms: C_5  and  N_6
REMARK    3  A    between atoms: C_7  and  C_9
REMARK    4  A    between atoms: C_9  and  N_10
REMARK    5  A    between atoms: C_11  and  C_12
REMARK                            x       y       z     vdW  Elec       q    Type
REMARK                         _______ _______ _______ _____ _____    ______ ____
ROOT
ATOM      1  N   UNL     1       3.534   5.530  18.259  0.00  0.00    +0.000 N 
ATOM      2  C   UNL     1       4.880   5.191  18.253  0.00  0.00    +0.000 A 
ATOM      3  N   UNL     1       5.014   3.882  18.373  0.00  0.00    +0.000 NA
ATOM      4  C   UNL     1       3.758   3.357  18.440  0.00  0.00    +0.000 A 
ATOM      5  C   UNL     1       3.365   2.015  18.539  0.00  0.00    +0.000 A 
ATOM      6  C   UNL     1       2.002   1.712  18.575  0.00  0.00    +0.000 A 
ATOM      7  C   UNL     1       1.050   2.729  18.505  0.00  0.00    +0.000 A 
ATOM      8  C   UNL     1       1.426   4.074  18.393  0.00  0.00    +0.000 A 
ATOM      9  C   UNL     1       2.799   4.359  18.372  0.00  0.00    +0.000 A 
ENDROOT
BRANCH   2  10
ATOM     10  C   UNL     1       6.039   6.035  18.090  0.00  0.00    +0.000 A 
ATOM     11  C   UNL     1       6.314   7.080  17.226  0.00  0.00    +0.000 A 
ATOM     12  N   UNL     1       7.548   7.695  17.361  0.00  0.00    +0.000 NA
ATOM     13  C   UNL     1       8.192   7.146  18.361  0.00  0.00    +0.000 A 
ATOM     14  S   UNL     1       7.396   5.859  19.155  0.00  0.00    +0.000 S 
ENDBRANCH   2  10
BRANCH   1  15
ATOM     15  C   UNL     1       2.929   6.824  17.998  0.00  0.00    +0.000 C 
BRANCH  15  17
ATOM     16  N   UNL     1       1.541   8.589  19.015  0.00  0.00    +0.000 N 
ATOM     17  C   UNL     1       2.258   7.423  19.217  0.00  0.00    +0.000 C 
ATOM     18  O   UNL     1       2.375   6.871  20.309  0.00  0.00    +0.000 OA
ATOM     19  H   UNL     1       1.239   8.817  18.074  0.00  0.00    +0.000 HD
BRANCH  16  24
ATOM     20  C   UNL     1      -1.149  11.635  23.088  0.00  0.00    +0.000 C 
ATOM     21  C   UNL     1      -0.406  10.847  22.048  0.00  0.00    +0.000 A 
ATOM     22  C   UNL     1      -0.331   9.458  22.142  0.00  0.00    +0.000 A 
ATOM     23  C   UNL     1       0.328   8.718  21.158  0.00  0.00    +0.000 A 
ATOM     24  C   UNL     1       0.919   9.340  20.052  0.00  0.00    +0.000 A 
ATOM     25  C   UNL     1       0.888  10.742  19.990  0.00  0.00    +0.000 A 
ATOM     26 BR   UNL     1       1.698  11.684  18.550  0.00  0.00    +0.000 Br
ATOM     27  C   UNL     1       0.221  11.489  20.973  0.00  0.00    +0.000 A 
ENDBRANCH  16  24
ENDBRANCH  15  17
ENDBRANCH   1  15
TORSDOF 4
ENDMDL
MODEL 3
REMARK VINA RESULT:      -7.6      2.133      4.401
REMARK  Name = 
REMARK  5 active torsions:
REMARK  status: ('A' for Active; 'I' for Inactive)
REMARK    1  A    between atoms: C_1  and  C_2
REMARK    2  A    between atoms: C_5  and  N_6
REMARK    3  A    between atoms: C_7  and  C_9
REMARK    4  A    between atoms: C_9  and  N_10
REMARK    5  A    between atoms: C_11  and  C_12
REMARK                            x       y       z     vdW  Elec       q    Type
REMARK                         _______ _______ _______ _____ _____    ______ ____
ROOT
ATOM      1  N   UNL     1       3.909   5.177  18.305  0.00  0.00    +0.000 N 
ATOM      2  C   UNL     1       3.620   3.863  18.648  0.00  0.00    +0.000 A 
ATOM      3  N   UNL     1       4.081   3.045  17.719  0.00  0.00    +0.000 NA
ATOM      4  C   UNL     1       4.688   3.817  16.773  0.00  0.00    +0.000 A 
ATOM      5  C   UNL     1       5.358   3.422  15.606  0.00  0.00    +0.000 A 
ATOM      6  C   UNL     1       5.923   4.403  14.789  0.00  0.00    +0.000 A 
ATOM      7  C   UNL     1       5.830   5.751  15.133  0.00  0.00    +0.000 A 
ATOM      8  C   UNL     1       5.175   6.161  16.302  0.00  0.00    +0.000 A 
ATOM      9  C   UNL     1       4.602   5.163  17.104  0.00  0.00    +0.000 A 
ENDROOT
BRANCH   2  10
ATOM     10  C   UNL     1       2.977   3.343  19.830  0.00  0.00    +0.000 A 
ATOM     11  C   UNL     1       3.470   2.686  20.944  0.00  0.00    +0.000 A 
ATOM     12  N   UNL     1       2.552   2.338  21.922  0.00  0.00    +0.000 NA
ATOM     13  C   UNL     1       1.367   2.773  21.570  0.00  0.00    +0.000 A 
ATOM     14  S   UNL     1       1.274   3.570  20.061  0.00  0.00    +0.000 S 
ENDBRANCH   2  10
BRANCH   1  15
ATOM     15  C   UNL     1       3.728   6.377  19.103  0.00  0.00    +0.000 C 
BRANCH  15  17
ATOM     16  N   UNL     1       2.281   8.352  19.384  0.00  0.00    +0.000 N 
ATOM     17  C   UNL     1       2.451   7.122  18.773  0.00  0.00    +0.000 C 
ATOM     18  O   UNL     1       1.634   6.620  18.004  0.00  0.00    +0.000 OA
ATOM     19  H   UNL     1       3.097   8.829  19.752  0.00  0.00    +0.000 HD
BRANCH  16  24
ATOM     20  C   UNL     1      -2.331  11.764  18.930  0.00  0.00    +0.000 C 
ATOM     21  C   UNL     1      -1.156  10.837  19.053  0.00  0.00    +0.000 A 
ATOM     22  C   UNL     1      -0.526  10.349  17.909  0.00  0.00    +0.000 A 
ATOM     23  C   UNL     1       0.590   9.515  18.017  0.00  0.00    +0.000 A 
ATOM     24  C   UNL     1       1.110   9.154  19.265  0.00  0.00    +0.000 A 
ATOM     25  C   UNL     1       0.439   9.602  20.413  0.00  0.00    +0.000 A 
ATOM     26 BR   UNL     1       1.043   9.133  22.155  0.00  0.00    +0.000 Br
ATOM     27  C   UNL     1      -0.676  10.446  20.309  0.00  0.00    +0.000 A 
ENDBRANCH  16  24
ENDBRANCH  15  17
ENDBRANCH   1  15
TORSDOF 4
ENDMDL
MODEL 4
REMARK VINA RESULT:      -7.5      1.592      1.739
REMARK  Name = 
REMARK  5 active torsions:
REMARK  status: ('A' for Active; 'I' for Inactive)
REMARK    1  A    between atoms: C_1  and  C_2
REMARK    2  A    between atoms: C_5  and  N_6
REMARK    3  A    between atoms: C_7  and  C_9
REMARK    4  A    between atoms: C_9  and  N_10
REMARK    5  A    between atoms: C_11  and  C_12
REMARK                            x       y       z     vdW  Elec       q    Type
REMARK                         _______ _______ _______ _____ _____    ______ ____
ROOT
ATOM      1  N   UNL     1       3.743   5.110  18.549  0.00  0.00    +0.000 N 
ATOM      2  C   UNL     1       4.321   4.428  17.487  0.00  0.00    +0.000 A 
ATOM      3  N   UNL     1       3.673   3.297  17.274  0.00  0.00    +0.000 NA
ATOM      4  C   UNL     1       2.658   3.241  18.182  0.00  0.00    +0.000 A 
ATOM      5  C   UNL     1       1.671   2.259  18.346  0.00  0.00    +0.000 A 
ATOM      6  C   UNL     1       0.712   2.428  19.347  0.00  0.00    +0.000 A 
ATOM      7  C   UNL     1       0.732   3.558  20.164  0.00  0.00    +0.000 A 
ATOM      8  C   UNL     1       1.705   4.555  20.005  0.00  0.00    +0.000 A 
ATOM      9  C   UNL     1       2.668   4.362  19.003  0.00  0.00    +0.000 A 
ENDROOT
BRANCH   2  10
ATOM     10  C   UNL     1       5.420   4.815  16.636  0.00  0.00    +0.000 A 
ATOM     11  C   UNL     1       6.513   5.637  16.845  0.00  0.00    +0.000 A 
ATOM     12  N   UNL     1       7.403   5.774  15.792  0.00  0.00    +0.000 NA
ATOM     13  C   UNL     1       7.009   5.017  14.797  0.00  0.00    +0.000 A 
ATOM     14  S   UNL     1       5.558   4.148  15.041  0.00  0.00    +0.000 S 
ENDBRANCH   2  10
BRANCH   1  15
ATOM     15  C   UNL     1       4.032   6.452  19.022  0.00  0.00    +0.000 C 
BRANCH  15  17
ATOM     16  N   UNL     1       2.217   8.026  19.573  0.00  0.00    +0.000 N 
ATOM     17  C   UNL     1       3.003   7.472  18.578  0.00  0.00    +0.000 C 
ATOM     18  O   UNL     1       2.904   7.758  17.387  0.00  0.00    +0.000 OA
ATOM     19  H   UNL     1       2.542   7.980  20.532  0.00  0.00    +0.000 HD
BRANCH  16  24
ATOM     20  C   UNL     1      -1.985  11.846  18.641  0.00  0.00    +0.000 C 
ATOM     21  C   UNL     1      -0.921  10.816  18.890  0.00  0.00    +0.000 A 
ATOM     22  C   UNL     1      -0.305  10.172  17.818  0.00  0.00    +0.000 A 
ATOM     23  C   UNL     1       0.710   9.239  18.042  0.00  0.00    +0.000 A 
ATOM     24  C   UNL     1       1.144   8.932  19.338  0.00  0.00    +0.000 A 
ATOM     25  C   UNL     1       0.482   9.541  20.415  0.00  0.00    +0.000 A 
ATOM     26 BR   UNL     1       0.969   9.160  22.214  0.00  0.00    +0.000 Br
ATOM     27  C   UNL     1      -0.532  10.485  20.194  0.00  0.00    +0.000 A 
ENDBRANCH  16  24
ENDBRANCH  15  17
ENDBRANCH   1  15
TORSDOF 4
ENDMDL
MODEL 5
REMARK VINA RESULT:      -7.4      2.243      2.589
REMARK  Name = 
REMARK  5 active torsions:
REMARK  status: ('A' for Active; 'I' for Inactive)
REMARK    1  A    between atoms: C_1  and  C_2
REMARK    2  A    between atoms: C_5  and  N_6
REMARK    3  A    between atoms: C_7  and  C_9
REMARK    4  A    between atoms: C_9  and  N_10
REMARK    5  A    between atoms: C_11  and  C_12
REMARK                            x       y       z     vdW  Elec       q    Type
REMARK                         _______ _______ _______ _____ _____    ______ ____
ROOT
ATOM      1  N   UNL     1       3.502   5.311  18.557  0.00  0.00    +0.000 N 
ATOM      2  C   UNL     1       4.832   4.916  18.605  0.00  0.00    +0.000 A 
ATOM      3  N   UNL     1       4.906   3.603  18.720  0.00  0.00    +0.000 NA
ATOM      4  C   UNL     1       3.627   3.130  18.730  0.00  0.00    +0.000 A 
ATOM      5  C   UNL     1       3.175   1.805  18.803  0.00  0.00    +0.000 A 
ATOM      6  C   UNL     1       1.799   1.560  18.780  0.00  0.00    +0.000 A 
ATOM      7  C   UNL     1       0.894   2.616  18.678  0.00  0.00    +0.000 A 
ATOM      8  C   UNL     1       1.331   3.945  18.593  0.00  0.00    +0.000 A 
ATOM      9  C   UNL     1       2.714   4.173  18.631  0.00  0.00    +0.000 A 
ENDROOT
BRANCH   2  10
ATOM     10  C   UNL     1       6.031   5.711  18.497  0.00  0.00    +0.000 A 
ATOM     11  C   UNL     1       7.195   5.745  19.244  0.00  0.00    +0.000 A 
ATOM     12  N   UNL     1       8.173   6.639  18.839  0.00  0.00    +0.000 NA
ATOM     13  C   UNL     1       7.768   7.252  17.753  0.00  0.00    +0.000 A 
ATOM     14  S   UNL     1       6.210   6.836  17.189  0.00  0.00    +0.000 S 
ENDBRANCH   2  10
BRANCH   1  15
ATOM     15  C   UNL     1       2.964   6.632  18.282  0.00  0.00    +0.000 C 
BRANCH  15  17
ATOM     16  N   UNL     1       1.566   8.428  19.227  0.00  0.00    +0.000 N 
ATOM     17  C   UNL     1       2.193   7.215  19.448  0.00  0.00    +0.000 C 
ATOM     18  O   UNL     1       2.158   6.610  20.518  0.00  0.00    +0.000 OA
ATOM     19  H   UNL     1       1.383   8.714  18.271  0.00  0.00    +0.000 HD
BRANCH  16  24
ATOM     20  C   UNL     1      -1.392  11.275  23.260  0.00  0.00    +0.000 C 
ATOM     21  C   UNL     1      -0.593  10.569  22.202  0.00  0.00    +0.000 A 
ATOM     22  C   UNL     1       0.450   9.717  22.564  0.00  0.00    +0.000 A 
ATOM     23  C   UNL     1       1.174   9.031  21.586  0.00  0.00    +0.000 A 
ATOM     24  C   UNL     1       0.872   9.168  20.226  0.00  0.00    +0.000 A 
ATOM     25  C   UNL     1      -0.141  10.070  19.864  0.00  0.00    +0.000 A 
ATOM     26 BR   UNL     1      -0.599  10.358  18.041  0.00  0.00    +0.000 Br
ATOM     27  C   UNL     1      -0.876  10.755  20.844  0.00  0.00    +0.000 A 
ENDBRANCH  16  24
ENDBRANCH  15  17
ENDBRANCH   1  15
TORSDOF 4
ENDMDL
MODEL 6
REMARK VINA RESULT:      -7.3      1.903      2.136
REMARK  Name = 
REMARK  5 active torsions:
REMARK  status: ('A' for Active; 'I' for Inactive)
REMARK    1  A    between atoms: C_1  and  C_2
REMARK    2  A    between atoms: C_5  and  N_6
REMARK    3  A    between atoms: C_7  and  C_9
REMARK    4  A    between atoms: C_9  and  N_10
REMARK    5  A    between atoms: C_11  and  C_12
REMARK                            x       y       z     vdW  Elec       q    Type
REMARK                         _______ _______ _______ _____ _____    ______ ____
ROOT
ATOM      1  N   UNL     1       3.465   5.167  19.291  0.00  0.00    +0.000 N 
ATOM      2  C   UNL     1       4.447   4.966  18.331  0.00  0.00    +0.000 A 
ATOM      3  N   UNL     1       4.204   3.852  17.665  0.00  0.00    +0.000 NA
ATOM      4  C   UNL     1       3.052   3.327  18.173  0.00  0.00    +0.000 A 
ATOM      5  C   UNL     1       2.361   2.171  17.784  0.00  0.00    +0.000 A 
ATOM      6  C   UNL     1       1.177   1.839  18.448  0.00  0.00    +0.000 A 
ATOM      7  C   UNL     1       0.690   2.648  19.474  0.00  0.00    +0.000 A 
ATOM      8  C   UNL     1       1.363   3.813  19.866  0.00  0.00    +0.000 A 
ATOM      9  C   UNL     1       2.556   4.123  19.197  0.00  0.00    +0.000 A 
ENDROOT
BRANCH   2  10
ATOM     10  C   UNL     1       5.572   5.798  17.980  0.00  0.00    +0.000 A 
ATOM     11  C   UNL     1       5.730   6.801  17.039  0.00  0.00    +0.000 A 
ATOM     12  N   UNL     1       6.969   7.419  16.985  0.00  0.00    +0.000 NA
ATOM     13  C   UNL     1       7.739   6.916  17.919  0.00  0.00    +0.000 A 
ATOM     14  S   UNL     1       7.055   5.671  18.870  0.00  0.00    +0.000 S 
ENDBRANCH   2  10
BRANCH   1  15
ATOM     15  C   UNL     1       3.253   6.330  20.134  0.00  0.00    +0.000 C 
BRANCH  15  17
ATOM     16  N   UNL     1       1.775   8.288  20.367  0.00  0.00    +0.000 N 
ATOM     17  C   UNL     1       2.333   7.358  19.508  0.00  0.00    +0.000 C 
ATOM     18  O   UNL     1       2.118   7.326  18.298  0.00  0.00    +0.000 OA
ATOM     19  H   UNL     1       2.215   8.445  21.266  0.00  0.00    +0.000 HD
BRANCH  16  24
ATOM     20  C   UNL     1      -1.937  12.413  18.842  0.00  0.00    +0.000 C 
ATOM     21  C   UNL     1      -1.004  11.305  19.238  0.00  0.00    +0.000 A 
ATOM     22  C   UNL     1      -0.234  10.659  18.271  0.00  0.00    +0.000 A 
ATOM     23  C   UNL     1       0.663   9.652  18.639  0.00  0.00    +0.000 A 
ATOM     24  C   UNL     1       0.822   9.272  19.977  0.00  0.00    +0.000 A 
ATOM     25  C   UNL     1       0.005   9.886  20.938  0.00  0.00    +0.000 A 
ATOM     26 BR   UNL     1       0.115   9.410  22.776  0.00  0.00    +0.000 Br
ATOM     27  C   UNL     1      -0.891  10.903  20.574  0.00  0.00    +0.000 A 
ENDBRANCH  16  24
ENDBRANCH  15  17
ENDBRANCH   1  15
TORSDOF 4
ENDMDL
MODEL 7
REMARK VINA RESULT:      -7.3      2.677      5.425
REMARK  Name = 
REMARK  5 active torsions:
REMARK  status: ('A' for Active; 'I' for Inactive)
REMARK    1  A    between atoms: C_1  and  C_2
REMARK    2  A    between atoms: C_5  and  N_6
REMARK    3  A    between atoms: C_7  and  C_9
REMARK    4  A    between atoms: C_9  and  N_10
REMARK    5  A    between atoms: C_11  and  C_12
REMARK                            x       y       z     vdW  Elec       q    Type
REMARK                         _______ _______ _______ _____ _____    ______ ____
ROOT
ATOM      1  N   UNL     1       5.838   4.171  15.613  0.00  0.00    +0.000 N 
ATOM      2  C   UNL     1       6.973   4.878  15.983  0.00  0.00    +0.000 A 
ATOM      3  N   UNL     1       7.712   5.131  14.918  0.00  0.00    +0.000 NA
ATOM      4  C   UNL     1       7.055   4.607  13.844  0.00  0.00    +0.000 A 
ATOM      5  C   UNL     1       7.412   4.639  12.488  0.00  0.00    +0.000 A 
ATOM      6  C   UNL     1       6.563   4.042  11.554  0.00  0.00    +0.000 A 
ATOM      7  C   UNL     1       5.378   3.431  11.963  0.00  0.00    +0.000 A 
ATOM      8  C   UNL     1       5.002   3.401  13.313  0.00  0.00    +0.000 A 
ATOM      9  C   UNL     1       5.873   3.994  14.238  0.00  0.00    +0.000 A 
ENDROOT
BRANCH   2  10
ATOM     10  C   UNL     1       7.367   5.368  17.282  0.00  0.00    +0.000 A 
ATOM     11  C   UNL     1       7.700   4.721  18.458  0.00  0.00    +0.000 A 
ATOM     12  N   UNL     1       8.056   5.520  19.533  0.00  0.00    +0.000 NA
ATOM     13  C   UNL     1       8.038   6.775  19.157  0.00  0.00    +0.000 A 
ATOM     14  S   UNL     1       7.564   7.072  17.542  0.00  0.00    +0.000 S 
ENDBRANCH   2  10
BRANCH   1  15
ATOM     15  C   UNL     1       4.686   3.824  16.428  0.00  0.00    +0.000 C 
BRANCH  15  17
ATOM     16  N   UNL     1       3.446   4.769  18.336  0.00  0.00    +0.000 N 
ATOM     17  C   UNL     1       4.071   5.018  17.127  0.00  0.00    +0.000 C 
ATOM     18  O   UNL     1       4.142   6.130  16.609  0.00  0.00    +0.000 OA
ATOM     19  H   UNL     1       3.679   3.919  18.838  0.00  0.00    +0.000 HD
BRANCH  16  24
ATOM     20  C   UNL     1       0.754   8.739  21.515  0.00  0.00    +0.000 C 
ATOM     21  C   UNL     1       1.415   7.693  20.665  0.00  0.00    +0.000 A 
ATOM     22  C   UNL     1       2.035   8.051  19.468  0.00  0.00    +0.000 A 
ATOM     23  C   UNL     1       2.683   7.087  18.691  0.00  0.00    +0.000 A 
ATOM     24  C   UNL     1       2.738   5.746  19.091  0.00  0.00    +0.000 A 
ATOM     25  C   UNL     1       2.066   5.382  20.268  0.00  0.00    +0.000 A 
ATOM     26 BR   UNL     1       2.047   3.580  20.875  0.00  0.00    +0.000 Br
ATOM     27  C   UNL     1       1.421   6.348  21.055  0.00  0.00    +0.000 A 
ENDBRANCH  16  24
ENDBRANCH  15  17
ENDBRANCH   1  15
TORSDOF 4
ENDMDL
MODEL 8
REMARK VINA RESULT:      -7.3      2.220      4.454
REMARK  Name = 
REMARK  5 active torsions:
REMARK  status: ('A' for Active; 'I' for Inactive)
REMARK    1  A    between atoms: C_1  and  C_2
REMARK    2  A    between atoms: C_5  and  N_6
REMARK    3  A    between atoms: C_7  and  C_9
REMARK    4  A    between atoms: C_9  and  N_10
REMARK    5  A    between atoms: C_11  and  C_12
REMARK                            x       y       z     vdW  Elec       q    Type
REMARK                         _______ _______ _______ _____ _____    ______ ____
ROOT
ATOM      1  N   UNL     1       4.348   5.578  18.180  0.00  0.00    +0.000 N 
ATOM      2  C   UNL     1       4.467   4.429  18.948  0.00  0.00    +0.000 A 
ATOM      3  N   UNL     1       5.714   4.293  19.362  0.00  0.00    +0.000 NA
ATOM      4  C   UNL     1       6.412   5.361  18.881  0.00  0.00    +0.000 A 
ATOM      5  C   UNL     1       7.762   5.690  19.069  0.00  0.00    +0.000 A 
ATOM      6  C   UNL     1       8.257   6.859  18.485  0.00  0.00    +0.000 A 
ATOM      7  C   UNL     1       7.420   7.686  17.736  0.00  0.00    +0.000 A 
ATOM      8  C   UNL     1       6.066   7.376  17.550  0.00  0.00    +0.000 A 
ATOM      9  C   UNL     1       5.590   6.192  18.132  0.00  0.00    +0.000 A 
ENDROOT
BRANCH   2  10
ATOM     10  C   UNL     1       3.453   3.484  19.351  0.00  0.00    +0.000 A 
ATOM     11  C   UNL     1       2.921   3.162  20.587  0.00  0.00    +0.000 A 
ATOM     12  N   UNL     1       1.925   2.199  20.608  0.00  0.00    +0.000 NA
ATOM     13  C   UNL     1       1.668   1.824  19.379  0.00  0.00    +0.000 A 
ATOM     14  S   UNL     1       2.611   2.553  18.155  0.00  0.00    +0.000 S 
ENDBRANCH   2  10
BRANCH   1  15
ATOM     15  C   UNL     1       3.139   6.192  17.658  0.00  0.00    +0.000 C 
BRANCH  15  17
ATOM     16  N   UNL     1       2.203   8.055  18.971  0.00  0.00    +0.000 N 
ATOM     17  C   UNL     1       2.209   6.690  18.745  0.00  0.00    +0.000 C 
ATOM     18  O   UNL     1       1.519   5.889  19.370  0.00  0.00    +0.000 OA
ATOM     19  H   UNL     1       2.551   8.670  18.244  0.00  0.00    +0.000 HD
BRANCH  16  24
ATOM     20  C   UNL     1      -0.938  10.492  23.133  0.00  0.00    +0.000 C 
ATOM     21  C   UNL     1      -0.092   9.895  22.045  0.00  0.00    +0.000 A 
ATOM     22  C   UNL     1       0.968   9.048  22.367  0.00  0.00    +0.000 A 
ATOM     23  C   UNL     1       1.736   8.461  21.359  0.00  0.00    +0.000 A 
ATOM     24  C   UNL     1       1.462   8.695  20.006  0.00  0.00    +0.000 A 
ATOM     25  C   UNL     1       0.431   9.591  19.688  0.00  0.00    +0.000 A 
ATOM     26 BR   UNL     1       0.007  10.007  17.881  0.00  0.00    +0.000 Br
ATOM     27  C   UNL     1      -0.348  10.176  20.698  0.00  0.00    +0.000 A 
ENDBRANCH  16  24
ENDBRANCH  15  17
ENDBRANCH   1  15
TORSDOF 4
ENDMDL
MODEL 9
REMARK VINA RESULT:      -7.1      1.930      2.393
REMARK  Name = 
REMARK  5 active torsions:
REMARK  status: ('A' for Active; 'I' for Inactive)
REMARK    1  A    between atoms: C_1  and  C_2
REMARK    2  A    between atoms: C_5  and  N_6
REMARK    3  A    between atoms: C_7  and  C_9
REMARK    4  A    between atoms: C_9  and  N_10
REMARK    5  A    between atoms: C_11  and  C_12
REMARK                            x       y       z     vdW  Elec       q    Type
REMARK                         _______ _______ _______ _____ _____    ______ ____
ROOT
ATOM      1  N   UNL     1       3.196   5.758  19.091  0.00  0.00    +0.000 N 
ATOM      2  C   UNL     1       4.501   5.335  18.883  0.00  0.00    +0.000 A 
ATOM      3  N   UNL     1       4.644   4.093  19.311  0.00  0.00    +0.000 NA
ATOM      4  C   UNL     1       3.430   3.693  19.785  0.00  0.00    +0.000 A 
ATOM      5  C   UNL     1       3.055   2.450  20.316  0.00  0.00    +0.000 A 
ATOM      6  C   UNL     1       1.732   2.265  20.726  0.00  0.00    +0.000 A 
ATOM      7  C   UNL     1       0.801   3.295  20.599  0.00  0.00    +0.000 A 
ATOM      8  C   UNL     1       1.157   4.538  20.059  0.00  0.00    +0.000 A 
ATOM      9  C   UNL     1       2.493   4.710  19.665  0.00  0.00    +0.000 A 
ENDROOT
BRANCH   2  10
ATOM     10  C   UNL     1       5.602   6.025  18.256  0.00  0.00    +0.000 A 
ATOM     11  C   UNL     1       5.658   6.927  17.208  0.00  0.00    +0.000 A 
ATOM     12  N   UNL     1       6.910   7.419  16.872  0.00  0.00    +0.000 NA
ATOM     13  C   UNL     1       7.799   6.924  17.698  0.00  0.00    +0.000 A 
ATOM     14  S   UNL     1       7.211   5.832  18.874  0.00  0.00    +0.000 S 
ENDBRANCH   2  10
BRANCH   1  15
ATOM     15  C   UNL     1       2.563   6.984  18.637  0.00  0.00    +0.000 C 
BRANCH  15  17
ATOM     16  N   UNL     1       1.194   8.883  19.408  0.00  0.00    +0.000 N 
ATOM     17  C   UNL     1       1.998   7.816  19.770  0.00  0.00    +0.000 C 
ATOM     18  O   UNL     1       2.271   7.527  20.932  0.00  0.00    +0.000 OA
ATOM     19  H   UNL     1       0.775   8.884  18.485  0.00  0.00    +0.000 HD
BRANCH  16  24
ATOM     20  C   UNL     1      -1.181  12.710  22.989  0.00  0.00    +0.000 C 
ATOM     21  C   UNL     1      -0.521  11.716  22.078  0.00  0.00    +0.000 A 
ATOM     22  C   UNL     1      -0.637  10.349  22.330  0.00  0.00    +0.000 A 
ATOM     23  C   UNL     1      -0.055   9.419  21.466  0.00  0.00    +0.000 A 
ATOM     24  C   UNL     1       0.648   9.825  20.325  0.00  0.00    +0.000 A 
ATOM     25  C   UNL     1       0.810  11.202  20.106  0.00  0.00    +0.000 A 
ATOM     26 BR   UNL     1       1.782  11.855  18.608  0.00  0.00    +0.000 Br
ATOM     27  C   UNL     1       0.220  12.139  20.968  0.00  0.00    +0.000 A 
ENDBRANCH  16  24
ENDBRANCH  15  17
ENDBRANCH   1  15
TORSDOF 4
ENDMDL
