MODEL 1
REMARK VINA RESULT:      -7.3      0.000      0.000
REMARK  Name = 
REMARK  7 active torsions:
REMARK  status: ('A' for Active; 'I' for Inactive)
REMARK    1  A    between atoms: C_1  and  C_2
REMARK    2  A    between atoms: C_5  and  O_6
REMARK    3  A    between atoms: O_6  and  C_7
REMARK    4  A    between atoms: C_9  and  C_10
REMARK    5  A    between atoms: C_13  and  C_14
REMARK    6  A    between atoms: N_15  and  O_16
REMARK    7  A    between atoms: N_20  and  C_21
REMARK                            x       y       z     vdW  Elec       q    Type
REMARK                         _______ _______ _______ _____ _____    ______ ____
ROOT
ATOM      1  C   UNL     1       6.562   5.124  16.302  0.00  0.00    +0.000 A 
ATOM      2  N   UNL     1       7.428   5.109  15.250  0.00  0.00    +0.000 NA
ATOM      3  C   UNL     1       6.953   4.798  14.028  0.00  0.00    +0.000 A 
ATOM      4  C   UNL     1       7.951   4.786  12.909  0.00  0.00    +0.000 C 
ATOM      5  C   UNL     1       5.614   4.502  13.809  0.00  0.00    +0.000 A 
ATOM      6  C   UNL     1       4.726   4.549  14.887  0.00  0.00    +0.000 A 
ATOM      7  C   UNL     1       5.188   4.889  16.164  0.00  0.00    +0.000 A 
ENDROOT
BRANCH   7   8
ATOM      8  C   UNL     1       4.200   5.026  17.299  0.00  0.00    +0.000 C 
ATOM      9  N   UNL     1       3.806   6.240  17.568  0.00  0.00    +0.000 NA
ATOM     10  N   UNL     1       3.773   3.846  17.948  0.00  0.00    +0.000 N 
ATOM     11  C   UNL     1       2.323   3.531  17.855  0.00  0.00    +0.000 C 
ATOM     12  C   UNL     1       1.956   2.197  18.544  0.00  0.00    +0.000 C 
ATOM     13  N   UNL     1       2.421   2.055  19.939  0.00  0.00    +0.000 NA
ATOM     14  C   UNL     1       1.692   2.938  20.847  0.00  0.00    +0.000 C 
ATOM     15  C   UNL     1       3.875   2.328  19.962  0.00  0.00    +0.000 C 
ATOM     16  C   UNL     1       4.310   3.664  19.320  0.00  0.00    +0.000 C 
BRANCH   9  17
ATOM     17  O   UNL     1       2.912   6.319  18.640  0.00  0.00    +0.000 OA
ATOM     18  H   UNL     1       3.466   6.015  19.381  0.00  0.00    +0.000 HD
ENDBRANCH   9  17
ENDBRANCH   7   8
BRANCH   1  19
ATOM     19  O   UNL     1       7.098   5.413  17.543  0.00  0.00    +0.000 OA
BRANCH  19  24
ATOM     20  C   UNL     1       9.133  10.600  18.647  0.00  0.00    +0.000 C 
ATOM     21  C   UNL     1       8.479   9.267  18.433  0.00  0.00    +0.000 A 
ATOM     22  C   UNL     1       8.853   8.155  19.196  0.00  0.00    +0.000 A 
ATOM     23  C   UNL     1       8.338   6.886  18.902  0.00  0.00    +0.000 A 
ATOM     24  C   UNL     1       7.443   6.717  17.844  0.00  0.00    +0.000 A 
ATOM     25  C   UNL     1       7.055   7.825  17.091  0.00  0.00    +0.000 A 
ATOM     26  C   UNL     1       7.559   9.096  17.391  0.00  0.00    +0.000 A 
ENDBRANCH  19  24
ENDBRANCH   1  19
TORSDOF 4
ENDMDL
MODEL 2
REMARK VINA RESULT:      -7.0      7.220     10.123
REMARK  Name = 
REMARK  7 active torsions:
REMARK  status: ('A' for Active; 'I' for Inactive)
REMARK    1  A    between atoms: C_1  and  C_2
REMARK    2  A    between atoms: C_5  and  O_6
REMARK    3  A    between atoms: O_6  and  C_7
REMARK    4  A    between atoms: C_9  and  C_10
REMARK    5  A    between atoms: C_13  and  C_14
REMARK    6  A    between atoms: N_15  and  O_16
REMARK    7  A    between atoms: N_20  and  C_21
REMARK                            x       y       z     vdW  Elec       q    Type
REMARK                         _______ _______ _______ _____ _____    ______ ____
ROOT
ATOM      1  C   UNL     1       0.135  10.852  18.542  0.00  0.00    +0.000 A 
ATOM      2  N   UNL     1      -0.868  10.154  17.940  0.00  0.00    +0.000 NA
ATOM      3  C   UNL     1      -2.137  10.571  18.110  0.00  0.00    +0.000 A 
ATOM      4  C   UNL     1      -3.202   9.760  17.435  0.00  0.00    +0.000 C 
ATOM      5  C   UNL     1      -2.452  11.691  18.869  0.00  0.00    +0.000 A 
ATOM      6  C   UNL     1      -1.415  12.421  19.458  0.00  0.00    +0.000 A 
ATOM      7  C   UNL     1      -0.085  12.021  19.282  0.00  0.00    +0.000 A 
ENDROOT
BRANCH   7   8
ATOM      8  C   UNL     1       1.027  12.873  19.847  0.00  0.00    +0.000 C 
ATOM      9  N   UNL     1       1.457  12.536  21.032  0.00  0.00    +0.000 NA
ATOM     10  N   UNL     1       1.519  13.930  19.049  0.00  0.00    +0.000 N 
ATOM     11  C   UNL     1       2.947  13.841  18.645  0.00  0.00    +0.000 C 
ATOM     12  C   UNL     1       3.383  15.008  17.730  0.00  0.00    +0.000 C 
ATOM     13  N   UNL     1       3.081  16.360  18.241  0.00  0.00    +0.000 NA
ATOM     14  C   UNL     1       3.915  16.706  19.391  0.00  0.00    +0.000 C 
ATOM     15  C   UNL     1       1.642  16.406  18.578  0.00  0.00    +0.000 C 
ATOM     16  C   UNL     1       1.143  15.287  19.518  0.00  0.00    +0.000 C 
BRANCH   9  17
ATOM     17  O   UNL     1       2.468  13.366  21.523  0.00  0.00    +0.000 OA
ATOM     18  H   UNL     1       3.209  13.146  20.930  0.00  0.00    +0.000 HD
ENDBRANCH   9  17
ENDBRANCH   7   8
BRANCH   1  19
ATOM     19  O   UNL     1       1.418  10.368  18.371  0.00  0.00    +0.000 OA
BRANCH  19  24
ATOM     20  C   UNL     1       2.106   5.163  20.541  0.00  0.00    +0.000 C 
ATOM     21  C   UNL     1       2.064   6.561  19.998  0.00  0.00    +0.000 A 
ATOM     22  C   UNL     1       1.542   7.611  20.762  0.00  0.00    +0.000 A 
ATOM     23  C   UNL     1       1.382   8.885  20.202  0.00  0.00    +0.000 A 
ATOM     24  C   UNL     1       1.742   9.122  18.874  0.00  0.00    +0.000 A 
ATOM     25  C   UNL     1       2.277   8.082  18.114  0.00  0.00    +0.000 A 
ATOM     26  C   UNL     1       2.451   6.812  18.676  0.00  0.00    +0.000 A 
ENDBRANCH  19  24
ENDBRANCH   1  19
TORSDOF 4
ENDMDL
MODEL 3
REMARK VINA RESULT:      -6.8      0.397      1.041
REMARK  Name = 
REMARK  7 active torsions:
REMARK  status: ('A' for Active; 'I' for Inactive)
REMARK    1  A    between atoms: C_1  and  C_2
REMARK    2  A    between atoms: C_5  and  O_6
REMARK    3  A    between atoms: O_6  and  C_7
REMARK    4  A    between atoms: C_9  and  C_10
REMARK    5  A    between atoms: C_13  and  C_14
REMARK    6  A    between atoms: N_15  and  O_16
REMARK    7  A    between atoms: N_20  and  C_21
REMARK                            x       y       z     vdW  Elec       q    Type
REMARK                         _______ _______ _______ _____ _____    ______ ____
ROOT
ATOM      1  C   UNL     1       6.374   5.363  16.640  0.00  0.00    +0.000 A 
ATOM      2  N   UNL     1       7.298   5.340  15.638  0.00  0.00    +0.000 NA
ATOM      3  C   UNL     1       6.915   4.921  14.417  0.00  0.00    +0.000 A 
ATOM      4  C   UNL     1       7.975   4.906  13.355  0.00  0.00    +0.000 C 
ATOM      5  C   UNL     1       5.613   4.523  14.147  0.00  0.00    +0.000 A 
ATOM      6  C   UNL     1       4.663   4.578  15.170  0.00  0.00    +0.000 A 
ATOM      7  C   UNL     1       5.028   5.028  16.445  0.00  0.00    +0.000 A 
ENDROOT
BRANCH   7   8
ATOM      8  C   UNL     1       3.970   5.169  17.514  0.00  0.00    +0.000 C 
ATOM      9  N   UNL     1       3.584   6.387  17.776  0.00  0.00    +0.000 NA
ATOM     10  N   UNL     1       3.478   3.988  18.114  0.00  0.00    +0.000 N 
ATOM     11  C   UNL     1       2.031   3.706  17.921  0.00  0.00    +0.000 C 
ATOM     12  C   UNL     1       1.592   2.369  18.562  0.00  0.00    +0.000 C 
ATOM     13  N   UNL     1       1.961   2.197  19.982  0.00  0.00    +0.000 NA
ATOM     14  C   UNL     1       1.191   3.082  20.855  0.00  0.00    +0.000 C 
ATOM     15  C   UNL     1       3.415   2.440  20.106  0.00  0.00    +0.000 C 
ATOM     16  C   UNL     1       3.918   3.775  19.516  0.00  0.00    +0.000 C 
BRANCH   9  17
ATOM     17  O   UNL     1       2.622   6.469  18.787  0.00  0.00    +0.000 OA
ATOM     18  H   UNL     1       2.581   5.546  19.095  0.00  0.00    +0.000 HD
ENDBRANCH   9  17
ENDBRANCH   7   8
BRANCH   1  19
ATOM     19  O   UNL     1       6.819   5.764  17.886  0.00  0.00    +0.000 OA
BRANCH  19  24
ATOM     20  C   UNL     1       8.977  10.973  18.575  0.00  0.00    +0.000 C 
ATOM     21  C   UNL     1       8.522   9.569  18.310  0.00  0.00    +0.000 A 
ATOM     22  C   UNL     1       7.541   9.302  17.349  0.00  0.00    +0.000 A 
ATOM     23  C   UNL     1       7.024   8.009  17.200  0.00  0.00    +0.000 A 
ATOM     24  C   UNL     1       7.484   6.969  18.009  0.00  0.00    +0.000 A 
ATOM     25  C   UNL     1       8.473   7.226  18.959  0.00  0.00    +0.000 A 
ATOM     26  C   UNL     1       9.000   8.515  19.100  0.00  0.00    +0.000 A 
ENDBRANCH  19  24
ENDBRANCH   1  19
TORSDOF 4
ENDMDL
MODEL 4
REMARK VINA RESULT:      -6.8      3.050      4.740
REMARK  Name = 
REMARK  7 active torsions:
REMARK  status: ('A' for Active; 'I' for Inactive)
REMARK    1  A    between atoms: C_1  and  C_2
REMARK    2  A    between atoms: C_5  and  O_6
REMARK    3  A    between atoms: O_6  and  C_7
REMARK    4  A    between atoms: C_9  and  C_10
REMARK    5  A    between atoms: C_13  and  C_14
REMARK    6  A    between atoms: N_15  and  O_16
REMARK    7  A    between atoms: N_20  and  C_21
REMARK                            x       y       z     vdW  Elec       q    Type
REMARK                         _______ _______ _______ _____ _____    ______ ____
ROOT
ATOM      1  C   UNL     1       5.142   6.397  18.028  0.00  0.00    +0.000 A 
ATOM      2  N   UNL     1       5.892   7.456  17.611  0.00  0.00    +0.000 NA
ATOM      3  C   UNL     1       7.203   7.479  17.920  0.00  0.00    +0.000 A 
ATOM      4  C   UNL     1       7.978   8.672  17.444  0.00  0.00    +0.000 C 
ATOM      5  C   UNL     1       7.812   6.459  18.639  0.00  0.00    +0.000 A 
ATOM      6  C   UNL     1       7.044   5.361  19.037  0.00  0.00    +0.000 A 
ATOM      7  C   UNL     1       5.683   5.301  18.713  0.00  0.00    +0.000 A 
ENDROOT
BRANCH   7   8
ATOM      8  C   UNL     1       4.889   4.066  19.070  0.00  0.00    +0.000 C 
ATOM      9  N   UNL     1       5.586   3.026  19.435  0.00  0.00    +0.000 NA
ATOM     10  N   UNL     1       3.480   4.147  19.004  0.00  0.00    +0.000 N 
ATOM     11  C   UNL     1       2.749   3.947  20.283  0.00  0.00    +0.000 C 
ATOM     12  C   UNL     1       1.219   4.107  20.128  0.00  0.00    +0.000 C 
ATOM     13  N   UNL     1       0.603   3.299  19.057  0.00  0.00    +0.000 NA
ATOM     14  C   UNL     1       0.607   1.873  19.380  0.00  0.00    +0.000 C 
ATOM     15  C   UNL     1       1.336   3.576  17.802  0.00  0.00    +0.000 C 
ATOM     16  C   UNL     1       2.868   3.401  17.876  0.00  0.00    +0.000 C 
BRANCH   9  17
ATOM     17  O   UNL     1       4.810   1.902  19.732  0.00  0.00    +0.000 OA
ATOM     18  H   UNL     1       5.195   1.615  20.579  0.00  0.00    +0.000 HD
ENDBRANCH   9  17
ENDBRANCH   7   8
BRANCH   1  19
ATOM     19  O   UNL     1       3.795   6.431  17.722  0.00  0.00    +0.000 OA
BRANCH  19  24
ATOM     20  C   UNL     1       0.047  10.224  19.680  0.00  0.00    +0.000 C 
ATOM     21  C   UNL     1       1.139   9.302  19.226  0.00  0.00    +0.000 A 
ATOM     22  C   UNL     1       1.640   9.371  17.921  0.00  0.00    +0.000 A 
ATOM     23  C   UNL     1       2.562   8.423  17.462  0.00  0.00    +0.000 A 
ATOM     24  C   UNL     1       2.995   7.396  18.304  0.00  0.00    +0.000 A 
ATOM     25  C   UNL     1       2.511   7.332  19.610  0.00  0.00    +0.000 A 
ATOM     26  C   UNL     1       1.599   8.287  20.075  0.00  0.00    +0.000 A 
ENDBRANCH  19  24
ENDBRANCH   1  19
TORSDOF 4
ENDMDL
MODEL 5
REMARK VINA RESULT:      -6.8      2.885      6.265
REMARK  Name = 
REMARK  7 active torsions:
REMARK  status: ('A' for Active; 'I' for Inactive)
REMARK    1  A    between atoms: C_1  and  C_2
REMARK    2  A    between atoms: C_5  and  O_6
REMARK    3  A    between atoms: O_6  and  C_7
REMARK    4  A    between atoms: C_9  and  C_10
REMARK    5  A    between atoms: C_13  and  C_14
REMARK    6  A    between atoms: N_15  and  O_16
REMARK    7  A    between atoms: N_20  and  C_21
REMARK                            x       y       z     vdW  Elec       q    Type
REMARK                         _______ _______ _______ _____ _____    ______ ____
ROOT
ATOM      1  C   UNL     1       3.555   4.860  19.671  0.00  0.00    +0.000 A 
ATOM      2  N   UNL     1       2.494   4.505  20.449  0.00  0.00    +0.000 NA
ATOM      3  C   UNL     1       2.133   3.208  20.496  0.00  0.00    +0.000 A 
ATOM      4  C   UNL     1       0.953   2.875  21.360  0.00  0.00    +0.000 C 
ATOM      5  C   UNL     1       2.810   2.226  19.785  0.00  0.00    +0.000 A 
ATOM      6  C   UNL     1       3.916   2.592  19.012  0.00  0.00    +0.000 A 
ATOM      7  C   UNL     1       4.326   3.930  18.961  0.00  0.00    +0.000 A 
ENDROOT
BRANCH   7   8
ATOM      8  C   UNL     1       5.577   4.295  18.197  0.00  0.00    +0.000 C 
ATOM      9  N   UNL     1       6.672   4.376  18.901  0.00  0.00    +0.000 NA
ATOM     10  N   UNL     1       5.464   4.489  16.802  0.00  0.00    +0.000 N 
ATOM     11  C   UNL     1       6.237   3.555  15.942  0.00  0.00    +0.000 C 
ATOM     12  C   UNL     1       6.011   3.806  14.433  0.00  0.00    +0.000 C 
ATOM     13  N   UNL     1       6.214   5.198  13.985  0.00  0.00    +0.000 NA
ATOM     14  C   UNL     1       7.623   5.583  14.026  0.00  0.00    +0.000 C 
ATOM     15  C   UNL     1       5.384   6.075  14.840  0.00  0.00    +0.000 C 
ATOM     16  C   UNL     1       5.585   5.902  16.361  0.00  0.00    +0.000 C 
BRANCH   9  17
ATOM     17  O   UNL     1       7.797   4.739  18.156  0.00  0.00    +0.000 OA
ATOM     18  H   UNL     1       8.227   3.877  18.015  0.00  0.00    +0.000 HD
ENDBRANCH   9  17
ENDBRANCH   7   8
BRANCH   1  19
ATOM     19  O   UNL     1       3.868   6.205  19.624  0.00  0.00    +0.000 OA
BRANCH  19  24
ATOM     20  C   UNL     1       0.152  10.358  18.522  0.00  0.00    +0.000 C 
ATOM     21  C   UNL     1       1.034   9.169  18.763  0.00  0.00    +0.000 A 
ATOM     22  C   UNL     1       1.160   8.617  20.043  0.00  0.00    +0.000 A 
ATOM     23  C   UNL     1       2.085   7.595  20.289  0.00  0.00    +0.000 A 
ATOM     24  C   UNL     1       2.893   7.113  19.257  0.00  0.00    +0.000 A 
ATOM     25  C   UNL     1       2.760   7.648  17.976  0.00  0.00    +0.000 A 
ATOM     26  C   UNL     1       1.827   8.661  17.726  0.00  0.00    +0.000 A 
ENDBRANCH  19  24
ENDBRANCH   1  19
TORSDOF 4
ENDMDL
MODEL 6
REMARK VINA RESULT:      -6.7      3.058      4.642
REMARK  Name = 
REMARK  7 active torsions:
REMARK  status: ('A' for Active; 'I' for Inactive)
REMARK    1  A    between atoms: C_1  and  C_2
REMARK    2  A    between atoms: C_5  and  O_6
REMARK    3  A    between atoms: O_6  and  C_7
REMARK    4  A    between atoms: C_9  and  C_10
REMARK    5  A    between atoms: C_13  and  C_14
REMARK    6  A    between atoms: N_15  and  O_16
REMARK    7  A    between atoms: N_20  and  C_21
REMARK                            x       y       z     vdW  Elec       q    Type
REMARK                         _______ _______ _______ _____ _____    ______ ____
ROOT
ATOM      1  C   UNL     1       4.905   6.483  17.665  0.00  0.00    +0.000 A 
ATOM      2  N   UNL     1       5.795   7.498  17.480  0.00  0.00    +0.000 NA
ATOM      3  C   UNL     1       7.084   7.295  17.814  0.00  0.00    +0.000 A 
ATOM      4  C   UNL     1       8.017   8.449  17.599  0.00  0.00    +0.000 C 
ATOM      5  C   UNL     1       7.532   6.086  18.329  0.00  0.00    +0.000 A 
ATOM      6  C   UNL     1       6.620   5.039  18.487  0.00  0.00    +0.000 A 
ATOM      7  C   UNL     1       5.278   5.215  18.131  0.00  0.00    +0.000 A 
ENDROOT
BRANCH   7   8
ATOM      8  C   UNL     1       4.326   4.046  18.221  0.00  0.00    +0.000 C 
ATOM      9  N   UNL     1       4.389   3.183  17.246  0.00  0.00    +0.000 NA
ATOM     10  N   UNL     1       3.477   3.973  19.348  0.00  0.00    +0.000 N 
ATOM     11  C   UNL     1       3.660   2.794  20.235  0.00  0.00    +0.000 C 
ATOM     12  C   UNL     1       2.730   2.825  21.470  0.00  0.00    +0.000 C 
ATOM     13  N   UNL     1       1.296   3.026  21.178  0.00  0.00    +0.000 NA
ATOM     14  C   UNL     1       0.704   1.857  20.530  0.00  0.00    +0.000 C 
ATOM     15  C   UNL     1       1.170   4.237  20.338  0.00  0.00    +0.000 C 
ATOM     16  C   UNL     1       2.047   4.258  19.067  0.00  0.00    +0.000 C 
BRANCH   9  17
ATOM     17  O   UNL     1       3.474   2.133  17.361  0.00  0.00    +0.000 OA
ATOM     18  H   UNL     1       3.769   1.703  18.183  0.00  0.00    +0.000 HD
ENDBRANCH   9  17
ENDBRANCH   7   8
BRANCH   1  19
ATOM     19  O   UNL     1       3.586   6.747  17.344  0.00  0.00    +0.000 OA
BRANCH  19  24
ATOM     20  C   UNL     1       0.117  10.259  20.155  0.00  0.00    +0.000 C 
ATOM     21  C   UNL     1       1.143   9.399  19.478  0.00  0.00    +0.000 A 
ATOM     22  C   UNL     1       1.537   9.656  18.159  0.00  0.00    +0.000 A 
ATOM     23  C   UNL     1       2.392   8.773  17.489  0.00  0.00    +0.000 A 
ATOM     24  C   UNL     1       2.864   7.625  18.128  0.00  0.00    +0.000 A 
ATOM     25  C   UNL     1       2.487   7.373  19.448  0.00  0.00    +0.000 A 
ATOM     26  C   UNL     1       1.643   8.261  20.124  0.00  0.00    +0.000 A 
ENDBRANCH  19  24
ENDBRANCH   1  19
TORSDOF 4
ENDMDL
MODEL 7
REMARK VINA RESULT:      -6.7      9.902     11.959
REMARK  Name = 
REMARK  7 active torsions:
REMARK  status: ('A' for Active; 'I' for Inactive)
REMARK    1  A    between atoms: C_1  and  C_2
REMARK    2  A    between atoms: C_5  and  O_6
REMARK    3  A    between atoms: O_6  and  C_7
REMARK    4  A    between atoms: C_9  and  C_10
REMARK    5  A    between atoms: C_13  and  C_14
REMARK    6  A    between atoms: N_15  and  O_16
REMARK    7  A    between atoms: N_20  and  C_21
REMARK                            x       y       z     vdW  Elec       q    Type
REMARK                         _______ _______ _______ _____ _____    ______ ____
ROOT
ATOM      1  C   UNL     1      -0.905  11.131  20.870  0.00  0.00    +0.000 A 
ATOM      2  N   UNL     1      -0.213   9.983  20.625  0.00  0.00    +0.000 NA
ATOM      3  C   UNL     1       0.155   9.216  21.669  0.00  0.00    +0.000 A 
ATOM      4  C   UNL     1       0.922   7.969  21.341  0.00  0.00    +0.000 C 
ATOM      5  C   UNL     1      -0.154   9.553  22.980  0.00  0.00    +0.000 A 
ATOM      6  C   UNL     1      -0.890  10.717  23.223  0.00  0.00    +0.000 A 
ATOM      7  C   UNL     1      -1.303  11.523  22.155  0.00  0.00    +0.000 A 
ENDROOT
BRANCH   7   8
ATOM      8  C   UNL     1      -2.175  12.726  22.428  0.00  0.00    +0.000 C 
ATOM      9  N   UNL     1      -1.582  13.886  22.365  0.00  0.00    +0.000 NA
ATOM     10  N   UNL     1      -3.544  12.501  22.698  0.00  0.00    +0.000 N 
ATOM     11  C   UNL     1      -4.511  13.085  21.732  0.00  0.00    +0.000 C 
ATOM     12  C   UNL     1      -5.979  12.743  22.076  0.00  0.00    +0.000 C 
ATOM     13  N   UNL     1      -6.393  13.046  23.460  0.00  0.00    +0.000 NA
ATOM     14  C   UNL     1      -6.480  14.486  23.699  0.00  0.00    +0.000 C 
ATOM     15  C   UNL     1      -5.428  12.399  24.374  0.00  0.00    +0.000 C 
ATOM     16  C   UNL     1      -3.941  12.726  24.111  0.00  0.00    +0.000 C 
BRANCH   9  17
ATOM     17  O   UNL     1      -2.423  14.966  22.648  0.00  0.00    +0.000 OA
ATOM     18  H   UNL     1      -1.888  15.718  22.338  0.00  0.00    +0.000 HD
ENDBRANCH   9  17
ENDBRANCH   7   8
BRANCH   1  19
ATOM     19  O   UNL     1      -1.230  11.907  19.774  0.00  0.00    +0.000 OA
BRANCH  19  24
ATOM     20  C   UNL     1      -3.849  10.089  15.072  0.00  0.00    +0.000 C 
ATOM     21  C   UNL     1      -3.203  10.448  16.377  0.00  0.00    +0.000 A 
ATOM     22  C   UNL     1      -3.815  11.349  17.256  0.00  0.00    +0.000 A 
ATOM     23  C   UNL     1      -3.147  11.783  18.408  0.00  0.00    +0.000 A 
ATOM     24  C   UNL     1      -1.861  11.319  18.694  0.00  0.00    +0.000 A 
ATOM     25  C   UNL     1      -1.253  10.409  17.829  0.00  0.00    +0.000 A 
ATOM     26  C   UNL     1      -1.925   9.964  16.685  0.00  0.00    +0.000 A 
ENDBRANCH  19  24
ENDBRANCH   1  19
TORSDOF 4
ENDMDL
MODEL 8
REMARK VINA RESULT:      -6.6      1.569      2.128
REMARK  Name = 
REMARK  7 active torsions:
REMARK  status: ('A' for Active; 'I' for Inactive)
REMARK    1  A    between atoms: C_1  and  C_2
REMARK    2  A    between atoms: C_5  and  O_6
REMARK    3  A    between atoms: O_6  and  C_7
REMARK    4  A    between atoms: C_9  and  C_10
REMARK    5  A    between atoms: C_13  and  C_14
REMARK    6  A    between atoms: N_15  and  O_16
REMARK    7  A    between atoms: N_20  and  C_21
REMARK                            x       y       z     vdW  Elec       q    Type
REMARK                         _______ _______ _______ _____ _____    ______ ____
ROOT
ATOM      1  C   UNL     1       6.638   4.597  16.165  0.00  0.00    +0.000 A 
ATOM      2  N   UNL     1       7.427   5.073  15.161  0.00  0.00    +0.000 NA
ATOM      3  C   UNL     1       7.103   4.773  13.889  0.00  0.00    +0.000 A 
ATOM      4  C   UNL     1       8.011   5.314  12.825  0.00  0.00    +0.000 C 
ATOM      5  C   UNL     1       5.991   4.005  13.571  0.00  0.00    +0.000 A 
ATOM      6  C   UNL     1       5.168   3.546  14.603  0.00  0.00    +0.000 A 
ATOM      7  C   UNL     1       5.470   3.859  15.934  0.00  0.00    +0.000 A 
ENDROOT
BRANCH   7   8
ATOM      8  C   UNL     1       4.522   3.433  17.030  0.00  0.00    +0.000 C 
ATOM      9  N   UNL     1       4.357   2.147  17.174  0.00  0.00    +0.000 NA
ATOM     10  N   UNL     1       3.921   4.445  17.812  0.00  0.00    +0.000 N 
ATOM     11  C   UNL     1       4.247   4.437  19.263  0.00  0.00    +0.000 C 
ATOM     12  C   UNL     1       3.592   5.610  20.028  0.00  0.00    +0.000 C 
ATOM     13  N   UNL     1       2.135   5.759  19.833  0.00  0.00    +0.000 NA
ATOM     14  C   UNL     1       1.387   4.679  20.475  0.00  0.00    +0.000 C 
ATOM     15  C   UNL     1       1.876   5.812  18.378  0.00  0.00    +0.000 C 
ATOM     16  C   UNL     1       2.473   4.650  17.554  0.00  0.00    +0.000 C 
BRANCH   9  17
ATOM     17  O   UNL     1       3.454   1.803  18.184  0.00  0.00    +0.000 OA
ATOM     18  H   UNL     1       3.644   0.855  18.303  0.00  0.00    +0.000 HD
ENDBRANCH   9  17
ENDBRANCH   7   8
BRANCH   1  19
ATOM     19  O   UNL     1       7.028   4.897  17.457  0.00  0.00    +0.000 OA
BRANCH  19  24
ATOM     20  C   UNL     1       8.944  10.100  18.692  0.00  0.00    +0.000 C 
ATOM     21  C   UNL     1       8.317   8.762  18.437  0.00  0.00    +0.000 A 
ATOM     22  C   UNL     1       8.661   7.650  19.214  0.00  0.00    +0.000 A 
ATOM     23  C   UNL     1       8.175   6.378  18.888  0.00  0.00    +0.000 A 
ATOM     24  C   UNL     1       7.342   6.203  17.781  0.00  0.00    +0.000 A 
ATOM     25  C   UNL     1       6.984   7.311  17.012  0.00  0.00    +0.000 A 
ATOM     26  C   UNL     1       7.458   8.586  17.346  0.00  0.00    +0.000 A 
ENDBRANCH  19  24
ENDBRANCH   1  19
TORSDOF 4
ENDMDL
MODEL 9
REMARK VINA RESULT:      -6.5      2.973      6.378
REMARK  Name = 
REMARK  7 active torsions:
REMARK  status: ('A' for Active; 'I' for Inactive)
REMARK    1  A    between atoms: C_1  and  C_2
REMARK    2  A    between atoms: C_5  and  O_6
REMARK    3  A    between atoms: O_6  and  C_7
REMARK    4  A    between atoms: C_9  and  C_10
REMARK    5  A    between atoms: C_13  and  C_14
REMARK    6  A    between atoms: N_15  and  O_16
REMARK    7  A    between atoms: N_20  and  C_21
REMARK                            x       y       z     vdW  Elec       q    Type
REMARK                         _______ _______ _______ _____ _____    ______ ____
ROOT
ATOM      1  C   UNL     1       3.259   4.740  19.035  0.00  0.00    +0.000 A 
ATOM      2  N   UNL     1       2.191   4.432  19.823  0.00  0.00    +0.000 NA
ATOM      3  C   UNL     1       2.226   3.294  20.543  0.00  0.00    +0.000 A 
ATOM      4  C   UNL     1       1.021   3.000  21.385  0.00  0.00    +0.000 C 
ATOM      5  C   UNL     1       3.316   2.434  20.512  0.00  0.00    +0.000 A 
ATOM      6  C   UNL     1       4.421   2.771  19.725  0.00  0.00    +0.000 A 
ATOM      7  C   UNL     1       4.420   3.957  18.982  0.00  0.00    +0.000 A 
ENDROOT
BRANCH   7   8
ATOM      8  C   UNL     1       5.657   4.352  18.211  0.00  0.00    +0.000 C 
ATOM      9  N   UNL     1       6.744   4.505  18.916  0.00  0.00    +0.000 NA
ATOM     10  N   UNL     1       5.543   4.496  16.810  0.00  0.00    +0.000 N 
ATOM     11  C   UNL     1       6.361   3.569  15.984  0.00  0.00    +0.000 C 
ATOM     12  C   UNL     1       6.131   3.759  14.467  0.00  0.00    +0.000 C 
ATOM     13  N   UNL     1       6.274   5.144  13.974  0.00  0.00    +0.000 NA
ATOM     14  C   UNL     1       7.666   5.592  14.007  0.00  0.00    +0.000 C 
ATOM     15  C   UNL     1       5.402   6.010  14.796  0.00  0.00    +0.000 C 
ATOM     16  C   UNL     1       5.603   5.897  16.323  0.00  0.00    +0.000 C 
BRANCH   9  17
ATOM     17  O   UNL     1       7.856   4.893  18.163  0.00  0.00    +0.000 OA
ATOM     18  H   UNL     1       8.210   5.625  18.697  0.00  0.00    +0.000 HD
ENDBRANCH   9  17
ENDBRANCH   7   8
BRANCH   1  19
ATOM     19  O   UNL     1       3.165   5.897  18.286  0.00  0.00    +0.000 OA
BRANCH  19  24
ATOM     20  C   UNL     1       0.201  10.364  20.164  0.00  0.00    +0.000 C 
ATOM     21  C   UNL     1       1.101   9.250  19.721  0.00  0.00    +0.000 A 
ATOM     22  C   UNL     1       1.529   9.159  18.391  0.00  0.00    +0.000 A 
ATOM     23  C   UNL     1       2.257   8.047  17.953  0.00  0.00    +0.000 A 
ATOM     24  C   UNL     1       2.567   7.013  18.839  0.00  0.00    +0.000 A 
ATOM     25  C   UNL     1       2.156   7.106  20.169  0.00  0.00    +0.000 A 
ATOM     26  C   UNL     1       1.439   8.224  20.612  0.00  0.00    +0.000 A 
ENDBRANCH  19  24
ENDBRANCH   1  19
TORSDOF 4
ENDMDL
