MODEL 1
REMARK VINA RESULT:      -7.6      0.000      0.000
REMARK  Name = 
REMARK  4 active torsions:
REMARK  status: ('A' for Active; 'I' for Inactive)
REMARK    1  A    between atoms: C_2  and  O_3
REMARK    2  A    between atoms: C_2  and  C_4
REMARK    3  A    between atoms: C_4  and  C_5
REMARK    4  A    between atoms: C_8  and  O_9
REMARK                            x       y       z     vdW  Elec       q    Type
REMARK                         _______ _______ _______ _____ _____    ______ ____
ROOT
ATOM      1  C   UNL     1       2.726   3.618  19.847  0.00  0.00    +0.000 A 
ATOM      2  C   UNL     1       1.965   4.292  20.815  0.00  0.00    +0.000 A 
ATOM      3  C   UNL     1       1.778   5.672  20.743  0.00  0.00    +0.000 A 
ATOM      4  C   UNL     1       2.361   6.399  19.707  0.00  0.00    +0.000 A 
ATOM      5  C   UNL     1       3.154   5.756  18.747  0.00  0.00    +0.000 A 
ATOM      6  C   UNL     1       3.807   6.489  17.640  0.00  0.00    +0.000 A 
ATOM      7  O   UNL     1       3.699   7.694  17.460  0.00  0.00    +0.000 OA
ATOM      8  C   UNL     1       4.631   5.702  16.716  0.00  0.00    +0.000 A 
ATOM      9  C   UNL     1       5.298   6.328  15.656  0.00  0.00    +0.000 A 
ATOM     10  C   UNL     1       6.082   5.571  14.787  0.00  0.00    +0.000 A 
ATOM     11  C   UNL     1       6.193   4.194  14.978  0.00  0.00    +0.000 A 
ATOM     12  C   UNL     1       5.523   3.574  16.038  0.00  0.00    +0.000 A 
ATOM     13  C   UNL     1       4.741   4.331  16.913  0.00  0.00    +0.000 A 
ATOM     14  O   UNL     1       4.122   3.656  17.935  0.00  0.00    +0.000 OA
ATOM     15  C   UNL     1       3.343   4.366  18.823  0.00  0.00    +0.000 A 
ENDROOT
BRANCH   4  16
ATOM     16  O   UNL     1       2.143   7.746  19.650  0.00  0.00    +0.000 OA
ATOM     17  H   UNL     1       2.056   8.120  20.540  0.00  0.00    +0.000 HD
ENDBRANCH   4  16
BRANCH   1  18
ATOM     18  C   UNL     1       2.837   2.111  19.929  0.00  0.00    +0.000 C 
BRANCH  18  20
ATOM     19  O   UNL     1       5.133   1.776  20.585  0.00  0.00    +0.000 OA
ATOM     20  C   UNL     1       4.238   1.570  19.780  0.00  0.00    +0.000 C 
BRANCH  20  21
ATOM     21  O   UNL     1       4.418   0.788  18.690  0.00  0.00    +0.000 OA
ATOM     22  H   UNL     1       5.114   0.112  18.799  0.00  0.00    +0.000 HD
ENDBRANCH  20  21
ENDBRANCH  18  20
ENDBRANCH   1  18
TORSDOF 4
ENDMDL
MODEL 2
REMARK VINA RESULT:      -7.6      2.400      3.272
REMARK  Name = 
REMARK  4 active torsions:
REMARK  status: ('A' for Active; 'I' for Inactive)
REMARK    1  A    between atoms: C_2  and  O_3
REMARK    2  A    between atoms: C_2  and  C_4
REMARK    3  A    between atoms: C_4  and  C_5
REMARK    4  A    between atoms: C_8  and  O_9
REMARK                            x       y       z     vdW  Elec       q    Type
REMARK                         _______ _______ _______ _____ _____    ______ ____
ROOT
ATOM      1  C   UNL     1       4.175   3.814  17.696  0.00  0.00    +0.000 A 
ATOM      2  C   UNL     1       4.328   4.321  18.995  0.00  0.00    +0.000 A 
ATOM      3  C   UNL     1       5.326   5.250  19.287  0.00  0.00    +0.000 A 
ATOM      4  C   UNL     1       6.194   5.676  18.282  0.00  0.00    +0.000 A 
ATOM      5  C   UNL     1       6.084   5.160  16.984  0.00  0.00    +0.000 A 
ATOM      6  C   UNL     1       6.994   5.569  15.891  0.00  0.00    +0.000 A 
ATOM      7  O   UNL     1       7.891   6.391  16.019  0.00  0.00    +0.000 OA
ATOM      8  C   UNL     1       6.789   4.936  14.583  0.00  0.00    +0.000 A 
ATOM      9  C   UNL     1       7.623   5.256  13.505  0.00  0.00    +0.000 A 
ATOM     10  C   UNL     1       7.422   4.645  12.269  0.00  0.00    +0.000 A 
ATOM     11  C   UNL     1       6.388   3.721  12.114  0.00  0.00    +0.000 A 
ATOM     12  C   UNL     1       5.557   3.407  13.195  0.00  0.00    +0.000 A 
ATOM     13  C   UNL     1       5.760   4.014  14.436  0.00  0.00    +0.000 A 
ATOM     14  O   UNL     1       4.913   3.648  15.451  0.00  0.00    +0.000 OA
ATOM     15  C   UNL     1       5.080   4.223  16.694  0.00  0.00    +0.000 A 
ENDROOT
BRANCH   4  16
ATOM     16  O   UNL     1       7.148   6.603  18.592  0.00  0.00    +0.000 OA
ATOM     17  H   UNL     1       8.000   6.175  18.772  0.00  0.00    +0.000 HD
ENDBRANCH   4  16
BRANCH   1  18
ATOM     18  C   UNL     1       3.030   2.865  17.416  0.00  0.00    +0.000 C 
BRANCH  18  20
ATOM     19  O   UNL     1       1.936   1.670  19.201  0.00  0.00    +0.000 OA
ATOM     20  C   UNL     1       2.872   1.750  18.421  0.00  0.00    +0.000 C 
BRANCH  20  21
ATOM     21  O   UNL     1       3.839   0.805  18.360  0.00  0.00    +0.000 OA
ATOM     22  H   UNL     1       3.642   0.079  17.737  0.00  0.00    +0.000 HD
ENDBRANCH  20  21
ENDBRANCH  18  20
ENDBRANCH   1  18
TORSDOF 4
ENDMDL
MODEL 3
REMARK VINA RESULT:      -7.5      1.257      1.550
REMARK  Name = 
REMARK  4 active torsions:
REMARK  status: ('A' for Active; 'I' for Inactive)
REMARK    1  A    between atoms: C_2  and  O_3
REMARK    2  A    between atoms: C_2  and  C_4
REMARK    3  A    between atoms: C_4  and  C_5
REMARK    4  A    between atoms: C_8  and  O_9
REMARK                            x       y       z     vdW  Elec       q    Type
REMARK                         _______ _______ _______ _____ _____    ______ ____
ROOT
ATOM      1  C   UNL     1       2.126   4.282  19.950  0.00  0.00    +0.000 A 
ATOM      2  C   UNL     1       1.416   5.113  20.831  0.00  0.00    +0.000 A 
ATOM      3  C   UNL     1       1.431   6.499  20.674  0.00  0.00    +0.000 A 
ATOM      4  C   UNL     1       2.169   7.073  19.640  0.00  0.00    +0.000 A 
ATOM      5  C   UNL     1       2.914   6.269  18.768  0.00  0.00    +0.000 A 
ATOM      6  C   UNL     1       3.725   6.835  17.668  0.00  0.00    +0.000 A 
ATOM      7  O   UNL     1       3.799   8.031  17.418  0.00  0.00    +0.000 OA
ATOM      8  C   UNL     1       4.479   5.886  16.840  0.00  0.00    +0.000 A 
ATOM      9  C   UNL     1       5.286   6.348  15.793  0.00  0.00    +0.000 A 
ATOM     10  C   UNL     1       6.001   5.438  15.018  0.00  0.00    +0.000 A 
ATOM     11  C   UNL     1       5.904   4.073  15.288  0.00  0.00    +0.000 A 
ATOM     12  C   UNL     1       5.095   3.618  16.333  0.00  0.00    +0.000 A 
ATOM     13  C   UNL     1       4.381   4.528  17.117  0.00  0.00    +0.000 A 
ATOM     14  O   UNL     1       3.617   4.009  18.131  0.00  0.00    +0.000 OA
ATOM     15  C   UNL     1       2.899   4.874  18.929  0.00  0.00    +0.000 A 
ENDROOT
BRANCH   4  16
ATOM     16  O   UNL     1       2.148   8.431  19.499  0.00  0.00    +0.000 OA
ATOM     17  H   UNL     1       1.770   8.855  20.285  0.00  0.00    +0.000 HD
ENDBRANCH   4  16
BRANCH   1  18
ATOM     18  C   UNL     1       2.017   2.783  20.119  0.00  0.00    +0.000 C 
BRANCH  18  20
ATOM     19  O   UNL     1       0.287   2.110  18.580  0.00  0.00    +0.000 OA
ATOM     20  C   UNL     1       1.457   2.050  18.922  0.00  0.00    +0.000 C 
BRANCH  20  21
ATOM     21  O   UNL     1       2.377   1.348  18.222  0.00  0.00    +0.000 OA
ATOM     22  H   UNL     1       2.585   0.474  18.607  0.00  0.00    +0.000 HD
ENDBRANCH  20  21
ENDBRANCH  18  20
ENDBRANCH   1  18
TORSDOF 4
ENDMDL
MODEL 4
REMARK VINA RESULT:      -7.4      2.638      3.527
REMARK  Name = 
REMARK  4 active torsions:
REMARK  status: ('A' for Active; 'I' for Inactive)
REMARK    1  A    between atoms: C_2  and  O_3
REMARK    2  A    between atoms: C_2  and  C_4
REMARK    3  A    between atoms: C_4  and  C_5
REMARK    4  A    between atoms: C_8  and  O_9
REMARK                            x       y       z     vdW  Elec       q    Type
REMARK                         _______ _______ _______ _____ _____    ______ ____
ROOT
ATOM      1  C   UNL     1       4.203   3.697  17.730  0.00  0.00    +0.000 A 
ATOM      2  C   UNL     1       4.349   4.192  19.035  0.00  0.00    +0.000 A 
ATOM      3  C   UNL     1       5.326   5.141  19.334  0.00  0.00    +0.000 A 
ATOM      4  C   UNL     1       6.179   5.600  18.332  0.00  0.00    +0.000 A 
ATOM      5  C   UNL     1       6.077   5.097  17.029  0.00  0.00    +0.000 A 
ATOM      6  C   UNL     1       6.973   5.541  15.937  0.00  0.00    +0.000 A 
ATOM      7  O   UNL     1       7.851   6.383  16.072  0.00  0.00    +0.000 OA
ATOM      8  C   UNL     1       6.778   4.920  14.622  0.00  0.00    +0.000 A 
ATOM      9  C   UNL     1       7.600   5.273  13.545  0.00  0.00    +0.000 A 
ATOM     10  C   UNL     1       7.410   4.672  12.303  0.00  0.00    +0.000 A 
ATOM     11  C   UNL     1       6.397   3.726  12.140  0.00  0.00    +0.000 A 
ATOM     12  C   UNL     1       5.578   3.379  13.219  0.00  0.00    +0.000 A 
ATOM     13  C   UNL     1       5.771   3.975  14.468  0.00  0.00    +0.000 A 
ATOM     14  O   UNL     1       4.936   3.577  15.481  0.00  0.00    +0.000 OA
ATOM     15  C   UNL     1       5.094   4.140  16.730  0.00  0.00    +0.000 A 
ENDROOT
BRANCH   4  16
ATOM     16  O   UNL     1       7.112   6.545  18.650  0.00  0.00    +0.000 OA
ATOM     17  H   UNL     1       7.651   6.773  17.877  0.00  0.00    +0.000 HD
ENDBRANCH   4  16
BRANCH   1  18
ATOM     18  C   UNL     1       3.081   2.725  17.442  0.00  0.00    +0.000 C 
BRANCH  18  20
ATOM     19  O   UNL     1       1.223   2.568  18.972  0.00  0.00    +0.000 OA
ATOM     20  C   UNL     1       1.739   3.119  18.012  0.00  0.00    +0.000 C 
BRANCH  20  21
ATOM     21  O   UNL     1       1.164   4.178  17.396  0.00  0.00    +0.000 OA
ATOM     22  H   UNL     1       0.301   4.434  17.775  0.00  0.00    +0.000 HD
ENDBRANCH  20  21
ENDBRANCH  18  20
ENDBRANCH   1  18
TORSDOF 4
ENDMDL
MODEL 5
REMARK VINA RESULT:      -7.4      1.795      4.940
REMARK  Name = 
REMARK  4 active torsions:
REMARK  status: ('A' for Active; 'I' for Inactive)
REMARK    1  A    between atoms: C_2  and  O_3
REMARK    2  A    between atoms: C_2  and  C_4
REMARK    3  A    between atoms: C_4  and  C_5
REMARK    4  A    between atoms: C_8  and  O_9
REMARK                            x       y       z     vdW  Elec       q    Type
REMARK                         _______ _______ _______ _____ _____    ______ ____
ROOT
ATOM      1  C   UNL     1       5.184   5.211  16.652  0.00  0.00    +0.000 A 
ATOM      2  C   UNL     1       5.161   6.410  15.922  0.00  0.00    +0.000 A 
ATOM      3  C   UNL     1       4.385   7.489  16.344  0.00  0.00    +0.000 A 
ATOM      4  C   UNL     1       3.610   7.380  17.497  0.00  0.00    +0.000 A 
ATOM      5  C   UNL     1       3.589   6.183  18.226  0.00  0.00    +0.000 A 
ATOM      6  C   UNL     1       2.768   6.014  19.446  0.00  0.00    +0.000 A 
ATOM      7  O   UNL     1       2.066   6.894  19.924  0.00  0.00    +0.000 OA
ATOM      8  C   UNL     1       2.815   4.704  20.103  0.00  0.00    +0.000 A 
ATOM      9  C   UNL     1       2.049   4.461  21.251  0.00  0.00    +0.000 A 
ATOM     10  C   UNL     1       2.098   3.211  21.863  0.00  0.00    +0.000 A 
ATOM     11  C   UNL     1       2.912   2.211  21.331  0.00  0.00    +0.000 A 
ATOM     12  C   UNL     1       3.675   2.460  20.186  0.00  0.00    +0.000 A 
ATOM     13  C   UNL     1       3.624   3.710  19.566  0.00  0.00    +0.000 A 
ATOM     14  O   UNL     1       4.392   3.877  18.441  0.00  0.00    +0.000 OA
ATOM     15  C   UNL     1       4.369   5.097  17.798  0.00  0.00    +0.000 A 
ENDROOT
BRANCH   4  16
ATOM     16  O   UNL     1       2.877   8.460  17.898  0.00  0.00    +0.000 OA
ATOM     17  H   UNL     1       3.319   8.928  18.623  0.00  0.00    +0.000 HD
ENDBRANCH   4  16
BRANCH   1  18
ATOM     18  C   UNL     1       6.099   4.098  16.193  0.00  0.00    +0.000 C 
BRANCH  18  20
ATOM     19  O   UNL     1       7.656   5.157  14.688  0.00  0.00    +0.000 OA
ATOM     20  C   UNL     1       6.769   4.337  14.861  0.00  0.00    +0.000 C 
BRANCH  20  21
ATOM     21  O   UNL     1       6.334   3.527  13.868  0.00  0.00    +0.000 OA
ATOM     22  H   UNL     1       5.361   3.477  13.797  0.00  0.00    +0.000 HD
ENDBRANCH  20  21
ENDBRANCH  18  20
ENDBRANCH   1  18
TORSDOF 4
ENDMDL
MODEL 6
REMARK VINA RESULT:      -7.3      1.385      4.277
REMARK  Name = 
REMARK  4 active torsions:
REMARK  status: ('A' for Active; 'I' for Inactive)
REMARK    1  A    between atoms: C_2  and  O_3
REMARK    2  A    between atoms: C_2  and  C_4
REMARK    3  A    between atoms: C_4  and  C_5
REMARK    4  A    between atoms: C_8  and  O_9
REMARK                            x       y       z     vdW  Elec       q    Type
REMARK                         _______ _______ _______ _____ _____    ______ ____
ROOT
ATOM      1  C   UNL     1       2.117   6.229  19.715  0.00  0.00    +0.000 A 
ATOM      2  C   UNL     1       1.302   5.545  20.631  0.00  0.00    +0.000 A 
ATOM      3  C   UNL     1       1.287   4.151  20.671  0.00  0.00    +0.000 A 
ATOM      4  C   UNL     1       2.077   3.421  19.784  0.00  0.00    +0.000 A 
ATOM      5  C   UNL     1       2.873   4.079  18.838  0.00  0.00    +0.000 A 
ATOM      6  C   UNL     1       3.715   3.346  17.865  0.00  0.00    +0.000 A 
ATOM      7  O   UNL     1       3.801   2.127  17.818  0.00  0.00    +0.000 OA
ATOM      8  C   UNL     1       4.483   4.152  16.910  0.00  0.00    +0.000 A 
ATOM      9  C   UNL     1       5.286   3.530  15.946  0.00  0.00    +0.000 A 
ATOM     10  C   UNL     1       6.007   4.306  15.041  0.00  0.00    +0.000 A 
ATOM     11  C   UNL     1       5.926   5.697  15.104  0.00  0.00    +0.000 A 
ATOM     12  C   UNL     1       5.124   6.313  16.070  0.00  0.00    +0.000 A 
ATOM     13  C   UNL     1       4.395   5.538  16.975  0.00  0.00    +0.000 A 
ATOM     14  O   UNL     1       3.623   6.211  17.887  0.00  0.00    +0.000 OA
ATOM     15  C   UNL     1       2.886   5.483  18.798  0.00  0.00    +0.000 A 
ENDROOT
BRANCH   4  16
ATOM     16  O   UNL     1       2.058   2.058  19.861  0.00  0.00    +0.000 OA
ATOM     17  H   UNL     1       1.489   1.681  19.171  0.00  0.00    +0.000 HD
ENDBRANCH   4  16
BRANCH   1  18
ATOM     18  C   UNL     1       2.153   7.740  19.762  0.00  0.00    +0.000 C 
BRANCH  18  20
ATOM     19  O   UNL     1       0.174   8.760  20.687  0.00  0.00    +0.000 OA
ATOM     20  C   UNL     1       1.315   8.360  20.855  0.00  0.00    +0.000 C 
BRANCH  20  21
ATOM     21  O   UNL     1       1.919   8.398  22.065  0.00  0.00    +0.000 OA
ATOM     22  H   UNL     1       1.367   8.052  22.793  0.00  0.00    +0.000 HD
ENDBRANCH  20  21
ENDBRANCH  18  20
ENDBRANCH   1  18
TORSDOF 4
ENDMDL
MODEL 7
REMARK VINA RESULT:      -7.3      2.463      4.658
REMARK  Name = 
REMARK  4 active torsions:
REMARK  status: ('A' for Active; 'I' for Inactive)
REMARK    1  A    between atoms: C_2  and  O_3
REMARK    2  A    between atoms: C_2  and  C_4
REMARK    3  A    between atoms: C_4  and  C_5
REMARK    4  A    between atoms: C_8  and  O_9
REMARK                            x       y       z     vdW  Elec       q    Type
REMARK                         _______ _______ _______ _____ _____    ______ ____
ROOT
ATOM      1  C   UNL     1       2.990   4.587  20.047  0.00  0.00    +0.000 A 
ATOM      2  C   UNL     1       3.740   3.627  19.351  0.00  0.00    +0.000 A 
ATOM      3  C   UNL     1       4.320   3.929  18.119  0.00  0.00    +0.000 A 
ATOM      4  C   UNL     1       4.147   5.194  17.561  0.00  0.00    +0.000 A 
ATOM      5  C   UNL     1       3.374   6.161  18.219  0.00  0.00    +0.000 A 
ATOM      6  C   UNL     1       3.148   7.511  17.657  0.00  0.00    +0.000 A 
ATOM      7  O   UNL     1       3.622   7.898  16.598  0.00  0.00    +0.000 OA
ATOM      8  C   UNL     1       2.300   8.422  18.434  0.00  0.00    +0.000 A 
ATOM      9  C   UNL     1       2.023   9.709  17.957  0.00  0.00    +0.000 A 
ATOM     10  C   UNL     1       1.212  10.563  18.700  0.00  0.00    +0.000 A 
ATOM     11  C   UNL     1       0.685  10.131  19.918  0.00  0.00    +0.000 A 
ATOM     12  C   UNL     1       0.967   8.845  20.390  0.00  0.00    +0.000 A 
ATOM     13  C   UNL     1       1.775   7.984  19.643  0.00  0.00    +0.000 A 
ATOM     14  O   UNL     1       1.999   6.735  20.165  0.00  0.00    +0.000 OA
ATOM     15  C   UNL     1       2.790   5.853  19.458  0.00  0.00    +0.000 A 
ENDROOT
BRANCH   4  16
ATOM     16  O   UNL     1       4.744   5.469  16.364  0.00  0.00    +0.000 OA
ATOM     17  H   UNL     1       5.702   5.331  16.416  0.00  0.00    +0.000 HD
ENDBRANCH   4  16
BRANCH   1  18
ATOM     18  C   UNL     1       2.445   4.233  21.413  0.00  0.00    +0.000 C 
BRANCH  18  20
ATOM     19  O   UNL     1       1.489   2.179  22.240  0.00  0.00    +0.000 OA
ATOM     20  C   UNL     1       1.460   3.088  21.425  0.00  0.00    +0.000 C 
BRANCH  20  21
ATOM     21  O   UNL     1       0.500   3.172  20.475  0.00  0.00    +0.000 OA
ATOM     22  H   UNL     1      -0.259   2.576  20.627  0.00  0.00    +0.000 HD
ENDBRANCH  20  21
ENDBRANCH  18  20
ENDBRANCH   1  18
TORSDOF 4
ENDMDL
MODEL 8
REMARK VINA RESULT:      -7.3      2.807      5.729
REMARK  Name = 
REMARK  4 active torsions:
REMARK  status: ('A' for Active; 'I' for Inactive)
REMARK    1  A    between atoms: C_2  and  O_3
REMARK    2  A    between atoms: C_2  and  C_4
REMARK    3  A    between atoms: C_4  and  C_5
REMARK    4  A    between atoms: C_8  and  O_9
REMARK                            x       y       z     vdW  Elec       q    Type
REMARK                         _______ _______ _______ _____ _____    ______ ____
ROOT
ATOM      1  C   UNL     1       1.052   8.431  20.378  0.00  0.00    +0.000 A 
ATOM      2  C   UNL     1       1.167   9.564  19.557  0.00  0.00    +0.000 A 
ATOM      3  C   UNL     1       1.891   9.513  18.366  0.00  0.00    +0.000 A 
ATOM      4  C   UNL     1       2.521   8.329  17.985  0.00  0.00    +0.000 A 
ATOM      5  C   UNL     1       2.450   7.194  18.803  0.00  0.00    +0.000 A 
ATOM      6  C   UNL     1       3.117   5.920  18.449  0.00  0.00    +0.000 A 
ATOM      7  O   UNL     1       3.759   5.748  17.422  0.00  0.00    +0.000 OA
ATOM      8  C   UNL     1       2.986   4.813  19.403  0.00  0.00    +0.000 A 
ATOM      9  C   UNL     1       3.606   3.584  19.147  0.00  0.00    +0.000 A 
ATOM     10  C   UNL     1       3.479   2.542  20.062  0.00  0.00    +0.000 A 
ATOM     11  C   UNL     1       2.732   2.729  21.225  0.00  0.00    +0.000 A 
ATOM     12  C   UNL     1       2.113   3.958  21.474  0.00  0.00    +0.000 A 
ATOM     13  C   UNL     1       2.243   5.007  20.561  0.00  0.00    +0.000 A 
ATOM     14  O   UNL     1       1.617   6.186  20.877  0.00  0.00    +0.000 OA
ATOM     15  C   UNL     1       1.723   7.248  20.003  0.00  0.00    +0.000 A 
ENDROOT
BRANCH   4  16
ATOM     16  O   UNL     1       3.204   8.302  16.803  0.00  0.00    +0.000 OA
ATOM     17  H   UNL     1       3.102   9.140  16.326  0.00  0.00    +0.000 HD
ENDBRANCH   4  16
BRANCH   1  18
ATOM     18  C   UNL     1       0.195   8.519  21.621  0.00  0.00    +0.000 C 
BRANCH  18  20
ATOM     19  O   UNL     1       0.077  10.075  23.459  0.00  0.00    +0.000 OA
ATOM     20  C   UNL     1       0.761   9.383  22.722  0.00  0.00    +0.000 C 
BRANCH  20  21
ATOM     21  O   UNL     1       2.105   9.296  22.860  0.00  0.00    +0.000 OA
ATOM     22  H   UNL     1       2.530   8.701  22.213  0.00  0.00    +0.000 HD
ENDBRANCH  20  21
ENDBRANCH  18  20
ENDBRANCH   1  18
TORSDOF 4
ENDMDL
MODEL 9
REMARK VINA RESULT:      -7.3      1.626      1.875
REMARK  Name = 
REMARK  4 active torsions:
REMARK  status: ('A' for Active; 'I' for Inactive)
REMARK    1  A    between atoms: C_2  and  O_3
REMARK    2  A    between atoms: C_2  and  C_4
REMARK    3  A    between atoms: C_4  and  C_5
REMARK    4  A    between atoms: C_8  and  O_9
REMARK                            x       y       z     vdW  Elec       q    Type
REMARK                         _______ _______ _______ _____ _____    ______ ____
ROOT
ATOM      1  C   UNL     1       2.569   4.850  20.313  0.00  0.00    +0.000 A 
ATOM      2  C   UNL     1       1.787   5.762  21.039  0.00  0.00    +0.000 A 
ATOM      3  C   UNL     1       1.601   7.066  20.581  0.00  0.00    +0.000 A 
ATOM      4  C   UNL     1       2.205   7.480  19.395  0.00  0.00    +0.000 A 
ATOM      5  C   UNL     1       3.018   6.599  18.669  0.00  0.00    +0.000 A 
ATOM      6  C   UNL     1       3.694   6.999  17.414  0.00  0.00    +0.000 A 
ATOM      7  O   UNL     1       3.588   8.105  16.904  0.00  0.00    +0.000 OA
ATOM      8  C   UNL     1       4.537   5.991  16.763  0.00  0.00    +0.000 A 
ATOM      9  C   UNL     1       5.226   6.301  15.583  0.00  0.00    +0.000 A 
ATOM     10  C   UNL     1       6.027   5.337  14.976  0.00  0.00    +0.000 A 
ATOM     11  C   UNL     1       6.135   4.068  15.546  0.00  0.00    +0.000 A 
ATOM     12  C   UNL     1       5.444   3.764  16.723  0.00  0.00    +0.000 A 
ATOM     13  C   UNL     1       4.644   4.730  17.337  0.00  0.00    +0.000 A 
ATOM     14  O   UNL     1       4.004   4.362  18.494  0.00  0.00    +0.000 OA
ATOM     15  C   UNL     1       3.206   5.287  19.133  0.00  0.00    +0.000 A 
ENDROOT
BRANCH   4  16
ATOM     16  O   UNL     1       1.987   8.756  18.961  0.00  0.00    +0.000 OA
ATOM     17  H   UNL     1       1.359   8.767  18.222  0.00  0.00    +0.000 HD
ENDBRANCH   4  16
BRANCH   1  18
ATOM     18  C   UNL     1       2.679   3.427  20.814  0.00  0.00    +0.000 C 
BRANCH  18  20
ATOM     19  O   UNL     1       1.197   2.356  22.387  0.00  0.00    +0.000 OA
ATOM     20  C   UNL     1       1.376   2.813  21.269  0.00  0.00    +0.000 C 
BRANCH  20  21
ATOM     21  O   UNL     1       0.392   2.850  20.340  0.00  0.00    +0.000 OA
ATOM     22  H   UNL     1       0.540   3.508  19.634  0.00  0.00    +0.000 HD
ENDBRANCH  20  21
ENDBRANCH  18  20
ENDBRANCH   1  18
TORSDOF 4
ENDMDL
