MODEL 1
REMARK VINA RESULT:      -7.5      0.000      0.000
REMARK  Name = 
REMARK  4 active torsions:
REMARK  status: ('A' for Active; 'I' for Inactive)
REMARK    1  A    between atoms: C_1  and  C_2
REMARK    2  A    between atoms: C_5  and  N_6
REMARK    3  A    between atoms: C_8  and  N_9
REMARK    4  A    between atoms: C_13  and  C_14
REMARK                            x       y       z     vdW  Elec       q    Type
REMARK                         _______ _______ _______ _____ _____    ______ ____
ROOT
ATOM      1  N   UNL     1       5.564   4.530  16.376  0.00  0.00    +0.000 N 
ATOM      2  C   UNL     1       5.506   4.391  15.005  0.00  0.00    +0.000 A 
ATOM      3  C   UNL     1       6.769   4.685  14.544  0.00  0.00    +0.000 A 
ATOM      4  N   UNL     1       7.625   4.935  15.586  0.00  0.00    +0.000 NA
ATOM      5  C   UNL     1       6.899   4.798  16.682  0.00  0.00    +0.000 A 
ATOM      6  C   UNL     1       7.490   4.782  18.049  0.00  0.00    +0.000 C 
ENDROOT
BRANCH   1  11
ATOM      7  C   UNL     1       1.090   3.974  19.950  0.00  0.00    +0.000 C 
ATOM      8  C   UNL     1       2.253   4.149  19.013  0.00  0.00    +0.000 A 
ATOM      9  C   UNL     1       2.740   3.042  18.304  0.00  0.00    +0.000 A 
ATOM     10  C   UNL     1       3.823   3.167  17.426  0.00  0.00    +0.000 A 
ATOM     11  C   UNL     1       4.452   4.406  17.257  0.00  0.00    +0.000 A 
ATOM     12  C   UNL     1       3.952   5.522  17.936  0.00  0.00    +0.000 A 
ATOM     13  C   UNL     1       2.864   5.394  18.809  0.00  0.00    +0.000 A 
ATOM     14 BR   UNL     1       2.257   6.971  19.679  0.00  0.00    +0.000 Br
ENDBRANCH   1  11
BRANCH   3  15
ATOM     15  N   UNL     1       7.215   4.740  13.170  0.00  0.00    +0.000 N 
ATOM     16  O   UNL     1       6.741   3.891  12.400  0.00  0.00    +0.000 OA
ATOM     17  O   UNL     1       8.030   5.620  12.860  0.00  0.00    +0.000 OA
ENDBRANCH   3  15
TORSDOF 2
ENDMDL
MODEL 2
REMARK VINA RESULT:      -7.4      1.400      1.435
REMARK  Name = 
REMARK  4 active torsions:
REMARK  status: ('A' for Active; 'I' for Inactive)
REMARK    1  A    between atoms: C_1  and  C_2
REMARK    2  A    between atoms: C_5  and  N_6
REMARK    3  A    between atoms: C_8  and  N_9
REMARK    4  A    between atoms: C_13  and  C_14
REMARK                            x       y       z     vdW  Elec       q    Type
REMARK                         _______ _______ _______ _____ _____    ______ ____
ROOT
ATOM      1  N   UNL     1       5.696   4.561  17.644  0.00  0.00    +0.000 N 
ATOM      2  C   UNL     1       5.638   4.212  16.310  0.00  0.00    +0.000 A 
ATOM      3  C   UNL     1       6.726   4.813  15.718  0.00  0.00    +0.000 A 
ATOM      4  N   UNL     1       7.493   5.466  16.649  0.00  0.00    +0.000 NA
ATOM      5  C   UNL     1       6.886   5.273  17.807  0.00  0.00    +0.000 A 
ATOM      6  C   UNL     1       7.498   5.640  19.114  0.00  0.00    +0.000 C 
ENDROOT
BRANCH   1  11
ATOM      7  C   UNL     1       1.761   3.177  21.606  0.00  0.00    +0.000 C 
ATOM      8  C   UNL     1       2.772   3.563  20.562  0.00  0.00    +0.000 A 
ATOM      9  C   UNL     1       3.660   2.595  20.072  0.00  0.00    +0.000 A 
ATOM     10  C   UNL     1       4.616   2.918  19.102  0.00  0.00    +0.000 A 
ATOM     11  C   UNL     1       4.712   4.229  18.618  0.00  0.00    +0.000 A 
ATOM     12  C   UNL     1       3.810   5.192  19.078  0.00  0.00    +0.000 A 
ATOM     13  C   UNL     1       2.850   4.863  20.044  0.00  0.00    +0.000 A 
ATOM     14 BR   UNL     1       1.665   6.242  20.598  0.00  0.00    +0.000 Br
ENDBRANCH   1  11
BRANCH   3  15
ATOM     15  N   UNL     1       7.083   4.802  14.317  0.00  0.00    +0.000 N 
ATOM     16  O   UNL     1       6.490   3.982  13.601  0.00  0.00    +0.000 OA
ATOM     17  O   UNL     1       7.948   5.602  13.934  0.00  0.00    +0.000 OA
ENDBRANCH   3  15
TORSDOF 2
ENDMDL
MODEL 3
REMARK VINA RESULT:      -7.4      1.319      1.758
REMARK  Name = 
REMARK  4 active torsions:
REMARK  status: ('A' for Active; 'I' for Inactive)
REMARK    1  A    between atoms: C_1  and  C_2
REMARK    2  A    between atoms: C_5  and  N_6
REMARK    3  A    between atoms: C_8  and  N_9
REMARK    4  A    between atoms: C_13  and  C_14
REMARK                            x       y       z     vdW  Elec       q    Type
REMARK                         _______ _______ _______ _____ _____    ______ ____
ROOT
ATOM      1  N   UNL     1       5.611   4.719  16.614  0.00  0.00    +0.000 N 
ATOM      2  C   UNL     1       5.439   4.539  15.257  0.00  0.00    +0.000 A 
ATOM      3  C   UNL     1       6.690   4.675  14.699  0.00  0.00    +0.000 A 
ATOM      4  N   UNL     1       7.642   4.865  15.669  0.00  0.00    +0.000 NA
ATOM      5  C   UNL     1       6.987   4.849  16.816  0.00  0.00    +0.000 A 
ATOM      6  C   UNL     1       7.669   4.816  18.140  0.00  0.00    +0.000 C 
ENDROOT
BRANCH   1  11
ATOM      7  C   UNL     1       1.347   4.908  20.471  0.00  0.00    +0.000 C 
ATOM      8  C   UNL     1       2.463   4.828  19.466  0.00  0.00    +0.000 A 
ATOM      9  C   UNL     1       3.261   5.956  19.231  0.00  0.00    +0.000 A 
ATOM     10  C   UNL     1       4.307   5.920  18.301  0.00  0.00    +0.000 A 
ATOM     11  C   UNL     1       4.559   4.751  17.573  0.00  0.00    +0.000 A 
ATOM     12  C   UNL     1       3.788   3.612  17.824  0.00  0.00    +0.000 A 
ATOM     13  C   UNL     1       2.747   3.651  18.760  0.00  0.00    +0.000 A 
ATOM     14 BR   UNL     1       1.762   2.049  19.034  0.00  0.00    +0.000 Br
ENDBRANCH   1  11
BRANCH   3  15
ATOM     15  N   UNL     1       7.039   4.631  13.297  0.00  0.00    +0.000 N 
ATOM     16  O   UNL     1       6.496   3.746  12.619  0.00  0.00    +0.000 OA
ATOM     17  O   UNL     1       7.847   5.470  12.875  0.00  0.00    +0.000 OA
ENDBRANCH   3  15
TORSDOF 2
ENDMDL
MODEL 4
REMARK VINA RESULT:      -7.2      1.523      2.034
REMARK  Name = 
REMARK  4 active torsions:
REMARK  status: ('A' for Active; 'I' for Inactive)
REMARK    1  A    between atoms: C_1  and  C_2
REMARK    2  A    between atoms: C_5  and  N_6
REMARK    3  A    between atoms: C_8  and  N_9
REMARK    4  A    between atoms: C_13  and  C_14
REMARK                            x       y       z     vdW  Elec       q    Type
REMARK                         _______ _______ _______ _____ _____    ______ ____
ROOT
ATOM      1  N   UNL     1       5.589   5.365  16.787  0.00  0.00    +0.000 N 
ATOM      2  C   UNL     1       5.501   4.775  15.543  0.00  0.00    +0.000 A 
ATOM      3  C   UNL     1       6.675   5.086  14.895  0.00  0.00    +0.000 A 
ATOM      4  N   UNL     1       7.517   5.791  15.717  0.00  0.00    +0.000 NA
ATOM      5  C   UNL     1       6.870   5.916  16.863  0.00  0.00    +0.000 A 
ATOM      6  C   UNL     1       7.509   6.441  18.102  0.00  0.00    +0.000 C 
ENDROOT
BRANCH   1  11
ATOM      7  C   UNL     1       1.361   5.437  20.686  0.00  0.00    +0.000 C 
ATOM      8  C   UNL     1       2.480   5.396  19.683  0.00  0.00    +0.000 A 
ATOM      9  C   UNL     1       2.736   6.523  18.889  0.00  0.00    +0.000 A 
ATOM     10  C   UNL     1       3.767   6.519  17.943  0.00  0.00    +0.000 A 
ATOM     11  C   UNL     1       4.552   5.374  17.761  0.00  0.00    +0.000 A 
ATOM     12  C   UNL     1       4.323   4.257  18.571  0.00  0.00    +0.000 A 
ATOM     13  C   UNL     1       3.295   4.267  19.521  0.00  0.00    +0.000 A 
ATOM     14 BR   UNL     1       3.070   2.702  20.576  0.00  0.00    +0.000 Br
ENDBRANCH   1  11
BRANCH   3  15
ATOM     15  N   UNL     1       7.049   4.750  13.539  0.00  0.00    +0.000 N 
ATOM     16  O   UNL     1       7.906   5.470  13.007  0.00  0.00    +0.000 OA
ATOM     17  O   UNL     1       6.492   3.779  13.009  0.00  0.00    +0.000 OA
ENDBRANCH   3  15
TORSDOF 2
ENDMDL
MODEL 5
REMARK VINA RESULT:      -7.1      1.710      1.940
REMARK  Name = 
REMARK  4 active torsions:
REMARK  status: ('A' for Active; 'I' for Inactive)
REMARK    1  A    between atoms: C_1  and  C_2
REMARK    2  A    between atoms: C_5  and  N_6
REMARK    3  A    between atoms: C_8  and  N_9
REMARK    4  A    between atoms: C_13  and  C_14
REMARK                            x       y       z     vdW  Elec       q    Type
REMARK                         _______ _______ _______ _____ _____    ______ ____
ROOT
ATOM      1  N   UNL     1       5.545   5.840  16.901  0.00  0.00    +0.000 N 
ATOM      2  C   UNL     1       5.368   5.233  15.674  0.00  0.00    +0.000 A 
ATOM      3  C   UNL     1       6.612   5.205  15.087  0.00  0.00    +0.000 A 
ATOM      4  N   UNL     1       7.566   5.711  15.933  0.00  0.00    +0.000 NA
ATOM      5  C   UNL     1       6.919   6.051  17.033  0.00  0.00    +0.000 A 
ATOM      6  C   UNL     1       7.611   6.454  18.290  0.00  0.00    +0.000 C 
ENDROOT
BRANCH   1  11
ATOM      7  C   UNL     1       1.353   7.104  20.631  0.00  0.00    +0.000 C 
ATOM      8  C   UNL     1       2.434   6.791  19.635  0.00  0.00    +0.000 A 
ATOM      9  C   UNL     1       3.227   5.648  19.814  0.00  0.00    +0.000 A 
ATOM     10  C   UNL     1       4.244   5.326  18.909  0.00  0.00    +0.000 A 
ATOM     11  C   UNL     1       4.499   6.159  17.812  0.00  0.00    +0.000 A 
ATOM     12  C   UNL     1       3.693   7.282  17.609  0.00  0.00    +0.000 A 
ATOM     13  C   UNL     1       2.671   7.597  18.513  0.00  0.00    +0.000 A 
ATOM     14 BR   UNL     1       1.627   9.142  18.144  0.00  0.00    +0.000 Br
ENDBRANCH   1  11
BRANCH   3  15
ATOM     15  N   UNL     1       6.952   4.722  13.767  0.00  0.00    +0.000 N 
ATOM     16  O   UNL     1       6.377   3.690  13.390  0.00  0.00    +0.000 OA
ATOM     17  O   UNL     1       7.786   5.363  13.113  0.00  0.00    +0.000 OA
ENDBRANCH   3  15
TORSDOF 2
ENDMDL
MODEL 6
REMARK VINA RESULT:      -6.7      1.891      2.257
REMARK  Name = 
REMARK  4 active torsions:
REMARK  status: ('A' for Active; 'I' for Inactive)
REMARK    1  A    between atoms: C_1  and  C_2
REMARK    2  A    between atoms: C_5  and  N_6
REMARK    3  A    between atoms: C_8  and  N_9
REMARK    4  A    between atoms: C_13  and  C_14
REMARK                            x       y       z     vdW  Elec       q    Type
REMARK                         _______ _______ _______ _____ _____    ______ ____
ROOT
ATOM      1  N   UNL     1       4.980   4.743  16.878  0.00  0.00    +0.000 N 
ATOM      2  C   UNL     1       5.823   4.085  16.005  0.00  0.00    +0.000 A 
ATOM      3  C   UNL     1       6.137   5.000  15.025  0.00  0.00    +0.000 A 
ATOM      4  N   UNL     1       5.573   6.221  15.295  0.00  0.00    +0.000 NA
ATOM      5  C   UNL     1       4.916   6.064  16.431  0.00  0.00    +0.000 A 
ATOM      6  C   UNL     1       4.326   7.202  17.190  0.00  0.00    +0.000 C 
ENDROOT
BRANCH   1  11
ATOM      7  C   UNL     1       2.416   2.361  21.443  0.00  0.00    +0.000 C 
ATOM      8  C   UNL     1       3.065   2.971  20.232  0.00  0.00    +0.000 A 
ATOM      9  C   UNL     1       4.417   3.340  20.286  0.00  0.00    +0.000 A 
ATOM     10  C   UNL     1       5.053   3.913  19.179  0.00  0.00    +0.000 A 
ATOM     11  C   UNL     1       4.337   4.145  17.998  0.00  0.00    +0.000 A 
ATOM     12  C   UNL     1       2.998   3.751  17.925  0.00  0.00    +0.000 A 
ATOM     13  C   UNL     1       2.366   3.172  19.033  0.00  0.00    +0.000 A 
ATOM     14 BR   UNL     1       0.546   2.665  18.831  0.00  0.00    +0.000 Br
ENDBRANCH   1  11
BRANCH   3  15
ATOM     15  N   UNL     1       6.945   4.785  13.846  0.00  0.00    +0.000 N 
ATOM     16  O   UNL     1       6.571   3.890  13.074  0.00  0.00    +0.000 OA
ATOM     17  O   UNL     1       7.945   5.500  13.692  0.00  0.00    +0.000 OA
ENDBRANCH   3  15
TORSDOF 2
ENDMDL
MODEL 7
REMARK VINA RESULT:      -6.7      2.471      3.561
REMARK  Name = 
REMARK  4 active torsions:
REMARK  status: ('A' for Active; 'I' for Inactive)
REMARK    1  A    between atoms: C_1  and  C_2
REMARK    2  A    between atoms: C_5  and  N_6
REMARK    3  A    between atoms: C_8  and  N_9
REMARK    4  A    between atoms: C_13  and  C_14
REMARK                            x       y       z     vdW  Elec       q    Type
REMARK                         _______ _______ _______ _____ _____    ______ ____
ROOT
ATOM      1  N   UNL     1       3.971   5.461  17.770  0.00  0.00    +0.000 N 
ATOM      2  C   UNL     1       5.230   5.782  17.306  0.00  0.00    +0.000 A 
ATOM      3  C   UNL     1       5.688   4.659  16.655  0.00  0.00    +0.000 A 
ATOM      4  N   UNL     1       4.731   3.676  16.641  0.00  0.00    +0.000 NA
ATOM      5  C   UNL     1       3.691   4.185  17.277  0.00  0.00    +0.000 A 
ATOM      6  C   UNL     1       2.356   3.524  17.311  0.00  0.00    +0.000 C 
ENDROOT
BRANCH   1  11
ATOM      7  C   UNL     1       0.728   8.849  21.101  0.00  0.00    +0.000 C 
ATOM      8  C   UNL     1       1.567   7.980  20.206  0.00  0.00    +0.000 A 
ATOM      9  C   UNL     1       1.921   6.692  20.631  0.00  0.00    +0.000 A 
ATOM     10  C   UNL     1       2.703   5.856  19.826  0.00  0.00    +0.000 A 
ATOM     11  C   UNL     1       3.162   6.305  18.582  0.00  0.00    +0.000 A 
ATOM     12  C   UNL     1       2.786   7.577  18.137  0.00  0.00    +0.000 A 
ATOM     13  C   UNL     1       1.998   8.408  18.943  0.00  0.00    +0.000 A 
ATOM     14 BR   UNL     1       1.537  10.114  18.244  0.00  0.00    +0.000 Br
ENDBRANCH   1  11
BRANCH   3  15
ATOM     15  N   UNL     1       6.982   4.462  16.040  0.00  0.00    +0.000 N 
ATOM     16  O   UNL     1       7.966   4.518  16.792  0.00  0.00    +0.000 OA
ATOM     17  O   UNL     1       7.017   4.255  14.820  0.00  0.00    +0.000 OA
ENDBRANCH   3  15
TORSDOF 2
ENDMDL
MODEL 8
REMARK VINA RESULT:      -6.7      1.931      2.416
REMARK  Name = 
REMARK  4 active torsions:
REMARK  status: ('A' for Active; 'I' for Inactive)
REMARK    1  A    between atoms: C_1  and  C_2
REMARK    2  A    between atoms: C_5  and  N_6
REMARK    3  A    between atoms: C_8  and  N_9
REMARK    4  A    between atoms: C_13  and  C_14
REMARK                            x       y       z     vdW  Elec       q    Type
REMARK                         _______ _______ _______ _____ _____    ______ ____
ROOT
ATOM      1  N   UNL     1       4.663   4.879  16.700  0.00  0.00    +0.000 N 
ATOM      2  C   UNL     1       5.459   4.153  15.838  0.00  0.00    +0.000 A 
ATOM      3  C   UNL     1       6.014   5.072  14.976  0.00  0.00    +0.000 A 
ATOM      4  N   UNL     1       5.643   6.348  15.315  0.00  0.00    +0.000 NA
ATOM      5  C   UNL     1       4.865   6.222  16.376  0.00  0.00    +0.000 A 
ATOM      6  C   UNL     1       4.409   7.382  17.191  0.00  0.00    +0.000 C 
ENDROOT
BRANCH   1  11
ATOM      7  C   UNL     1       1.233   2.605  20.720  0.00  0.00    +0.000 C 
ATOM      8  C   UNL     1       2.154   3.195  19.688  0.00  0.00    +0.000 A 
ATOM      9  C   UNL     1       1.633   4.054  18.710  0.00  0.00    +0.000 A 
ATOM     10  C   UNL     1       2.459   4.619  17.732  0.00  0.00    +0.000 A 
ATOM     11  C   UNL     1       3.826   4.317  17.705  0.00  0.00    +0.000 A 
ATOM     12  C   UNL     1       4.359   3.487  18.696  0.00  0.00    +0.000 A 
ATOM     13  C   UNL     1       3.530   2.928  19.677  0.00  0.00    +0.000 A 
ATOM     14 BR   UNL     1       4.352   1.818  20.982  0.00  0.00    +0.000 Br
ENDBRANCH   1  11
BRANCH   3  15
ATOM     15  N   UNL     1       6.880   4.811  13.849  0.00  0.00    +0.000 N 
ATOM     16  O   UNL     1       7.895   5.518  13.755  0.00  0.00    +0.000 OA
ATOM     17  O   UNL     1       6.553   3.911  13.064  0.00  0.00    +0.000 OA
ENDBRANCH   3  15
TORSDOF 2
ENDMDL
MODEL 9
REMARK VINA RESULT:      -6.6      3.355      4.648
REMARK  Name = 
REMARK  4 active torsions:
REMARK  status: ('A' for Active; 'I' for Inactive)
REMARK    1  A    between atoms: C_1  and  C_2
REMARK    2  A    between atoms: C_5  and  N_6
REMARK    3  A    between atoms: C_8  and  N_9
REMARK    4  A    between atoms: C_13  and  C_14
REMARK                            x       y       z     vdW  Elec       q    Type
REMARK                         _______ _______ _______ _____ _____    ______ ____
ROOT
ATOM      1  N   UNL     1       3.466   6.283  18.108  0.00  0.00    +0.000 N 
ATOM      2  C   UNL     1       4.823   6.337  17.865  0.00  0.00    +0.000 A 
ATOM      3  C   UNL     1       5.216   5.037  17.641  0.00  0.00    +0.000 A 
ATOM      4  N   UNL     1       4.140   4.187  17.670  0.00  0.00    +0.000 NA
ATOM      5  C   UNL     1       3.090   4.953  17.910  0.00  0.00    +0.000 A 
ATOM      6  C   UNL     1       1.688   4.459  17.818  0.00  0.00    +0.000 C 
ENDROOT
BRANCH   1  11
ATOM      7  C   UNL     1       0.176  10.779  19.543  0.00  0.00    +0.000 C 
ATOM      8  C   UNL     1       1.043   9.600  19.198  0.00  0.00    +0.000 A 
ATOM      9  C   UNL     1       1.559   9.480  17.900  0.00  0.00    +0.000 A 
ATOM     10  C   UNL     1       2.367   8.395  17.541  0.00  0.00    +0.000 A 
ATOM     11  C   UNL     1       2.658   7.396  18.477  0.00  0.00    +0.000 A 
ATOM     12  C   UNL     1       2.174   7.524  19.783  0.00  0.00    +0.000 A 
ATOM     13  C   UNL     1       1.371   8.615  20.139  0.00  0.00    +0.000 A 
ATOM     14 BR   UNL     1       0.770   8.701  21.940  0.00  0.00    +0.000 Br
ENDBRANCH   1  11
BRANCH   3  15
ATOM     15  N   UNL     1       6.556   4.552  17.397  0.00  0.00    +0.000 N 
ATOM     16  O   UNL     1       6.849   4.302  16.219  0.00  0.00    +0.000 OA
ATOM     17  O   UNL     1       7.310   4.420  18.371  0.00  0.00    +0.000 OA
ENDBRANCH   3  15
TORSDOF 2
ENDMDL
