MODEL 1
REMARK VINA RESULT:      -8.6      0.000      0.000
REMARK  Name = 
REMARK  4 active torsions:
REMARK  status: ('A' for Active; 'I' for Inactive)
REMARK    1  A    between atoms: N_1  and  C_2
REMARK    2  A    between atoms: C_3  and  S_4
REMARK    3  A    between atoms: S_4  and  C_7
REMARK    4  A    between atoms: C_16  and  C_17
REMARK                            x       y       z     vdW  Elec       q    Type
REMARK                         _______ _______ _______ _____ _____    ______ ____
ROOT
ATOM      1  C   UNL     1       1.041   8.955  19.997  0.00  0.00    +0.000 A 
ATOM      2  C   UNL     1       1.062   9.947  19.085  0.00  0.00    +0.000 A 
ATOM      3  C   UNL     1       1.878   9.728  17.870  0.00  0.00    +0.000 A 
ATOM      4  N   UNL     1       2.561   8.660  17.586  0.00  0.00    +0.000 NA
ATOM      5  C   UNL     1       2.529   7.655  18.517  0.00  0.00    +0.000 A 
ATOM      6  C   UNL     1       3.101   6.393  18.551  0.00  0.00    +0.000 A 
ATOM      7  C   UNL     1       2.731   5.878  19.813  0.00  0.00    +0.000 A 
ATOM      8  N   UNL     1       1.971   6.710  20.524  0.00  0.00    +0.000 NA
ATOM      9  N   UNL     1       1.809   7.792  19.712  0.00  0.00    +0.000 N 
ENDROOT
BRANCH   6  10
ATOM     10  C   UNL     1       3.894   5.786  17.490  0.00  0.00    +0.000 A 
ATOM     11  C   UNL     1       4.709   6.582  16.668  0.00  0.00    +0.000 A 
ATOM     12  C   UNL     1       5.500   5.999  15.672  0.00  0.00    +0.000 A 
ATOM     13  C   UNL     1       5.479   4.622  15.494  0.00  0.00    +0.000 A 
ATOM     14  F   UNL     1       6.240   4.065  14.544  0.00  0.00    +0.000 F 
ATOM     15  C   UNL     1       4.682   3.814  16.293  0.00  0.00    +0.000 A 
ATOM     16  C   UNL     1       3.895   4.396  17.290  0.00  0.00    +0.000 A 
ENDBRANCH   6  10
BRANCH   1  17
ATOM     17  N   UNL     1       0.344   8.955  21.208  0.00  0.00    +0.000 N 
ATOM     18  H   UNL     1      -0.554   9.448  21.174  0.00  0.00    +0.000 HD
ATOM     19  H   UNL     1       0.939   9.285  21.978  0.00  0.00    +0.000 HD
ENDBRANCH   1  17
BRANCH   2  20
ATOM     20  S   UNL     1       0.220  11.425  19.294  0.00  0.00    +0.000 S 
ATOM     21  O   UNL     1       0.051  11.712  20.709  0.00  0.00    +0.000 OA
ATOM     22  O   UNL     1       0.806  12.439  18.432  0.00  0.00    +0.000 OA
BRANCH  20  23
ATOM     23  C   UNL     1      -1.399  11.075  18.633  0.00  0.00    +0.000 A 
ATOM     24  C   UNL     1      -2.492  11.849  19.032  0.00  0.00    +0.000 A 
ATOM     25  C   UNL     1      -3.743  11.624  18.458  0.00  0.00    +0.000 A 
ATOM     26  C   UNL     1      -3.897  10.636  17.484  0.00  0.00    +0.000 A 
ATOM     27  C   UNL     1      -2.802   9.870  17.080  0.00  0.00    +0.000 A 
ATOM     28  C   UNL     1      -1.547  10.089  17.651  0.00  0.00    +0.000 A 
ENDBRANCH  20  23
ENDBRANCH   2  20
TORSDOF 4
ENDMDL
MODEL 2
REMARK VINA RESULT:      -8.5      0.081      1.344
REMARK  Name = 
REMARK  4 active torsions:
REMARK  status: ('A' for Active; 'I' for Inactive)
REMARK    1  A    between atoms: N_1  and  C_2
REMARK    2  A    between atoms: C_3  and  S_4
REMARK    3  A    between atoms: S_4  and  C_7
REMARK    4  A    between atoms: C_16  and  C_17
REMARK                            x       y       z     vdW  Elec       q    Type
REMARK                         _______ _______ _______ _____ _____    ______ ____
ROOT
ATOM      1  C   UNL     1       1.004   9.012  19.991  0.00  0.00    +0.000 A 
ATOM      2  C   UNL     1       1.047  10.006  19.081  0.00  0.00    +0.000 A 
ATOM      3  C   UNL     1       1.887   9.785  17.882  0.00  0.00    +0.000 A 
ATOM      4  N   UNL     1       2.573   8.716  17.611  0.00  0.00    +0.000 NA
ATOM      5  C   UNL     1       2.518   7.710  18.540  0.00  0.00    +0.000 A 
ATOM      6  C   UNL     1       3.086   6.446  18.584  0.00  0.00    +0.000 A 
ATOM      7  C   UNL     1       2.689   5.931  19.838  0.00  0.00    +0.000 A 
ATOM      8  N   UNL     1       1.917   6.764  20.534  0.00  0.00    +0.000 NA
ATOM      9  N   UNL     1       1.774   7.848  19.720  0.00  0.00    +0.000 N 
ENDROOT
BRANCH   6  10
ATOM     10  C   UNL     1       3.899   5.837  17.539  0.00  0.00    +0.000 A 
ATOM     11  C   UNL     1       3.868   4.448  17.335  0.00  0.00    +0.000 A 
ATOM     12  C   UNL     1       4.619   3.864  16.309  0.00  0.00    +0.000 A 
ATOM     13  C   UNL     1       5.400   4.664  15.485  0.00  0.00    +0.000 A 
ATOM     14  F   UNL     1       6.113   4.104  14.501  0.00  0.00    +0.000 F 
ATOM     15  C   UNL     1       5.447   6.039  15.667  0.00  0.00    +0.000 A 
ATOM     16  C   UNL     1       4.694   6.623  16.690  0.00  0.00    +0.000 A 
ENDBRANCH   6  10
BRANCH   1  17
ATOM     17  N   UNL     1       0.283   9.014  21.187  0.00  0.00    +0.000 N 
ATOM     18  H   UNL     1       0.842   8.781  22.013  0.00  0.00    +0.000 HD
ATOM     19  H   UNL     1      -0.560   8.432  21.113  0.00  0.00    +0.000 HD
ENDBRANCH   1  17
BRANCH   2  20
ATOM     20  S   UNL     1       0.206  11.486  19.274  0.00  0.00    +0.000 S 
ATOM     21  O   UNL     1      -0.031  11.750  20.685  0.00  0.00    +0.000 OA
ATOM     22  O   UNL     1       0.839  12.510  18.459  0.00  0.00    +0.000 OA
BRANCH  20  23
ATOM     23  C   UNL     1      -1.382  11.159  18.529  0.00  0.00    +0.000 A 
ATOM     24  C   UNL     1      -1.513  10.112  17.612  0.00  0.00    +0.000 A 
ATOM     25  C   UNL     1      -2.769   9.808  17.087  0.00  0.00    +0.000 A 
ATOM     26  C   UNL     1      -3.888  10.541  17.485  0.00  0.00    +0.000 A 
ATOM     27  C   UNL     1      -3.756  11.580  18.408  0.00  0.00    +0.000 A 
ATOM     28  C   UNL     1      -2.502  11.891  18.937  0.00  0.00    +0.000 A 
ENDBRANCH  20  23
ENDBRANCH   2  20
TORSDOF 4
ENDMDL
MODEL 3
REMARK VINA RESULT:      -8.2      4.238      8.018
REMARK  Name = 
REMARK  4 active torsions:
REMARK  status: ('A' for Active; 'I' for Inactive)
REMARK    1  A    between atoms: N_1  and  C_2
REMARK    2  A    between atoms: C_3  and  S_4
REMARK    3  A    between atoms: S_4  and  C_7
REMARK    4  A    between atoms: C_16  and  C_17
REMARK                            x       y       z     vdW  Elec       q    Type
REMARK                         _______ _______ _______ _____ _____    ______ ____
ROOT
ATOM      1  C   UNL     1       2.439   6.516  19.930  0.00  0.00    +0.000 A 
ATOM      2  C   UNL     1       3.027   6.475  18.718  0.00  0.00    +0.000 A 
ATOM      3  C   UNL     1       2.828   7.645  17.833  0.00  0.00    +0.000 A 
ATOM      4  N   UNL     1       2.156   8.719  18.120  0.00  0.00    +0.000 NA
ATOM      5  C   UNL     1       1.567   8.752  19.356  0.00  0.00    +0.000 A 
ATOM      6  C   UNL     1       0.809   9.715  20.005  0.00  0.00    +0.000 A 
ATOM      7  C   UNL     1       0.457   9.110  21.232  0.00  0.00    +0.000 A 
ATOM      8  N   UNL     1       0.956   7.884  21.383  0.00  0.00    +0.000 NA
ATOM      9  N   UNL     1       1.676   7.674  20.245  0.00  0.00    +0.000 N 
ENDROOT
BRANCH   6  10
ATOM     10  C   UNL     1       0.484  11.038  19.488  0.00  0.00    +0.000 A 
ATOM     11  C   UNL     1      -0.826  11.337  19.076  0.00  0.00    +0.000 A 
ATOM     12  C   UNL     1      -1.150  12.617  18.614  0.00  0.00    +0.000 A 
ATOM     13  C   UNL     1      -0.170  13.600  18.562  0.00  0.00    +0.000 A 
ATOM     14  F   UNL     1      -0.484  14.825  18.124  0.00  0.00    +0.000 F 
ATOM     15  C   UNL     1       1.130  13.328  18.963  0.00  0.00    +0.000 A 
ATOM     16  C   UNL     1       1.454  12.051  19.428  0.00  0.00    +0.000 A 
ENDBRANCH   6  10
BRANCH   1  17
ATOM     17  N   UNL     1       2.495   5.525  20.913  0.00  0.00    +0.000 N 
ATOM     18  H   UNL     1       2.607   4.575  20.544  0.00  0.00    +0.000 HD
ATOM     19  H   UNL     1       1.701   5.599  21.560  0.00  0.00    +0.000 HD
ENDBRANCH   1  17
BRANCH   2  20
ATOM     20  S   UNL     1       3.951   5.138  18.172  0.00  0.00    +0.000 S 
ATOM     21  O   UNL     1       3.826   4.028  19.103  0.00  0.00    +0.000 OA
ATOM     22  O   UNL     1       3.684   4.913  16.761  0.00  0.00    +0.000 OA
BRANCH  20  23
ATOM     23  C   UNL     1       5.632   5.727  18.281  0.00  0.00    +0.000 A 
ATOM     24  C   UNL     1       6.092   6.680  17.367  0.00  0.00    +0.000 A 
ATOM     25  C   UNL     1       7.381   7.195  17.498  0.00  0.00    +0.000 A 
ATOM     26  C   UNL     1       8.201   6.767  18.543  0.00  0.00    +0.000 A 
ATOM     27  C   UNL     1       7.736   5.822  19.460  0.00  0.00    +0.000 A 
ATOM     28  C   UNL     1       6.447   5.301  19.335  0.00  0.00    +0.000 A 
ENDBRANCH  20  23
ENDBRANCH   2  20
TORSDOF 4
ENDMDL
MODEL 4
REMARK VINA RESULT:      -8.1      0.560      1.095
REMARK  Name = 
REMARK  4 active torsions:
REMARK  status: ('A' for Active; 'I' for Inactive)
REMARK    1  A    between atoms: N_1  and  C_2
REMARK    2  A    between atoms: C_3  and  S_4
REMARK    3  A    between atoms: S_4  and  C_7
REMARK    4  A    between atoms: C_16  and  C_17
REMARK                            x       y       z     vdW  Elec       q    Type
REMARK                         _______ _______ _______ _____ _____    ______ ____
ROOT
ATOM      1  C   UNL     1       0.784   9.476  20.019  0.00  0.00    +0.000 A 
ATOM      2  C   UNL     1       0.918  10.437  19.084  0.00  0.00    +0.000 A 
ATOM      3  C   UNL     1       1.793  10.136  17.928  0.00  0.00    +0.000 A 
ATOM      4  N   UNL     1       2.432   9.024  17.717  0.00  0.00    +0.000 NA
ATOM      5  C   UNL     1       2.285   8.052  18.671  0.00  0.00    +0.000 A 
ATOM      6  C   UNL     1       2.781   6.762  18.776  0.00  0.00    +0.000 A 
ATOM      7  C   UNL     1       2.305   6.307  20.025  0.00  0.00    +0.000 A 
ATOM      8  N   UNL     1       1.551   7.200  20.664  0.00  0.00    +0.000 NA
ATOM      9  N   UNL     1       1.501   8.264  19.814  0.00  0.00    +0.000 N 
ENDROOT
BRANCH   6  10
ATOM     10  C   UNL     1       3.602   6.079  17.784  0.00  0.00    +0.000 A 
ATOM     11  C   UNL     1       4.487   6.809  16.972  0.00  0.00    +0.000 A 
ATOM     12  C   UNL     1       5.304   6.154  16.044  0.00  0.00    +0.000 A 
ATOM     13  C   UNL     1       5.239   4.771  15.924  0.00  0.00    +0.000 A 
ATOM     14  F   UNL     1       6.025   4.146  15.039  0.00  0.00    +0.000 F 
ATOM     15  C   UNL     1       4.373   4.029  16.714  0.00  0.00    +0.000 A 
ATOM     16  C   UNL     1       3.560   4.683  17.644  0.00  0.00    +0.000 A 
ENDBRANCH   6  10
BRANCH   1  17
ATOM     17  N   UNL     1       0.015   9.552  21.182  0.00  0.00    +0.000 N 
ATOM     18  H   UNL     1      -0.825   8.966  21.167  0.00  0.00    +0.000 HD
ATOM     19  H   UNL     1      -0.195  10.527  21.425  0.00  0.00    +0.000 HD
ENDBRANCH   1  17
BRANCH   2  20
ATOM     20  S   UNL     1       0.150  11.965  19.198  0.00  0.00    +0.000 S 
ATOM     21  O   UNL     1       0.082  12.391  20.587  0.00  0.00    +0.000 OA
ATOM     22  O   UNL     1       0.720  12.866  18.209  0.00  0.00    +0.000 OA
BRANCH  20  23
ATOM     23  C   UNL     1      -1.520  11.628  18.671  0.00  0.00    +0.000 A 
ATOM     24  C   UNL     1      -1.747  10.733  17.621  0.00  0.00    +0.000 A 
ATOM     25  C   UNL     1      -3.056  10.412  17.259  0.00  0.00    +0.000 A 
ATOM     26  C   UNL     1      -4.129  10.975  17.951  0.00  0.00    +0.000 A 
ATOM     27  C   UNL     1      -3.900  11.861  19.005  0.00  0.00    +0.000 A 
ATOM     28  C   UNL     1      -2.594  12.188  19.372  0.00  0.00    +0.000 A 
ENDBRANCH  20  23
ENDBRANCH   2  20
TORSDOF 4
ENDMDL
MODEL 5
REMARK VINA RESULT:      -8.0      4.674      8.289
REMARK  Name = 
REMARK  4 active torsions:
REMARK  status: ('A' for Active; 'I' for Inactive)
REMARK    1  A    between atoms: N_1  and  C_2
REMARK    2  A    between atoms: C_3  and  S_4
REMARK    3  A    between atoms: S_4  and  C_7
REMARK    4  A    between atoms: C_16  and  C_17
REMARK                            x       y       z     vdW  Elec       q    Type
REMARK                         _______ _______ _______ _____ _____    ______ ____
ROOT
ATOM      1  C   UNL     1       5.292   4.923  18.315  0.00  0.00    +0.000 A 
ATOM      2  C   UNL     1       5.843   5.790  17.441  0.00  0.00    +0.000 A 
ATOM      3  C   UNL     1       5.160   7.091  17.262  0.00  0.00    +0.000 A 
ATOM      4  N   UNL     1       4.089   7.488  17.881  0.00  0.00    +0.000 NA
ATOM      5  C   UNL     1       3.540   6.602  18.770  0.00  0.00    +0.000 A 
ATOM      6  C   UNL     1       2.439   6.679  19.609  0.00  0.00    +0.000 A 
ATOM      7  C   UNL     1       2.380   5.409  20.222  0.00  0.00    +0.000 A 
ATOM      8  N   UNL     1       3.360   4.589  19.843  0.00  0.00    +0.000 NA
ATOM      9  N   UNL     1       4.103   5.334  18.977  0.00  0.00    +0.000 N 
ENDROOT
BRANCH   6  10
ATOM     10  C   UNL     1       1.575   7.840  19.780  0.00  0.00    +0.000 A 
ATOM     11  C   UNL     1       0.946   8.081  21.012  0.00  0.00    +0.000 A 
ATOM     12  C   UNL     1       0.145   9.215  21.192  0.00  0.00    +0.000 A 
ATOM     13  C   UNL     1      -0.029  10.108  20.143  0.00  0.00    +0.000 A 
ATOM     14  F   UNL     1      -0.792  11.194  20.318  0.00  0.00    +0.000 F 
ATOM     15  C   UNL     1       0.581   9.891  18.916  0.00  0.00    +0.000 A 
ATOM     16  C   UNL     1       1.384   8.761  18.737  0.00  0.00    +0.000 A 
ENDBRANCH   6  10
BRANCH   1  17
ATOM     17  N   UNL     1       5.769   3.649  18.630  0.00  0.00    +0.000 N 
ATOM     18  H   UNL     1       5.429   3.286  19.526  0.00  0.00    +0.000 HD
ATOM     19  H   UNL     1       6.792   3.607  18.557  0.00  0.00    +0.000 HD
ENDBRANCH   1  17
BRANCH   2  20
ATOM     20  S   UNL     1       7.255   5.435  16.537  0.00  0.00    +0.000 S 
ATOM     21  O   UNL     1       7.977   6.659  16.231  0.00  0.00    +0.000 OA
ATOM     22  O   UNL     1       7.965   4.333  17.166  0.00  0.00    +0.000 OA
BRANCH  20  23
ATOM     23  C   UNL     1       6.611   4.806  14.997  0.00  0.00    +0.000 A 
ATOM     24  C   UNL     1       7.406   4.845  13.847  0.00  0.00    +0.000 A 
ATOM     25  C   UNL     1       6.930   4.285  12.661  0.00  0.00    +0.000 A 
ATOM     26  C   UNL     1       5.672   3.682  12.629  0.00  0.00    +0.000 A 
ATOM     27  C   UNL     1       4.884   3.637  13.781  0.00  0.00    +0.000 A 
ATOM     28  C   UNL     1       5.352   4.195  14.971  0.00  0.00    +0.000 A 
ENDBRANCH  20  23
ENDBRANCH   2  20
TORSDOF 4
ENDMDL
MODEL 6
REMARK VINA RESULT:      -8.0      4.212      7.988
REMARK  Name = 
REMARK  4 active torsions:
REMARK  status: ('A' for Active; 'I' for Inactive)
REMARK    1  A    between atoms: N_1  and  C_2
REMARK    2  A    between atoms: C_3  and  S_4
REMARK    3  A    between atoms: S_4  and  C_7
REMARK    4  A    between atoms: C_16  and  C_17
REMARK                            x       y       z     vdW  Elec       q    Type
REMARK                         _______ _______ _______ _____ _____    ______ ____
ROOT
ATOM      1  C   UNL     1       2.296   6.580  20.074  0.00  0.00    +0.000 A 
ATOM      2  C   UNL     1       2.904   6.550  18.871  0.00  0.00    +0.000 A 
ATOM      3  C   UNL     1       2.722   7.730  17.996  0.00  0.00    +0.000 A 
ATOM      4  N   UNL     1       2.048   8.803  18.282  0.00  0.00    +0.000 NA
ATOM      5  C   UNL     1       1.439   8.825  19.509  0.00  0.00    +0.000 A 
ATOM      6  C   UNL     1       0.673   9.783  20.156  0.00  0.00    +0.000 A 
ATOM      7  C   UNL     1       0.300   9.167  21.370  0.00  0.00    +0.000 A 
ATOM      8  N   UNL     1       0.793   7.938  21.516  0.00  0.00    +0.000 NA
ATOM      9  N   UNL     1       1.531   7.737  20.388  0.00  0.00    +0.000 N 
ENDROOT
BRANCH   6  10
ATOM     10  C   UNL     1       0.360  11.112  19.647  0.00  0.00    +0.000 A 
ATOM     11  C   UNL     1       1.189  12.204  19.957  0.00  0.00    +0.000 A 
ATOM     12  C   UNL     1       0.913  13.474  19.441  0.00  0.00    +0.000 A 
ATOM     13  C   UNL     1      -0.190  13.658  18.617  0.00  0.00    +0.000 A 
ATOM     14  F   UNL     1      -0.450  14.874  18.121  0.00  0.00    +0.000 F 
ATOM     15  C   UNL     1      -1.024  12.596  18.298  0.00  0.00    +0.000 A 
ATOM     16  C   UNL     1      -0.746  11.326  18.809  0.00  0.00    +0.000 A 
ENDBRANCH   6  10
BRANCH   1  17
ATOM     17  N   UNL     1       2.333   5.579  21.047  0.00  0.00    +0.000 N 
ATOM     18  H   UNL     1       2.032   5.887  21.977  0.00  0.00    +0.000 HD
ATOM     19  H   UNL     1       3.250   5.117  21.069  0.00  0.00    +0.000 HD
ENDBRANCH   1  17
BRANCH   2  20
ATOM     20  S   UNL     1       3.833   5.217  18.327  0.00  0.00    +0.000 S 
ATOM     21  O   UNL     1       3.739   4.118  19.275  0.00  0.00    +0.000 OA
ATOM     22  O   UNL     1       3.542   4.968  16.924  0.00  0.00    +0.000 OA
BRANCH  20  23
ATOM     23  C   UNL     1       5.508   5.826  18.395  0.00  0.00    +0.000 A 
ATOM     24  C   UNL     1       6.384   5.335  19.367  0.00  0.00    +0.000 A 
ATOM     25  C   UNL     1       7.714   5.755  19.373  0.00  0.00    +0.000 A 
ATOM     26  C   UNL     1       8.166   6.653  18.405  0.00  0.00    +0.000 A 
ATOM     27  C   UNL     1       7.292   7.135  17.430  0.00  0.00    +0.000 A 
ATOM     28  C   UNL     1       5.960   6.720  17.418  0.00  0.00    +0.000 A 
ENDBRANCH  20  23
ENDBRANCH   2  20
TORSDOF 4
ENDMDL
MODEL 7
REMARK VINA RESULT:      -7.6      4.190      7.621
REMARK  Name = 
REMARK  4 active torsions:
REMARK  status: ('A' for Active; 'I' for Inactive)
REMARK    1  A    between atoms: N_1  and  C_2
REMARK    2  A    between atoms: C_3  and  S_4
REMARK    3  A    between atoms: S_4  and  C_7
REMARK    4  A    between atoms: C_16  and  C_17
REMARK                            x       y       z     vdW  Elec       q    Type
REMARK                         _______ _______ _______ _____ _____    ______ ____
ROOT
ATOM      1  C   UNL     1       2.576   6.734  19.828  0.00  0.00    +0.000 A 
ATOM      2  C   UNL     1       3.182   6.772  18.624  0.00  0.00    +0.000 A 
ATOM      3  C   UNL     1       2.947   7.972  17.790  0.00  0.00    +0.000 A 
ATOM      4  N   UNL     1       2.227   9.004  18.113  0.00  0.00    +0.000 NA
ATOM      5  C   UNL     1       1.621   8.958  19.341  0.00  0.00    +0.000 A 
ATOM      6  C   UNL     1       0.816   9.858  20.021  0.00  0.00    +0.000 A 
ATOM      7  C   UNL     1       0.473   9.186  21.214  0.00  0.00    +0.000 A 
ATOM      8  N   UNL     1       1.019   7.975  21.317  0.00  0.00    +0.000 NA
ATOM      9  N   UNL     1       1.762   7.846  20.183  0.00  0.00    +0.000 N 
ENDROOT
BRANCH   6  10
ATOM     10  C   UNL     1       0.444  11.190  19.559  0.00  0.00    +0.000 A 
ATOM     11  C   UNL     1       1.230  12.304  19.897  0.00  0.00    +0.000 A 
ATOM     12  C   UNL     1       0.897  13.578  19.425  0.00  0.00    +0.000 A 
ATOM     13  C   UNL     1      -0.220  13.743  18.617  0.00  0.00    +0.000 A 
ATOM     14  F   UNL     1      -0.534  14.962  18.163  0.00  0.00    +0.000 F 
ATOM     15  C   UNL     1      -1.013  12.658  18.270  0.00  0.00    +0.000 A 
ATOM     16  C   UNL     1      -0.678  11.385  18.737  0.00  0.00    +0.000 A 
ENDBRANCH   6  10
BRANCH   1  17
ATOM     17  N   UNL     1       2.660   5.703  20.766  0.00  0.00    +0.000 N 
ATOM     18  H   UNL     1       3.032   4.825  20.391  0.00  0.00    +0.000 HD
ATOM     19  H   UNL     1       1.764   5.569  21.251  0.00  0.00    +0.000 HD
ENDBRANCH   1  17
BRANCH   2  20
ATOM     20  S   UNL     1       4.166   5.500  18.033  0.00  0.00    +0.000 S 
ATOM     21  O   UNL     1       4.418   5.678  16.612  0.00  0.00    +0.000 OA
ATOM     22  O   UNL     1       5.292   5.305  18.932  0.00  0.00    +0.000 OA
BRANCH  20  23
ATOM     23  C   UNL     1       3.127   4.060  18.206  0.00  0.00    +0.000 A 
ATOM     24  C   UNL     1       3.670   2.871  18.702  0.00  0.00    +0.000 A 
ATOM     25  C   UNL     1       2.841   1.768  18.908  0.00  0.00    +0.000 A 
ATOM     26  C   UNL     1       1.476   1.859  18.629  0.00  0.00    +0.000 A 
ATOM     27  C   UNL     1       0.935   3.050  18.143  0.00  0.00    +0.000 A 
ATOM     28  C   UNL     1       1.759   4.158  17.933  0.00  0.00    +0.000 A 
ENDBRANCH  20  23
ENDBRANCH   2  20
TORSDOF 4
ENDMDL
MODEL 8
REMARK VINA RESULT:      -7.6      4.076      7.843
REMARK  Name = 
REMARK  4 active torsions:
REMARK  status: ('A' for Active; 'I' for Inactive)
REMARK    1  A    between atoms: N_1  and  C_2
REMARK    2  A    between atoms: C_3  and  S_4
REMARK    3  A    between atoms: S_4  and  C_7
REMARK    4  A    between atoms: C_16  and  C_17
REMARK                            x       y       z     vdW  Elec       q    Type
REMARK                         _______ _______ _______ _____ _____    ______ ____
ROOT
ATOM      1  C   UNL     1       2.199   6.392  20.181  0.00  0.00    +0.000 A 
ATOM      2  C   UNL     1       2.607   6.200  18.911  0.00  0.00    +0.000 A 
ATOM      3  C   UNL     1       2.389   7.311  17.958  0.00  0.00    +0.000 A 
ATOM      4  N   UNL     1       1.858   8.465  18.231  0.00  0.00    +0.000 NA
ATOM      5  C   UNL     1       1.451   8.652  19.526  0.00  0.00    +0.000 A 
ATOM      6  C   UNL     1       0.876   9.731  20.179  0.00  0.00    +0.000 A 
ATOM      7  C   UNL     1       0.648   9.262  21.491  0.00  0.00    +0.000 A 
ATOM      8  N   UNL     1       1.056   8.009  21.685  0.00  0.00    +0.000 NA
ATOM      9  N   UNL     1       1.590   7.641  20.487  0.00  0.00    +0.000 N 
ENDROOT
BRANCH   6  10
ATOM     10  C   UNL     1       0.598  11.036  19.592  0.00  0.00    +0.000 A 
ATOM     11  C   UNL     1      -0.612  11.266  18.916  0.00  0.00    +0.000 A 
ATOM     12  C   UNL     1      -0.900  12.527  18.383  0.00  0.00    +0.000 A 
ATOM     13  C   UNL     1       0.019  13.559  18.522  0.00  0.00    +0.000 A 
ATOM     14  F   UNL     1      -0.259  14.766  18.015  0.00  0.00    +0.000 F 
ATOM     15  C   UNL     1       1.222  13.356  19.184  0.00  0.00    +0.000 A 
ATOM     16  C   UNL     1       1.507  12.098  19.720  0.00  0.00    +0.000 A 
ENDBRANCH   6  10
BRANCH   1  17
ATOM     17  N   UNL     1       2.306   5.481  21.234  0.00  0.00    +0.000 N 
ATOM     18  H   UNL     1       1.720   5.706  22.043  0.00  0.00    +0.000 HD
ATOM     19  H   UNL     1       3.287   5.328  21.495  0.00  0.00    +0.000 HD
ENDBRANCH   1  17
BRANCH   2  20
ATOM     20  S   UNL     1       3.328   4.741  18.372  0.00  0.00    +0.000 S 
ATOM     21  O   UNL     1       3.734   3.931  19.509  0.00  0.00    +0.000 OA
ATOM     22  O   UNL     1       2.495   4.146  17.340  0.00  0.00    +0.000 OA
BRANCH  20  23
ATOM     23  C   UNL     1       4.819   5.292  17.562  0.00  0.00    +0.000 A 
ATOM     24  C   UNL     1       5.848   5.859  18.319  0.00  0.00    +0.000 A 
ATOM     25  C   UNL     1       7.043   6.220  17.696  0.00  0.00    +0.000 A 
ATOM     26  C   UNL     1       7.210   6.006  16.327  0.00  0.00    +0.000 A 
ATOM     27  C   UNL     1       6.184   5.431  15.576  0.00  0.00    +0.000 A 
ATOM     28  C   UNL     1       4.985   5.068  16.191  0.00  0.00    +0.000 A 
ENDBRANCH  20  23
ENDBRANCH   2  20
TORSDOF 4
ENDMDL
MODEL 9
REMARK VINA RESULT:      -7.6      2.078      3.184
REMARK  Name = 
REMARK  4 active torsions:
REMARK  status: ('A' for Active; 'I' for Inactive)
REMARK    1  A    between atoms: N_1  and  C_2
REMARK    2  A    between atoms: C_3  and  S_4
REMARK    3  A    between atoms: S_4  and  C_7
REMARK    4  A    between atoms: C_16  and  C_17
REMARK                            x       y       z     vdW  Elec       q    Type
REMARK                         _______ _______ _______ _____ _____    ______ ____
ROOT
ATOM      1  C   UNL     1       1.131   8.840  20.051  0.00  0.00    +0.000 A 
ATOM      2  C   UNL     1       1.097   9.835  19.142  0.00  0.00    +0.000 A 
ATOM      3  C   UNL     1       1.872   9.636  17.896  0.00  0.00    +0.000 A 
ATOM      4  N   UNL     1       2.568   8.585  17.584  0.00  0.00    +0.000 NA
ATOM      5  C   UNL     1       2.592   7.577  18.512  0.00  0.00    +0.000 A 
ATOM      6  C   UNL     1       3.193   6.328  18.522  0.00  0.00    +0.000 A 
ATOM      7  C   UNL     1       2.881   5.802  19.795  0.00  0.00    +0.000 A 
ATOM      8  N   UNL     1       2.129   6.615  20.535  0.00  0.00    +0.000 NA
ATOM      9  N   UNL     1       1.913   7.695  19.733  0.00  0.00    +0.000 N 
ENDROOT
BRANCH   6  10
ATOM     10  C   UNL     1       3.960   5.741  17.430  0.00  0.00    +0.000 A 
ATOM     11  C   UNL     1       4.745   6.554  16.597  0.00  0.00    +0.000 A 
ATOM     12  C   UNL     1       5.511   5.990  15.571  0.00  0.00    +0.000 A 
ATOM     13  C   UNL     1       5.495   4.615  15.375  0.00  0.00    +0.000 A 
ATOM     14  F   UNL     1       6.232   4.077  14.396  0.00  0.00    +0.000 F 
ATOM     15  C   UNL     1       4.726   3.792  16.184  0.00  0.00    +0.000 A 
ATOM     16  C   UNL     1       3.964   4.354  17.212  0.00  0.00    +0.000 A 
ENDBRANCH   6  10
BRANCH   1  17
ATOM     17  N   UNL     1       0.480   8.823  21.286  0.00  0.00    +0.000 N 
ATOM     18  H   UNL     1       0.257   7.883  21.628  0.00  0.00    +0.000 HD
ATOM     19  H   UNL     1      -0.342   9.438  21.281  0.00  0.00    +0.000 HD
ENDBRANCH   1  17
BRANCH   2  20
ATOM     20  S   UNL     1       0.231  11.294  19.386  0.00  0.00    +0.000 S 
ATOM     21  O   UNL     1      -0.619  11.571  18.240  0.00  0.00    +0.000 OA
ATOM     22  O   UNL     1      -0.354  11.290  20.717  0.00  0.00    +0.000 OA
BRANCH  20  23
ATOM     23  C   UNL     1       1.512  12.536  19.401  0.00  0.00    +0.000 A 
ATOM     24  C   UNL     1       1.929  13.115  18.199  0.00  0.00    +0.000 A 
ATOM     25  C   UNL     1       2.876  14.139  18.219  0.00  0.00    +0.000 A 
ATOM     26  C   UNL     1       3.394  14.587  19.435  0.00  0.00    +0.000 A 
ATOM     27  C   UNL     1       2.969  14.014  20.634  0.00  0.00    +0.000 A 
ATOM     28  C   UNL     1       2.023  12.988  20.623  0.00  0.00    +0.000 A 
ENDBRANCH  20  23
ENDBRANCH   2  20
TORSDOF 4
ENDMDL
