MODEL 1
REMARK VINA RESULT:      -8.3      0.000      0.000
REMARK  Name = 
REMARK  7 active torsions:
REMARK  status: ('A' for Active; 'I' for Inactive)
REMARK    1  A    between atoms: C_1  and  C_2
REMARK    2  A    between atoms: C_2  and  C_3
REMARK    3  A    between atoms: C_6  and  C_7
REMARK    4  A    between atoms: C_7  and  C_8
REMARK    5  A    between atoms: C_7  and  N_12
REMARK    6  A    between atoms: C_8  and  C_9
REMARK    7  A    between atoms: C_9  and  O_11
REMARK                            x       y       z     vdW  Elec       q    Type
REMARK                         _______ _______ _______ _____ _____    ______ ____
ROOT
ATOM      1  C   UNL     1       5.958   5.361  17.758  0.00  0.00    +0.000 C 
ENDROOT
BRANCH   1   2
ATOM      2  N   UNL     1       6.050   5.019  16.318  0.00  0.00    +0.000 N 
ATOM      3  C   UNL     1       5.347   3.900  15.707  0.00  0.00    +0.000 C 
ATOM      4  C   UNL     1       5.829   3.930  14.299  0.00  0.00    +0.000 A 
ATOM      5  C   UNL     1       5.400   3.190  13.211  0.00  0.00    +0.000 A 
ATOM      6  C   UNL     1       6.055   3.372  11.991  0.00  0.00    +0.000 A 
ATOM      7  C   UNL     1       7.131   4.273  11.881  0.00  0.00    +0.000 A 
ATOM      8  C   UNL     1       7.540   5.037  12.978  0.00  0.00    +0.000 A 
ATOM      9  C   UNL     1       6.857   4.860  14.166  0.00  0.00    +0.000 A 
ATOM     10  C   UNL     1       7.009   5.554  15.460  0.00  0.00    +0.000 C 
ATOM     11  O   UNL     1       7.841   6.409  15.696  0.00  0.00    +0.000 OA
ENDBRANCH   1   2
BRANCH   1  15
ATOM     12  C   UNL     1       2.184   4.059  19.548  0.00  0.00    +0.000 A 
ATOM     13  C   UNL     1       2.184   5.069  18.587  0.00  0.00    +0.000 A 
ATOM     14  C   UNL     1       3.381   5.502  18.008  0.00  0.00    +0.000 A 
ATOM     15  C   UNL     1       4.610   4.916  18.348  0.00  0.00    +0.000 A 
ATOM     16  C   UNL     1       4.589   3.868  19.287  0.00  0.00    +0.000 A 
ATOM     17  C   UNL     1       3.399   3.465  19.901  0.00  0.00    +0.000 A 
BRANCH  12  19
ATOM     18  C   UNL     1       1.143   2.729  21.375  0.00  0.00    +0.000 C 
ATOM     19  C   UNL     1       0.887   3.564  20.130  0.00  0.00    +0.000 C 
ENDBRANCH  12  19
ENDBRANCH   1  15
BRANCH   1  20
ATOM     20  C   UNL     1       7.212   4.824  18.476  0.00  0.00    +0.000 C 
BRANCH  20  21
ATOM     21  C   UNL     1       7.906   5.871  19.311  0.00  0.00    +0.000 C 
ATOM     22  O   UNL     1       8.305   6.951  18.907  0.00  0.00    +0.000 OA
BRANCH  21  23
ATOM     23  O   UNL     1       8.058   5.487  20.602  0.00  0.00    +0.000 OA
ATOM     24  H   UNL     1       7.571   6.033  21.248  0.00  0.00    +0.000 HD
ENDBRANCH  21  23
ENDBRANCH  20  21
ENDBRANCH   1  20
TORSDOF 6
ENDMDL
MODEL 2
REMARK VINA RESULT:      -8.3      0.201      1.018
REMARK  Name = 
REMARK  7 active torsions:
REMARK  status: ('A' for Active; 'I' for Inactive)
REMARK    1  A    between atoms: C_1  and  C_2
REMARK    2  A    between atoms: C_2  and  C_3
REMARK    3  A    between atoms: C_6  and  C_7
REMARK    4  A    between atoms: C_7  and  C_8
REMARK    5  A    between atoms: C_7  and  N_12
REMARK    6  A    between atoms: C_8  and  C_9
REMARK    7  A    between atoms: C_9  and  O_11
REMARK                            x       y       z     vdW  Elec       q    Type
REMARK                         _______ _______ _______ _____ _____    ______ ____
ROOT
ATOM      1  C   UNL     1       5.993   5.248  17.813  0.00  0.00    +0.000 C 
ENDROOT
BRANCH   1   2
ATOM      2  N   UNL     1       6.070   4.942  16.364  0.00  0.00    +0.000 N 
ATOM      3  C   UNL     1       5.364   3.836  15.734  0.00  0.00    +0.000 C 
ATOM      4  C   UNL     1       5.831   3.902  14.321  0.00  0.00    +0.000 A 
ATOM      5  C   UNL     1       5.391   3.188  13.221  0.00  0.00    +0.000 A 
ATOM      6  C   UNL     1       6.033   3.403  11.998  0.00  0.00    +0.000 A 
ATOM      7  C   UNL     1       7.104   4.309  11.899  0.00  0.00    +0.000 A 
ATOM      8  C   UNL     1       7.523   5.047  13.009  0.00  0.00    +0.000 A 
ATOM      9  C   UNL     1       6.854   4.839  14.200  0.00  0.00    +0.000 A 
ATOM     10  C   UNL     1       7.018   5.501  15.510  0.00  0.00    +0.000 C 
ATOM     11  O   UNL     1       7.850   6.353  15.758  0.00  0.00    +0.000 OA
ENDBRANCH   1   2
BRANCH   1  15
ATOM     12  C   UNL     1       2.259   3.683  19.472  0.00  0.00    +0.000 A 
ATOM     13  C   UNL     1       3.466   3.047  19.760  0.00  0.00    +0.000 A 
ATOM     14  C   UNL     1       4.669   3.530  19.234  0.00  0.00    +0.000 A 
ATOM     15  C   UNL     1       4.705   4.681  18.432  0.00  0.00    +0.000 A 
ATOM     16  C   UNL     1       3.484   5.337  18.186  0.00  0.00    +0.000 A 
ATOM     17  C   UNL     1       2.276   4.830  18.673  0.00  0.00    +0.000 A 
BRANCH  12  19
ATOM     18  C   UNL     1       1.208   2.720  21.511  0.00  0.00    +0.000 C 
ATOM     19  C   UNL     1       0.975   3.187  20.082  0.00  0.00    +0.000 C 
ENDBRANCH  12  19
ENDBRANCH   1  15
BRANCH   1  20
ATOM     20  C   UNL     1       7.308   4.804  18.485  0.00  0.00    +0.000 C 
BRANCH  20  21
ATOM     21  C   UNL     1       7.929   5.885  19.334  0.00  0.00    +0.000 C 
ATOM     22  O   UNL     1       8.279   6.985  18.939  0.00  0.00    +0.000 OA
BRANCH  21  23
ATOM     23  O   UNL     1       8.075   5.506  20.628  0.00  0.00    +0.000 OA
ATOM     24  H   UNL     1       7.451   5.930  21.247  0.00  0.00    +0.000 HD
ENDBRANCH  21  23
ENDBRANCH  20  21
ENDBRANCH   1  20
TORSDOF 6
ENDMDL
MODEL 3
REMARK VINA RESULT:      -8.0      1.322      6.341
REMARK  Name = 
REMARK  7 active torsions:
REMARK  status: ('A' for Active; 'I' for Inactive)
REMARK    1  A    between atoms: C_1  and  C_2
REMARK    2  A    between atoms: C_2  and  C_3
REMARK    3  A    between atoms: C_6  and  C_7
REMARK    4  A    between atoms: C_7  and  C_8
REMARK    5  A    between atoms: C_7  and  N_12
REMARK    6  A    between atoms: C_8  and  C_9
REMARK    7  A    between atoms: C_9  and  O_11
REMARK                            x       y       z     vdW  Elec       q    Type
REMARK                         _______ _______ _______ _____ _____    ______ ____
ROOT
ATOM      1  C   UNL     1       6.205   4.707  18.023  0.00  0.00    +0.000 C 
ENDROOT
BRANCH   1   2
ATOM      2  N   UNL     1       4.883   4.437  18.639  0.00  0.00    +0.000 N 
ATOM      3  C   UNL     1       3.828   5.434  18.755  0.00  0.00    +0.000 C 
ATOM      4  C   UNL     1       2.767   4.712  19.509  0.00  0.00    +0.000 A 
ATOM      5  C   UNL     1       1.472   5.108  19.793  0.00  0.00    +0.000 A 
ATOM      6  C   UNL     1       0.678   4.259  20.568  0.00  0.00    +0.000 A 
ATOM      7  C   UNL     1       1.193   3.043  21.057  0.00  0.00    +0.000 A 
ATOM      8  C   UNL     1       2.492   2.638  20.742  0.00  0.00    +0.000 A 
ATOM      9  C   UNL     1       3.247   3.481  19.949  0.00  0.00    +0.000 A 
ATOM     10  C   UNL     1       4.607   3.305  19.402  0.00  0.00    +0.000 C 
ATOM     11  O   UNL     1       5.324   2.347  19.620  0.00  0.00    +0.000 OA
ENDBRANCH   1   2
BRANCH   1  15
ATOM     12  C   UNL     1       6.245   3.972  13.709  0.00  0.00    +0.000 A 
ATOM     13  C   UNL     1       5.219   3.444  14.493  0.00  0.00    +0.000 A 
ATOM     14  C   UNL     1       5.194   3.664  15.874  0.00  0.00    +0.000 A 
ATOM     15  C   UNL     1       6.173   4.445  16.508  0.00  0.00    +0.000 A 
ATOM     16  C   UNL     1       7.177   5.007  15.697  0.00  0.00    +0.000 A 
ATOM     17  C   UNL     1       7.230   4.750  14.324  0.00  0.00    +0.000 A 
BRANCH  12  19
ATOM     18  C   UNL     1       4.928   3.149  11.766  0.00  0.00    +0.000 C 
ATOM     19  C   UNL     1       6.239   3.774  12.217  0.00  0.00    +0.000 C 
ENDBRANCH  12  19
ENDBRANCH   1  15
BRANCH   1  20
ATOM     20  C   UNL     1       6.674   6.112  18.448  0.00  0.00    +0.000 C 
BRANCH  20  21
ATOM     21  C   UNL     1       7.947   6.087  19.257  0.00  0.00    +0.000 C 
ATOM     22  O   UNL     1       8.331   5.159  19.948  0.00  0.00    +0.000 OA
BRANCH  21  23
ATOM     23  O   UNL     1       8.652   7.240  19.146  0.00  0.00    +0.000 OA
ATOM     24  H   UNL     1       8.121   8.019  18.892  0.00  0.00    +0.000 HD
ENDBRANCH  21  23
ENDBRANCH  20  21
ENDBRANCH   1  20
TORSDOF 6
ENDMDL
MODEL 4
REMARK VINA RESULT:      -7.9      2.379      6.666
REMARK  Name = 
REMARK  7 active torsions:
REMARK  status: ('A' for Active; 'I' for Inactive)
REMARK    1  A    between atoms: C_1  and  C_2
REMARK    2  A    between atoms: C_2  and  C_3
REMARK    3  A    between atoms: C_6  and  C_7
REMARK    4  A    between atoms: C_7  and  C_8
REMARK    5  A    between atoms: C_7  and  N_12
REMARK    6  A    between atoms: C_8  and  C_9
REMARK    7  A    between atoms: C_9  and  O_11
REMARK                            x       y       z     vdW  Elec       q    Type
REMARK                         _______ _______ _______ _____ _____    ______ ____
ROOT
ATOM      1  C   UNL     1       5.573   5.317  16.959  0.00  0.00    +0.000 C 
ENDROOT
BRANCH   1   2
ATOM      2  N   UNL     1       4.681   4.829  18.039  0.00  0.00    +0.000 N 
ATOM      3  C   UNL     1       4.850   3.548  18.709  0.00  0.00    +0.000 C 
ATOM      4  C   UNL     1       3.676   3.491  19.624  0.00  0.00    +0.000 A 
ATOM      5  C   UNL     1       3.383   2.571  20.614  0.00  0.00    +0.000 A 
ATOM      6  C   UNL     1       2.180   2.713  21.309  0.00  0.00    +0.000 A 
ATOM      7  C   UNL     1       1.288   3.756  20.996  0.00  0.00    +0.000 A 
ATOM      8  C   UNL     1       1.606   4.698  20.014  0.00  0.00    +0.000 A 
ATOM      9  C   UNL     1       2.814   4.553  19.361  0.00  0.00    +0.000 A 
ATOM     10  C   UNL     1       3.450   5.408  18.338  0.00  0.00    +0.000 C 
ATOM     11  O   UNL     1       2.948   6.407  17.860  0.00  0.00    +0.000 OA
ENDBRANCH   1   2
BRANCH   1  15
ATOM     12  C   UNL     1       8.288   8.420  18.424  0.00  0.00    +0.000 A 
ATOM     13  C   UNL     1       7.301   8.744  17.493  0.00  0.00    +0.000 A 
ATOM     14  C   UNL     1       6.429   7.764  17.010  0.00  0.00    +0.000 A 
ATOM     15  C   UNL     1       6.494   6.438  17.466  0.00  0.00    +0.000 A 
ATOM     16  C   UNL     1       7.467   6.136  18.437  0.00  0.00    +0.000 A 
ATOM     17  C   UNL     1       8.370   7.104  18.887  0.00  0.00    +0.000 A 
BRANCH  12  19
ATOM     18  C   UNL     1       9.023  10.786  18.199  0.00  0.00    +0.000 C 
ATOM     19  C   UNL     1       9.191   9.490  18.977  0.00  0.00    +0.000 C 
ENDBRANCH  12  19
ENDBRANCH   1  15
BRANCH   1  20
ATOM     20  C   UNL     1       6.284   4.108  16.318  0.00  0.00    +0.000 C 
BRANCH  20  21
ATOM     21  C   UNL     1       6.784   4.391  14.924  0.00  0.00    +0.000 C 
ATOM     22  O   UNL     1       7.504   5.322  14.603  0.00  0.00    +0.000 OA
BRANCH  21  23
ATOM     23  O   UNL     1       6.339   3.483  14.020  0.00  0.00    +0.000 OA
ATOM     24  H   UNL     1       7.033   2.906  13.648  0.00  0.00    +0.000 HD
ENDBRANCH  21  23
ENDBRANCH  20  21
ENDBRANCH   1  20
TORSDOF 6
ENDMDL
MODEL 5
REMARK VINA RESULT:      -7.9      3.301      4.803
REMARK  Name = 
REMARK  7 active torsions:
REMARK  status: ('A' for Active; 'I' for Inactive)
REMARK    1  A    between atoms: C_1  and  C_2
REMARK    2  A    between atoms: C_2  and  C_3
REMARK    3  A    between atoms: C_6  and  C_7
REMARK    4  A    between atoms: C_7  and  C_8
REMARK    5  A    between atoms: C_7  and  N_12
REMARK    6  A    between atoms: C_8  and  C_9
REMARK    7  A    between atoms: C_9  and  O_11
REMARK                            x       y       z     vdW  Elec       q    Type
REMARK                         _______ _______ _______ _____ _____    ______ ____
ROOT
ATOM      1  C   UNL     1       3.025   5.448  19.841  0.00  0.00    +0.000 C 
ENDROOT
BRANCH   1   2
ATOM      2  N   UNL     1       3.929   5.227  18.686  0.00  0.00    +0.000 N 
ATOM      3  C   UNL     1       3.486   4.695  17.405  0.00  0.00    +0.000 C 
ATOM      4  C   UNL     1       4.754   4.581  16.633  0.00  0.00    +0.000 A 
ATOM      5  C   UNL     1       4.941   4.267  15.299  0.00  0.00    +0.000 A 
ATOM      6  C   UNL     1       6.250   4.176  14.821  0.00  0.00    +0.000 A 
ATOM      7  C   UNL     1       7.344   4.385  15.681  0.00  0.00    +0.000 A 
ATOM      8  C   UNL     1       7.147   4.730  17.021  0.00  0.00    +0.000 A 
ATOM      9  C   UNL     1       5.842   4.843  17.462  0.00  0.00    +0.000 A 
ATOM     10  C   UNL     1       5.318   5.247  18.782  0.00  0.00    +0.000 C 
ATOM     11  O   UNL     1       6.005   5.517  19.749  0.00  0.00    +0.000 OA
ENDBRANCH   1   2
BRANCH   1  15
ATOM     12  C   UNL     1       1.043   9.346  19.689  0.00  0.00    +0.000 A 
ATOM     13  C   UNL     1       1.731   8.874  18.571  0.00  0.00    +0.000 A 
ATOM     14  C   UNL     1       2.376   7.633  18.604  0.00  0.00    +0.000 A 
ATOM     15  C   UNL     1       2.324   6.813  19.742  0.00  0.00    +0.000 A 
ATOM     16  C   UNL     1       1.588   7.284  20.846  0.00  0.00    +0.000 A 
ATOM     17  C   UNL     1       0.983   8.544  20.831  0.00  0.00    +0.000 A 
BRANCH  12  19
ATOM     18  C   UNL     1      -0.733  10.641  18.523  0.00  0.00    +0.000 C 
ATOM     19  C   UNL     1       0.310  10.660  19.629  0.00  0.00    +0.000 C 
ENDBRANCH  12  19
ENDBRANCH   1  15
BRANCH   1  20
ATOM     20  C   UNL     1       2.095   4.228  19.985  0.00  0.00    +0.000 C 
BRANCH  20  21
ATOM     21  C   UNL     1       2.557   3.257  21.042  0.00  0.00    +0.000 C 
ATOM     22  O   UNL     1       2.091   3.154  22.165  0.00  0.00    +0.000 OA
BRANCH  21  23
ATOM     23  O   UNL     1       3.584   2.480  20.618  0.00  0.00    +0.000 OA
ATOM     24  H   UNL     1       4.409   2.966  20.427  0.00  0.00    +0.000 HD
ENDBRANCH  21  23
ENDBRANCH  20  21
ENDBRANCH   1  20
TORSDOF 6
ENDMDL
MODEL 6
REMARK VINA RESULT:      -7.8      1.341      6.300
REMARK  Name = 
REMARK  7 active torsions:
REMARK  status: ('A' for Active; 'I' for Inactive)
REMARK    1  A    between atoms: C_1  and  C_2
REMARK    2  A    between atoms: C_2  and  C_3
REMARK    3  A    between atoms: C_6  and  C_7
REMARK    4  A    between atoms: C_7  and  C_8
REMARK    5  A    between atoms: C_7  and  N_12
REMARK    6  A    between atoms: C_8  and  C_9
REMARK    7  A    between atoms: C_9  and  O_11
REMARK                            x       y       z     vdW  Elec       q    Type
REMARK                         _______ _______ _______ _____ _____    ______ ____
ROOT
ATOM      1  C   UNL     1       6.219   4.680  18.029  0.00  0.00    +0.000 C 
ENDROOT
BRANCH   1   2
ATOM      2  N   UNL     1       4.890   4.406  18.629  0.00  0.00    +0.000 N 
ATOM      3  C   UNL     1       3.825   5.395  18.716  0.00  0.00    +0.000 C 
ATOM      4  C   UNL     1       2.758   4.672  19.463  0.00  0.00    +0.000 A 
ATOM      5  C   UNL     1       1.456   5.060  19.721  0.00  0.00    +0.000 A 
ATOM      6  C   UNL     1       0.658   4.213  20.495  0.00  0.00    +0.000 A 
ATOM      7  C   UNL     1       1.176   3.008  21.006  0.00  0.00    +0.000 A 
ATOM      8  C   UNL     1       2.484   2.610  20.716  0.00  0.00    +0.000 A 
ATOM      9  C   UNL     1       3.243   3.451  19.925  0.00  0.00    +0.000 A 
ATOM     10  C   UNL     1       4.613   3.281  19.401  0.00  0.00    +0.000 C 
ATOM     11  O   UNL     1       5.335   2.332  19.641  0.00  0.00    +0.000 OA
ENDBRANCH   1   2
BRANCH   1  15
ATOM     12  C   UNL     1       6.044   3.995  13.711  0.00  0.00    +0.000 A 
ATOM     13  C   UNL     1       7.204   4.516  14.284  0.00  0.00    +0.000 A 
ATOM     14  C   UNL     1       7.276   4.747  15.662  0.00  0.00    +0.000 A 
ATOM     15  C   UNL     1       6.203   4.433  16.512  0.00  0.00    +0.000 A 
ATOM     16  C   UNL     1       5.057   3.867  15.924  0.00  0.00    +0.000 A 
ATOM     17  C   UNL     1       4.966   3.678  14.542  0.00  0.00    +0.000 A 
BRANCH  12  19
ATOM     18  C   UNL     1       4.627   3.158  11.845  0.00  0.00    +0.000 C 
ATOM     19  C   UNL     1       5.993   3.702  12.235  0.00  0.00    +0.000 C 
ENDBRANCH  12  19
ENDBRANCH   1  15
BRANCH   1  20
ATOM     20  C   UNL     1       6.685   6.081  18.473  0.00  0.00    +0.000 C 
BRANCH  20  21
ATOM     21  C   UNL     1       7.979   6.053  19.246  0.00  0.00    +0.000 C 
ATOM     22  O   UNL     1       8.395   5.111  19.901  0.00  0.00    +0.000 OA
BRANCH  21  23
ATOM     23  O   UNL     1       8.666   7.218  19.150  0.00  0.00    +0.000 OA
ATOM     24  H   UNL     1       9.634   7.127  19.239  0.00  0.00    +0.000 HD
ENDBRANCH  21  23
ENDBRANCH  20  21
ENDBRANCH   1  20
TORSDOF 6
ENDMDL
MODEL 7
REMARK VINA RESULT:      -7.8      1.321      6.121
REMARK  Name = 
REMARK  7 active torsions:
REMARK  status: ('A' for Active; 'I' for Inactive)
REMARK    1  A    between atoms: C_1  and  C_2
REMARK    2  A    between atoms: C_2  and  C_3
REMARK    3  A    between atoms: C_6  and  C_7
REMARK    4  A    between atoms: C_7  and  C_8
REMARK    5  A    between atoms: C_7  and  N_12
REMARK    6  A    between atoms: C_8  and  C_9
REMARK    7  A    between atoms: C_9  and  O_11
REMARK                            x       y       z     vdW  Elec       q    Type
REMARK                         _______ _______ _______ _____ _____    ______ ____
ROOT
ATOM      1  C   UNL     1       6.465   4.779  17.733  0.00  0.00    +0.000 C 
ENDROOT
BRANCH   1   2
ATOM      2  N   UNL     1       5.215   4.518  18.488  0.00  0.00    +0.000 N 
ATOM      3  C   UNL     1       4.990   3.324  19.290  0.00  0.00    +0.000 C 
ATOM      4  C   UNL     1       3.586   3.494  19.756  0.00  0.00    +0.000 A 
ATOM      5  C   UNL     1       2.871   2.739  20.669  0.00  0.00    +0.000 A 
ATOM      6  C   UNL     1       1.536   3.080  20.901  0.00  0.00    +0.000 A 
ATOM      7  C   UNL     1       0.937   4.151  20.212  0.00  0.00    +0.000 A 
ATOM      8  C   UNL     1       1.675   4.925  19.313  0.00  0.00    +0.000 A 
ATOM      9  C   UNL     1       3.001   4.587  19.122  0.00  0.00    +0.000 A 
ATOM     10  C   UNL     1       4.039   5.241  18.300  0.00  0.00    +0.000 C 
ATOM     11  O   UNL     1       3.854   6.212  17.592  0.00  0.00    +0.000 OA
ENDBRANCH   1   2
BRANCH   1  15
ATOM     12  C   UNL     1       6.105   3.837  13.475  0.00  0.00    +0.000 A 
ATOM     13  C   UNL     1       5.197   3.294  14.385  0.00  0.00    +0.000 A 
ATOM     14  C   UNL     1       5.301   3.580  15.750  0.00  0.00    +0.000 A 
ATOM     15  C   UNL     1       6.293   4.442  16.243  0.00  0.00    +0.000 A 
ATOM     16  C   UNL     1       7.174   5.017  15.307  0.00  0.00    +0.000 A 
ATOM     17  C   UNL     1       7.100   4.696  13.949  0.00  0.00    +0.000 A 
BRANCH  12  19
ATOM     18  C   UNL     1       4.501   3.304  11.651  0.00  0.00    +0.000 C 
ATOM     19  C   UNL     1       5.957   3.566  12.002  0.00  0.00    +0.000 C 
ENDBRANCH  12  19
ENDBRANCH   1  15
BRANCH   1  20
ATOM     20  C   UNL     1       6.943   6.211  18.043  0.00  0.00    +0.000 C 
BRANCH  20  21
ATOM     21  C   UNL     1       8.011   6.258  19.107  0.00  0.00    +0.000 C 
ATOM     22  O   UNL     1       8.279   5.357  19.885  0.00  0.00    +0.000 OA
BRANCH  21  23
ATOM     23  O   UNL     1       8.671   7.442  19.126  0.00  0.00    +0.000 OA
ATOM     24  H   UNL     1       8.130   8.213  18.867  0.00  0.00    +0.000 HD
ENDBRANCH  21  23
ENDBRANCH  20  21
ENDBRANCH   1  20
TORSDOF 6
ENDMDL
MODEL 8
REMARK VINA RESULT:      -7.8      2.328      6.596
REMARK  Name = 
REMARK  7 active torsions:
REMARK  status: ('A' for Active; 'I' for Inactive)
REMARK    1  A    between atoms: C_1  and  C_2
REMARK    2  A    between atoms: C_2  and  C_3
REMARK    3  A    between atoms: C_6  and  C_7
REMARK    4  A    between atoms: C_7  and  C_8
REMARK    5  A    between atoms: C_7  and  N_12
REMARK    6  A    between atoms: C_8  and  C_9
REMARK    7  A    between atoms: C_9  and  O_11
REMARK                            x       y       z     vdW  Elec       q    Type
REMARK                         _______ _______ _______ _____ _____    ______ ____
ROOT
ATOM      1  C   UNL     1       5.482   5.221  16.619  0.00  0.00    +0.000 C 
ENDROOT
BRANCH   1   2
ATOM      2  N   UNL     1       4.508   4.719  17.618  0.00  0.00    +0.000 N 
ATOM      3  C   UNL     1       4.279   3.305  17.883  0.00  0.00    +0.000 C 
ATOM      4  C   UNL     1       3.171   3.326  18.877  0.00  0.00    +0.000 A 
ATOM      5  C   UNL     1       2.626   2.280  19.601  0.00  0.00    +0.000 A 
ATOM      6  C   UNL     1       1.547   2.556  20.445  0.00  0.00    +0.000 A 
ATOM      7  C   UNL     1       1.025   3.859  20.540  0.00  0.00    +0.000 A 
ATOM      8  C   UNL     1       1.600   4.915  19.827  0.00  0.00    +0.000 A 
ATOM      9  C   UNL     1       2.684   4.622  19.022  0.00  0.00    +0.000 A 
ATOM     10  C   UNL     1       3.531   5.517  18.209  0.00  0.00    +0.000 C 
ATOM     11  O   UNL     1       3.360   6.716  18.089  0.00  0.00    +0.000 OA
ENDBRANCH   1   2
BRANCH   1  15
ATOM     12  C   UNL     1       8.165   8.182  18.401  0.00  0.00    +0.000 A 
ATOM     13  C   UNL     1       8.240   6.848  18.801  0.00  0.00    +0.000 A 
ATOM     14  C   UNL     1       7.387   5.889  18.247  0.00  0.00    +0.000 A 
ATOM     15  C   UNL     1       6.455   6.228  17.252  0.00  0.00    +0.000 A 
ATOM     16  C   UNL     1       6.422   7.570  16.828  0.00  0.00    +0.000 A 
ATOM     17  C   UNL     1       7.242   8.538  17.414  0.00  0.00    +0.000 A 
BRANCH  12  19
ATOM     18  C   UNL     1       8.945  10.541  18.274  0.00  0.00    +0.000 C 
ATOM     19  C   UNL     1       9.121   9.199  18.966  0.00  0.00    +0.000 C 
ENDBRANCH  12  19
ENDBRANCH   1  15
BRANCH   1  20
ATOM     20  C   UNL     1       6.133   4.017  15.911  0.00  0.00    +0.000 C 
BRANCH  20  21
ATOM     21  C   UNL     1       6.580   4.332  14.506  0.00  0.00    +0.000 C 
ATOM     22  O   UNL     1       7.161   5.346  14.156  0.00  0.00    +0.000 OA
BRANCH  21  23
ATOM     23  O   UNL     1       6.261   3.349  13.628  0.00  0.00    +0.000 OA
ATOM     24  H   UNL     1       6.910   3.220  12.910  0.00  0.00    +0.000 HD
ENDBRANCH  21  23
ENDBRANCH  20  21
ENDBRANCH   1  20
TORSDOF 6
ENDMDL
MODEL 9
REMARK VINA RESULT:      -7.7      3.361      4.872
REMARK  Name = 
REMARK  7 active torsions:
REMARK  status: ('A' for Active; 'I' for Inactive)
REMARK    1  A    between atoms: C_1  and  C_2
REMARK    2  A    between atoms: C_2  and  C_3
REMARK    3  A    between atoms: C_6  and  C_7
REMARK    4  A    between atoms: C_7  and  C_8
REMARK    5  A    between atoms: C_7  and  N_12
REMARK    6  A    between atoms: C_8  and  C_9
REMARK    7  A    between atoms: C_9  and  O_11
REMARK                            x       y       z     vdW  Elec       q    Type
REMARK                         _______ _______ _______ _____ _____    ______ ____
ROOT
ATOM      1  C   UNL     1       3.014   5.456  19.858  0.00  0.00    +0.000 C 
ENDROOT
BRANCH   1   2
ATOM      2  N   UNL     1       3.913   5.227  18.700  0.00  0.00    +0.000 N 
ATOM      3  C   UNL     1       3.464   4.690  17.424  0.00  0.00    +0.000 C 
ATOM      4  C   UNL     1       4.729   4.570  16.648  0.00  0.00    +0.000 A 
ATOM      5  C   UNL     1       4.911   4.249  15.314  0.00  0.00    +0.000 A 
ATOM      6  C   UNL     1       6.218   4.154  14.832  0.00  0.00    +0.000 A 
ATOM      7  C   UNL     1       7.316   4.365  15.687  0.00  0.00    +0.000 A 
ATOM      8  C   UNL     1       7.124   4.717  17.025  0.00  0.00    +0.000 A 
ATOM      9  C   UNL     1       5.821   4.834  17.471  0.00  0.00    +0.000 A 
ATOM     10  C   UNL     1       5.303   5.246  18.791  0.00  0.00    +0.000 C 
ATOM     11  O   UNL     1       5.994   5.520  19.754  0.00  0.00    +0.000 OA
ENDBRANCH   1   2
BRANCH   1  15
ATOM     12  C   UNL     1       1.092   9.370  19.492  0.00  0.00    +0.000 A 
ATOM     13  C   UNL     1       1.015   8.669  20.696  0.00  0.00    +0.000 A 
ATOM     14  C   UNL     1       1.618   7.414  20.829  0.00  0.00    +0.000 A 
ATOM     15  C   UNL     1       2.345   6.837  19.775  0.00  0.00    +0.000 A 
ATOM     16  C   UNL     1       2.450   7.577  18.582  0.00  0.00    +0.000 A 
ATOM     17  C   UNL     1       1.809   8.809  18.432  0.00  0.00    +0.000 A 
BRANCH  12  19
ATOM     18  C   UNL     1       0.245  11.342  20.749  0.00  0.00    +0.000 C 
ATOM     19  C   UNL     1       0.483  10.741  19.373  0.00  0.00    +0.000 C 
ENDBRANCH  12  19
ENDBRANCH   1  15
BRANCH   1  20
ATOM     20  C   UNL     1       2.056   4.255  19.987  0.00  0.00    +0.000 C 
BRANCH  20  21
ATOM     21  C   UNL     1       2.496   3.261  21.032  0.00  0.00    +0.000 C 
ATOM     22  O   UNL     1       2.007   3.135  22.143  0.00  0.00    +0.000 OA
BRANCH  21  23
ATOM     23  O   UNL     1       3.529   2.491  20.611  0.00  0.00    +0.000 OA
ATOM     24  H   UNL     1       3.656   1.668  21.121  0.00  0.00    +0.000 HD
ENDBRANCH  21  23
ENDBRANCH  20  21
ENDBRANCH   1  20
TORSDOF 6
ENDMDL
