MODEL 1
REMARK VINA RESULT:      -8.6      0.000      0.000
REMARK  Name = 
REMARK  4 active torsions:
REMARK  status: ('A' for Active; 'I' for Inactive)
REMARK    1  A    between atoms: N_1  and  S_2
REMARK    2  A    between atoms: S_2  and  C_5
REMARK    3  A    between atoms: C_7  and  N_8
REMARK    4  A    between atoms: N_11  and  C_12
REMARK                            x       y       z     vdW  Elec       q    Type
REMARK                         _______ _______ _______ _____ _____    ______ ____
ROOT
ATOM      1  C   UNL     1       5.578   5.312  17.542  0.00  0.00    +0.000 A 
ATOM      2  C   UNL     1       4.864   5.957  18.559  0.00  0.00    +0.000 A 
ATOM      3  C   UNL     1       3.561   5.580  18.895  0.00  0.00    +0.000 A 
ATOM      4  C   UNL     1       2.944   4.592  18.114  0.00  0.00    +0.000 A 
ATOM      5 CL   UNL     1       1.332   4.066  18.452  0.00  0.00    +0.000 Cl
ATOM      6  C   UNL     1       3.637   3.969  17.066  0.00  0.00    +0.000 A 
ATOM      7  C   UNL     1       4.966   4.317  16.788  0.00  0.00    +0.000 A 
ATOM      8 CL   UNL     1       5.758   3.476  15.508  0.00  0.00    +0.000 Cl
ENDROOT
BRANCH   3   9
ATOM      9  N   UNL     1       2.888   6.149  20.004  0.00  0.00    +0.000 N 
ATOM     10  C   UNL     1       2.152   7.330  19.984  0.00  0.00    +0.000 C 
ATOM     11  O   UNL     1       1.982   8.015  18.985  0.00  0.00    +0.000 OA
ATOM     12  N   UNL     1       1.667   7.687  21.231  0.00  0.00    +0.000 N 
ATOM     13  H   UNL     1       3.053   5.716  20.909  0.00  0.00    +0.000 HD
ATOM     14  H   UNL     1       2.260   7.449  22.011  0.00  0.00    +0.000 HD
BRANCH  12  15
ATOM     15  C   UNL     1       0.875   8.853  21.382  0.00  0.00    +0.000 A 
ATOM     16  C   UNL     1       0.916   9.896  20.445  0.00  0.00    +0.000 A 
ATOM     17  C   UNL     1       0.181  11.064  20.653  0.00  0.00    +0.000 A 
ATOM     18  C   UNL     1      -0.592  11.202  21.802  0.00  0.00    +0.000 A 
ATOM     19  C   UNL     1      -0.651  10.159  22.728  0.00  0.00    +0.000 A 
ATOM     20  C   UNL     1       0.060   8.977  22.509  0.00  0.00    +0.000 A 
ENDBRANCH  12  15
ENDBRANCH   3   9
BRANCH   1  21
ATOM     21  S   UNL     1       7.295   5.671  17.345  0.00  0.00    +0.000 S 
ATOM     22  O   UNL     1       7.710   6.538  18.423  0.00  0.00    +0.000 OA
ATOM     23  O   UNL     1       7.546   5.946  15.953  0.00  0.00    +0.000 OA
BRANCH  21  24
ATOM     24  N   UNL     1       8.064   4.201  17.637  0.00  0.00    +0.000 NA
ATOM     25  H   UNL     1       7.917   3.556  16.862  0.00  0.00    +0.000 HD
ATOM     26  H   UNL     1       7.824   3.822  18.552  0.00  0.00    +0.000 HD
ENDBRANCH  21  24
ENDBRANCH   1  21
TORSDOF 4
ENDMDL
MODEL 2
REMARK VINA RESULT:      -8.5      0.236      1.013
REMARK  Name = 
REMARK  4 active torsions:
REMARK  status: ('A' for Active; 'I' for Inactive)
REMARK    1  A    between atoms: N_1  and  S_2
REMARK    2  A    between atoms: S_2  and  C_5
REMARK    3  A    between atoms: C_7  and  N_8
REMARK    4  A    between atoms: N_11  and  C_12
REMARK                            x       y       z     vdW  Elec       q    Type
REMARK                         _______ _______ _______ _____ _____    ______ ____
ROOT
ATOM      1  C   UNL     1       5.597   5.309  17.566  0.00  0.00    +0.000 A 
ATOM      2  C   UNL     1       4.859   5.931  18.580  0.00  0.00    +0.000 A 
ATOM      3  C   UNL     1       3.549   5.547  18.877  0.00  0.00    +0.000 A 
ATOM      4  C   UNL     1       2.950   4.577  18.060  0.00  0.00    +0.000 A 
ATOM      5 CL   UNL     1       1.330   4.045  18.348  0.00  0.00    +0.000 Cl
ATOM      6  C   UNL     1       3.668   3.977  17.014  0.00  0.00    +0.000 A 
ATOM      7  C   UNL     1       5.003   4.331  16.776  0.00  0.00    +0.000 A 
ATOM      8 CL   UNL     1       5.824   3.518  15.496  0.00  0.00    +0.000 Cl
ENDROOT
BRANCH   3   9
ATOM      9  N   UNL     1       2.849   6.092  19.982  0.00  0.00    +0.000 N 
ATOM     10  C   UNL     1       2.148   7.293  19.983  0.00  0.00    +0.000 C 
ATOM     11  O   UNL     1       2.036   8.022  19.007  0.00  0.00    +0.000 OA
ATOM     12  N   UNL     1       1.626   7.614  21.225  0.00  0.00    +0.000 N 
ATOM     13  H   UNL     1       2.968   5.618  20.874  0.00  0.00    +0.000 HD
ATOM     14  H   UNL     1       2.182   7.329  22.016  0.00  0.00    +0.000 HD
BRANCH  12  15
ATOM     15  C   UNL     1       0.862   8.797  21.393  0.00  0.00    +0.000 A 
ATOM     16  C   UNL     1       0.409   9.207  22.655  0.00  0.00    +0.000 A 
ATOM     17  C   UNL     1      -0.402  10.335  22.784  0.00  0.00    +0.000 A 
ATOM     18  C   UNL     1      -0.772  11.057  21.654  0.00  0.00    +0.000 A 
ATOM     19  C   UNL     1      -0.309  10.664  20.397  0.00  0.00    +0.000 A 
ATOM     20  C   UNL     1       0.527   9.552  20.267  0.00  0.00    +0.000 A 
ENDBRANCH  12  15
ENDBRANCH   3   9
BRANCH   1  21
ATOM     21  S   UNL     1       7.318   5.671  17.418  0.00  0.00    +0.000 S 
ATOM     22  O   UNL     1       7.716   6.479  18.546  0.00  0.00    +0.000 OA
ATOM     23  O   UNL     1       7.595   6.016  16.046  0.00  0.00    +0.000 OA
BRANCH  21  24
ATOM     24  N   UNL     1       8.078   4.185  17.647  0.00  0.00    +0.000 NA
ATOM     25  H   UNL     1       8.132   3.956  18.639  0.00  0.00    +0.000 HD
ATOM     26  H   UNL     1       8.968   4.133  17.154  0.00  0.00    +0.000 HD
ENDBRANCH  21  24
ENDBRANCH   1  21
TORSDOF 4
ENDMDL
MODEL 3
REMARK VINA RESULT:      -8.1      2.038      2.351
REMARK  Name = 
REMARK  4 active torsions:
REMARK  status: ('A' for Active; 'I' for Inactive)
REMARK    1  A    between atoms: N_1  and  S_2
REMARK    2  A    between atoms: S_2  and  C_5
REMARK    3  A    between atoms: C_7  and  N_8
REMARK    4  A    between atoms: N_11  and  C_12
REMARK                            x       y       z     vdW  Elec       q    Type
REMARK                         _______ _______ _______ _____ _____    ______ ____
ROOT
ATOM      1  C   UNL     1       5.485   5.755  17.141  0.00  0.00    +0.000 A 
ATOM      2  C   UNL     1       4.623   6.672  17.753  0.00  0.00    +0.000 A 
ATOM      3  C   UNL     1       3.307   6.337  18.082  0.00  0.00    +0.000 A 
ATOM      4  C   UNL     1       2.836   5.074  17.693  0.00  0.00    +0.000 A 
ATOM      5 CL   UNL     1       1.220   4.574  18.052  0.00  0.00    +0.000 Cl
ATOM      6  C   UNL     1       3.682   4.163  17.042  0.00  0.00    +0.000 A 
ATOM      7  C   UNL     1       5.017   4.497  16.780  0.00  0.00    +0.000 A 
ATOM      8 CL   UNL     1       5.999   3.305  16.011  0.00  0.00    +0.000 Cl
ENDROOT
BRANCH   3   9
ATOM      9  N   UNL     1       2.476   7.223  18.811  0.00  0.00    +0.000 N 
ATOM     10  C   UNL     1       1.969   8.429  18.338  0.00  0.00    +0.000 C 
ATOM     11  O   UNL     1       2.167   8.862  17.212  0.00  0.00    +0.000 OA
ATOM     12  N   UNL     1       1.249   9.126  19.294  0.00  0.00    +0.000 N 
ATOM     13  H   UNL     1       2.337   7.011  19.796  0.00  0.00    +0.000 HD
ATOM     14  H   UNL     1       1.581   9.030  20.241  0.00  0.00    +0.000 HD
BRANCH  12  15
ATOM     15  C   UNL     1       0.643  10.365  18.967  0.00  0.00    +0.000 A 
ATOM     16  C   UNL     1       1.338  11.577  19.082  0.00  0.00    +0.000 A 
ATOM     17  C   UNL     1       0.697  12.789  18.823  0.00  0.00    +0.000 A 
ATOM     18  C   UNL     1      -0.645  12.799  18.456  0.00  0.00    +0.000 A 
ATOM     19  C   UNL     1      -1.338  11.595  18.323  0.00  0.00    +0.000 A 
ATOM     20  C   UNL     1      -0.691  10.378  18.554  0.00  0.00    +0.000 A 
ENDBRANCH  12  15
ENDBRANCH   3   9
BRANCH   1  21
ATOM     21  S   UNL     1       7.195   6.164  16.987  0.00  0.00    +0.000 S 
ATOM     22  O   UNL     1       7.586   5.996  15.607  0.00  0.00    +0.000 OA
ATOM     23  O   UNL     1       7.905   5.581  18.098  0.00  0.00    +0.000 OA
BRANCH  21  24
ATOM     24  N   UNL     1       7.254   7.824  17.265  0.00  0.00    +0.000 NA
ATOM     25  H   UNL     1       7.014   8.341  16.419  0.00  0.00    +0.000 HD
ATOM     26  H   UNL     1       8.133   8.107  17.695  0.00  0.00    +0.000 HD
ENDBRANCH  21  24
ENDBRANCH   1  21
TORSDOF 4
ENDMDL
MODEL 4
REMARK VINA RESULT:      -8.0      1.962      2.258
REMARK  Name = 
REMARK  4 active torsions:
REMARK  status: ('A' for Active; 'I' for Inactive)
REMARK    1  A    between atoms: N_1  and  S_2
REMARK    2  A    between atoms: S_2  and  C_5
REMARK    3  A    between atoms: C_7  and  N_8
REMARK    4  A    between atoms: N_11  and  C_12
REMARK                            x       y       z     vdW  Elec       q    Type
REMARK                         _______ _______ _______ _____ _____    ______ ____
ROOT
ATOM      1  C   UNL     1       5.441   5.616  17.043  0.00  0.00    +0.000 A 
ATOM      2  C   UNL     1       4.636   6.550  17.706  0.00  0.00    +0.000 A 
ATOM      3  C   UNL     1       3.326   6.251  18.089  0.00  0.00    +0.000 A 
ATOM      4  C   UNL     1       2.799   5.010  17.704  0.00  0.00    +0.000 A 
ATOM      5 CL   UNL     1       1.185   4.556  18.129  0.00  0.00    +0.000 Cl
ATOM      6  C   UNL     1       3.585   4.082  17.004  0.00  0.00    +0.000 A 
ATOM      7  C   UNL     1       4.917   4.378  16.686  0.00  0.00    +0.000 A 
ATOM      8 CL   UNL     1       5.825   3.168  15.859  0.00  0.00    +0.000 Cl
ENDROOT
BRANCH   3   9
ATOM      9  N   UNL     1       2.558   7.152  18.867  0.00  0.00    +0.000 N 
ATOM     10  C   UNL     1       1.997   8.340  18.409  0.00  0.00    +0.000 C 
ATOM     11  O   UNL     1       2.086   8.741  17.257  0.00  0.00    +0.000 OA
ATOM     12  N   UNL     1       1.361   9.059  19.407  0.00  0.00    +0.000 N 
ATOM     13  H   UNL     1       2.512   6.968  19.865  0.00  0.00    +0.000 HD
ATOM     14  H   UNL     1       1.780   8.994  20.322  0.00  0.00    +0.000 HD
BRANCH  12  15
ATOM     15  C   UNL     1       0.715  10.284  19.103  0.00  0.00    +0.000 A 
ATOM     16  C   UNL     1      -0.638  10.331  18.737  0.00  0.00    +0.000 A 
ATOM     17  C   UNL     1      -1.231  11.541  18.373  0.00  0.00    +0.000 A 
ATOM     18  C   UNL     1      -0.476  12.709  18.364  0.00  0.00    +0.000 A 
ATOM     19  C   UNL     1       0.866  12.671  18.746  0.00  0.00    +0.000 A 
ATOM     20  C   UNL     1       1.456  11.467  19.138  0.00  0.00    +0.000 A 
ENDBRANCH  12  15
ENDBRANCH   3   9
BRANCH   1  21
ATOM     21  S   UNL     1       7.155   5.973  16.818  0.00  0.00    +0.000 S 
ATOM     22  O   UNL     1       7.929   4.974  17.516  0.00  0.00    +0.000 OA
ATOM     23  O   UNL     1       7.348   7.393  16.976  0.00  0.00    +0.000 OA
BRANCH  21  24
ATOM     24  N   UNL     1       7.430   5.684  15.181  0.00  0.00    +0.000 NA
ATOM     25  H   UNL     1       7.718   4.718  15.029  0.00  0.00    +0.000 HD
ATOM     26  H   UNL     1       8.053   6.378  14.772  0.00  0.00    +0.000 HD
ENDBRANCH  21  24
ENDBRANCH   1  21
TORSDOF 4
ENDMDL
MODEL 5
REMARK VINA RESULT:      -7.9      3.730      4.448
REMARK  Name = 
REMARK  4 active torsions:
REMARK  status: ('A' for Active; 'I' for Inactive)
REMARK    1  A    between atoms: N_1  and  S_2
REMARK    2  A    between atoms: S_2  and  C_5
REMARK    3  A    between atoms: C_7  and  N_8
REMARK    4  A    between atoms: N_11  and  C_12
REMARK                            x       y       z     vdW  Elec       q    Type
REMARK                         _______ _______ _______ _____ _____    ______ ____
ROOT
ATOM      1  C   UNL     1       3.008   3.880  19.774  0.00  0.00    +0.000 A 
ATOM      2  C   UNL     1       2.589   5.122  19.283  0.00  0.00    +0.000 A 
ATOM      3  C   UNL     1       3.449   5.955  18.561  0.00  0.00    +0.000 A 
ATOM      4  C   UNL     1       4.785   5.552  18.420  0.00  0.00    +0.000 A 
ATOM      5 CL   UNL     1       5.922   6.520  17.549  0.00  0.00    +0.000 Cl
ATOM      6  C   UNL     1       5.224   4.327  18.945  0.00  0.00    +0.000 A 
ATOM      7  C   UNL     1       4.329   3.478  19.610  0.00  0.00    +0.000 A 
ATOM      8 CL   UNL     1       4.941   1.974  20.190  0.00  0.00    +0.000 Cl
ENDROOT
BRANCH   3   9
ATOM      9  N   UNL     1       2.989   7.153  17.960  0.00  0.00    +0.000 N 
ATOM     10  C   UNL     1       2.229   8.133  18.590  0.00  0.00    +0.000 C 
ATOM     11  O   UNL     1       1.881   8.083  19.761  0.00  0.00    +0.000 OA
ATOM     12  N   UNL     1       1.857   9.160  17.739  0.00  0.00    +0.000 N 
ATOM     13  H   UNL     1       3.132   7.243  16.958  0.00  0.00    +0.000 HD
ATOM     14  H   UNL     1       1.679   8.889  16.785  0.00  0.00    +0.000 HD
BRANCH  12  15
ATOM     15  C   UNL     1       1.099  10.253  18.229  0.00  0.00    +0.000 A 
ATOM     16  C   UNL     1      -0.296  10.186  18.347  0.00  0.00    +0.000 A 
ATOM     17  C   UNL     1      -1.026  11.300  18.764  0.00  0.00    +0.000 A 
ATOM     18  C   UNL     1      -0.368  12.490  19.058  0.00  0.00    +0.000 A 
ATOM     19  C   UNL     1       1.023  12.558  18.959  0.00  0.00    +0.000 A 
ATOM     20  C   UNL     1       1.758  11.436  18.570  0.00  0.00    +0.000 A 
ENDBRANCH  12  15
ENDBRANCH   3   9
BRANCH   1  21
ATOM     21  S   UNL     1       1.804   2.781  20.452  0.00  0.00    +0.000 S 
ATOM     22  O   UNL     1       2.053   2.644  21.867  0.00  0.00    +0.000 OA
ATOM     23  O   UNL     1       1.648   1.666  19.553  0.00  0.00    +0.000 OA
BRANCH  21  24
ATOM     24  N   UNL     1       0.353   3.630  20.337  0.00  0.00    +0.000 NA
ATOM     25  H   UNL     1       0.166   3.896  19.371  0.00  0.00    +0.000 HD
ATOM     26  H   UNL     1       0.311   4.400  21.002  0.00  0.00    +0.000 HD
ENDBRANCH  21  24
ENDBRANCH   1  21
TORSDOF 4
ENDMDL
MODEL 6
REMARK VINA RESULT:      -7.9      3.708      4.377
REMARK  Name = 
REMARK  4 active torsions:
REMARK  status: ('A' for Active; 'I' for Inactive)
REMARK    1  A    between atoms: N_1  and  S_2
REMARK    2  A    between atoms: S_2  and  C_5
REMARK    3  A    between atoms: C_7  and  N_8
REMARK    4  A    between atoms: N_11  and  C_12
REMARK                            x       y       z     vdW  Elec       q    Type
REMARK                         _______ _______ _______ _____ _____    ______ ____
ROOT
ATOM      1  C   UNL     1       3.005   3.872  19.765  0.00  0.00    +0.000 A 
ATOM      2  C   UNL     1       2.584   5.112  19.272  0.00  0.00    +0.000 A 
ATOM      3  C   UNL     1       3.444   5.950  18.557  0.00  0.00    +0.000 A 
ATOM      4  C   UNL     1       4.783   5.554  18.426  0.00  0.00    +0.000 A 
ATOM      5 CL   UNL     1       5.922   6.528  17.563  0.00  0.00    +0.000 Cl
ATOM      6  C   UNL     1       5.225   4.331  18.953  0.00  0.00    +0.000 A 
ATOM      7  C   UNL     1       4.329   3.477  19.610  0.00  0.00    +0.000 A 
ATOM      8 CL   UNL     1       4.944   1.975  20.194  0.00  0.00    +0.000 Cl
ENDROOT
BRANCH   3   9
ATOM      9  N   UNL     1       2.983   7.146  17.953  0.00  0.00    +0.000 N 
ATOM     10  C   UNL     1       2.224   8.128  18.582  0.00  0.00    +0.000 C 
ATOM     11  O   UNL     1       1.878   8.081  19.754  0.00  0.00    +0.000 OA
ATOM     12  N   UNL     1       1.850   9.152  17.729  0.00  0.00    +0.000 N 
ATOM     13  H   UNL     1       3.124   7.234  16.950  0.00  0.00    +0.000 HD
ATOM     14  H   UNL     1       1.670   8.878  16.776  0.00  0.00    +0.000 HD
BRANCH  12  15
ATOM     15  C   UNL     1       1.092  10.247  18.218  0.00  0.00    +0.000 A 
ATOM     16  C   UNL     1       1.706  11.431  18.649  0.00  0.00    +0.000 A 
ATOM     17  C   UNL     1       0.943  12.466  19.193  0.00  0.00    +0.000 A 
ATOM     18  C   UNL     1      -0.435  12.321  19.316  0.00  0.00    +0.000 A 
ATOM     19  C   UNL     1      -1.053  11.151  18.871  0.00  0.00    +0.000 A 
ATOM     20  C   UNL     1      -0.296  10.125  18.300  0.00  0.00    +0.000 A 
ENDBRANCH  12  15
ENDBRANCH   3   9
BRANCH   1  21
ATOM     21  S   UNL     1       1.802   2.767  20.434  0.00  0.00    +0.000 S 
ATOM     22  O   UNL     1       2.051   2.617  21.848  0.00  0.00    +0.000 OA
ATOM     23  O   UNL     1       1.647   1.659  19.525  0.00  0.00    +0.000 OA
BRANCH  21  24
ATOM     24  N   UNL     1       0.351   3.615  20.326  0.00  0.00    +0.000 NA
ATOM     25  H   UNL     1       0.165   4.124  21.190  0.00  0.00    +0.000 HD
ATOM     26  H   UNL     1      -0.415   3.019  20.016  0.00  0.00    +0.000 HD
ENDBRANCH  21  24
ENDBRANCH   1  21
TORSDOF 4
ENDMDL
MODEL 7
REMARK VINA RESULT:      -7.8      1.863      2.030
REMARK  Name = 
REMARK  4 active torsions:
REMARK  status: ('A' for Active; 'I' for Inactive)
REMARK    1  A    between atoms: N_1  and  S_2
REMARK    2  A    between atoms: S_2  and  C_5
REMARK    3  A    between atoms: C_7  and  N_8
REMARK    4  A    between atoms: N_11  and  C_12
REMARK                            x       y       z     vdW  Elec       q    Type
REMARK                         _______ _______ _______ _____ _____    ______ ____
ROOT
ATOM      1  C   UNL     1       5.425   5.550  16.870  0.00  0.00    +0.000 A 
ATOM      2  C   UNL     1       4.656   6.510  17.539  0.00  0.00    +0.000 A 
ATOM      3  C   UNL     1       3.379   6.220  18.025  0.00  0.00    +0.000 A 
ATOM      4  C   UNL     1       2.840   4.957  17.739  0.00  0.00    +0.000 A 
ATOM      5 CL   UNL     1       1.265   4.512  18.295  0.00  0.00    +0.000 Cl
ATOM      6  C   UNL     1       3.588   4.002  17.033  0.00  0.00    +0.000 A 
ATOM      7  C   UNL     1       4.892   4.292  16.611  0.00  0.00    +0.000 A 
ATOM      8 CL   UNL     1       5.755   3.049  15.783  0.00  0.00    +0.000 Cl
ENDROOT
BRANCH   3   9
ATOM      9  N   UNL     1       2.655   7.153  18.809  0.00  0.00    +0.000 N 
ATOM     10  C   UNL     1       2.068   8.322  18.336  0.00  0.00    +0.000 C 
ATOM     11  O   UNL     1       2.092   8.677  17.166  0.00  0.00    +0.000 OA
ATOM     12  N   UNL     1       1.489   9.081  19.339  0.00  0.00    +0.000 N 
ATOM     13  H   UNL     1       2.666   7.008  19.815  0.00  0.00    +0.000 HD
ATOM     14  H   UNL     1       1.959   9.052  20.231  0.00  0.00    +0.000 HD
BRANCH  12  15
ATOM     15  C   UNL     1       0.826  10.294  19.024  0.00  0.00    +0.000 A 
ATOM     16  C   UNL     1       1.519  11.510  18.937  0.00  0.00    +0.000 A 
ATOM     17  C   UNL     1       0.832  12.701  18.696  0.00  0.00    +0.000 A 
ATOM     18  C   UNL     1      -0.552  12.686  18.548  0.00  0.00    +0.000 A 
ATOM     19  C   UNL     1      -1.244  11.475  18.615  0.00  0.00    +0.000 A 
ATOM     20  C   UNL     1      -0.556  10.278  18.828  0.00  0.00    +0.000 A 
ENDBRANCH  12  15
ENDBRANCH   3   9
BRANCH   1  21
ATOM     21  S   UNL     1       7.115   5.909  16.510  0.00  0.00    +0.000 S 
ATOM     22  O   UNL     1       7.471   7.145  17.165  0.00  0.00    +0.000 OA
ATOM     23  O   UNL     1       7.349   5.646  15.112  0.00  0.00    +0.000 OA
BRANCH  21  24
ATOM     24  N   UNL     1       7.978   4.712  17.322  0.00  0.00    +0.000 NA
ATOM     25  H   UNL     1       8.521   4.151  16.666  0.00  0.00    +0.000 HD
ATOM     26  H   UNL     1       7.382   4.171  17.946  0.00  0.00    +0.000 HD
ENDBRANCH  21  24
ENDBRANCH   1  21
TORSDOF 4
ENDMDL
MODEL 8
REMARK VINA RESULT:      -7.7      1.268      1.496
REMARK  Name = 
REMARK  4 active torsions:
REMARK  status: ('A' for Active; 'I' for Inactive)
REMARK    1  A    between atoms: N_1  and  S_2
REMARK    2  A    between atoms: S_2  and  C_5
REMARK    3  A    between atoms: C_7  and  N_8
REMARK    4  A    between atoms: N_11  and  C_12
REMARK                            x       y       z     vdW  Elec       q    Type
REMARK                         _______ _______ _______ _____ _____    ______ ____
ROOT
ATOM      1  C   UNL     1       5.576   5.346  17.344  0.00  0.00    +0.000 A 
ATOM      2  C   UNL     1       4.795   6.129  18.202  0.00  0.00    +0.000 A 
ATOM      3  C   UNL     1       3.451   5.832  18.447  0.00  0.00    +0.000 A 
ATOM      4  C   UNL     1       2.873   4.775  17.730  0.00  0.00    +0.000 A 
ATOM      5 CL   UNL     1       1.216   4.340  17.963  0.00  0.00    +0.000 Cl
ATOM      6  C   UNL     1       3.638   4.011  16.836  0.00  0.00    +0.000 A 
ATOM      7  C   UNL     1       5.000   4.285  16.654  0.00  0.00    +0.000 A 
ATOM      8 CL   UNL     1       5.877   3.274  15.567  0.00  0.00    +0.000 Cl
ENDROOT
BRANCH   3   9
ATOM      9  N   UNL     1       2.698   6.550  19.409  0.00  0.00    +0.000 N 
ATOM     10  C   UNL     1       2.078   7.777  19.198  0.00  0.00    +0.000 C 
ATOM     11  O   UNL     1       2.095   8.380  18.134  0.00  0.00    +0.000 OA
ATOM     12  N   UNL     1       1.474   8.282  20.338  0.00  0.00    +0.000 N 
ATOM     13  H   UNL     1       2.710   6.189  20.359  0.00  0.00    +0.000 HD
ATOM     14  H   UNL     1       1.942   8.071  21.205  0.00  0.00    +0.000 HD
BRANCH  12  15
ATOM     15  C   UNL     1       0.776   9.515  20.289  0.00  0.00    +0.000 A 
ATOM     16  C   UNL     1      -0.380   9.676  19.513  0.00  0.00    +0.000 A 
ATOM     17  C   UNL     1      -1.008  10.919  19.426  0.00  0.00    +0.000 A 
ATOM     18  C   UNL     1      -0.479  12.012  20.106  0.00  0.00    +0.000 A 
ATOM     19  C   UNL     1       0.662  11.854  20.895  0.00  0.00    +0.000 A 
ATOM     20  C   UNL     1       1.275  10.604  21.007  0.00  0.00    +0.000 A 
ENDBRANCH  12  15
ENDBRANCH   3   9
BRANCH   1  21
ATOM     21  S   UNL     1       7.317   5.630  17.280  0.00  0.00    +0.000 S 
ATOM     22  O   UNL     1       7.640   6.224  16.004  0.00  0.00    +0.000 OA
ATOM     23  O   UNL     1       7.987   4.473  17.818  0.00  0.00    +0.000 OA
BRANCH  21  24
ATOM     24  N   UNL     1       7.584   6.845  18.415  0.00  0.00    +0.000 NA
ATOM     25  H   UNL     1       7.797   6.445  19.329  0.00  0.00    +0.000 HD
ATOM     26  H   UNL     1       6.832   7.532  18.421  0.00  0.00    +0.000 HD
ENDBRANCH  21  24
ENDBRANCH   1  21
TORSDOF 4
ENDMDL
MODEL 9
REMARK VINA RESULT:      -7.6      3.444      4.064
REMARK  Name = 
REMARK  4 active torsions:
REMARK  status: ('A' for Active; 'I' for Inactive)
REMARK    1  A    between atoms: N_1  and  S_2
REMARK    2  A    between atoms: S_2  and  C_5
REMARK    3  A    between atoms: C_7  and  N_8
REMARK    4  A    between atoms: N_11  and  C_12
REMARK                            x       y       z     vdW  Elec       q    Type
REMARK                         _______ _______ _______ _____ _____    ______ ____
ROOT
ATOM      1  C   UNL     1       2.278   4.571  19.658  0.00  0.00    +0.000 A 
ATOM      2  C   UNL     1       2.187   5.672  20.518  0.00  0.00    +0.000 A 
ATOM      3  C   UNL     1       2.197   6.983  20.036  0.00  0.00    +0.000 A 
ATOM      4  C   UNL     1       2.398   7.174  18.662  0.00  0.00    +0.000 A 
ATOM      5 CL   UNL     1       2.430   8.761  17.977  0.00  0.00    +0.000 Cl
ATOM      6  C   UNL     1       2.532   6.077  17.797  0.00  0.00    +0.000 A 
ATOM      7  C   UNL     1       2.454   4.769  18.294  0.00  0.00    +0.000 A 
ATOM      8 CL   UNL     1       2.590   3.478  17.158  0.00  0.00    +0.000 Cl
ENDROOT
BRANCH   3   9
ATOM      9  N   UNL     1       1.980   8.090  20.895  0.00  0.00    +0.000 N 
ATOM     10  C   UNL     1       0.833   8.876  20.927  0.00  0.00    +0.000 C 
ATOM     11  O   UNL     1      -0.146   8.688  20.219  0.00  0.00    +0.000 OA
ATOM     12  N   UNL     1       0.927   9.936  21.812  0.00  0.00    +0.000 N 
ATOM     13  H   UNL     1       2.774   8.398  21.450  0.00  0.00    +0.000 HD
ATOM     14  H   UNL     1       1.845  10.341  21.907  0.00  0.00    +0.000 HD
BRANCH  12  15
ATOM     15  C   UNL     1      -0.166  10.822  21.984  0.00  0.00    +0.000 A 
ATOM     16  C   UNL     1      -0.386  11.897  21.111  0.00  0.00    +0.000 A 
ATOM     17  C   UNL     1      -1.427  12.797  21.343  0.00  0.00    +0.000 A 
ATOM     18  C   UNL     1      -2.251  12.633  22.452  0.00  0.00    +0.000 A 
ATOM     19  C   UNL     1      -2.049  11.554  23.315  0.00  0.00    +0.000 A 
ATOM     20  C   UNL     1      -1.025  10.636  23.069  0.00  0.00    +0.000 A 
ENDBRANCH  12  15
ENDBRANCH   3   9
BRANCH   1  21
ATOM     21  S   UNL     1       2.007   2.954  20.311  0.00  0.00    +0.000 S 
ATOM     22  O   UNL     1       3.205   2.172  20.115  0.00  0.00    +0.000 OA
ATOM     23  O   UNL     1       0.691   2.518  19.917  0.00  0.00    +0.000 OA
BRANCH  21  24
ATOM     24  N   UNL     1       1.899   3.188  21.976  0.00  0.00    +0.000 NA
ATOM     25  H   UNL     1       2.292   4.091  22.239  0.00  0.00    +0.000 HD
ATOM     26  H   UNL     1       2.275   2.397  22.496  0.00  0.00    +0.000 HD
ENDBRANCH  21  24
ENDBRANCH   1  21
TORSDOF 4
ENDMDL
