MODEL 1
REMARK VINA RESULT:      -8.9      0.000      0.000
REMARK  Name = 
REMARK  7 active torsions:
REMARK  status: ('A' for Active; 'I' for Inactive)
REMARK    1  A    between atoms: C_1  and  O_2
REMARK    2  A    between atoms: O_2  and  C_3
REMARK    3  A    between atoms: C_6  and  C_7
REMARK    4  A    between atoms: C_14  and  C_15
REMARK    5  A    between atoms: C_19  and  C_20
REMARK    6  A    between atoms: C_27  and  O_28
REMARK    7  A    between atoms: O_28  and  C_29
REMARK                            x       y       z     vdW  Elec       q    Type
REMARK                         _______ _______ _______ _____ _____    ______ ____
ROOT
ATOM      1  C   UNL     1       2.560   4.772  20.127  0.00  0.00    +0.000 A 
ATOM      2  N   UNL     1       1.561   4.510  21.051  0.00  0.00    +0.000 NA
ATOM      3  C   UNL     1       1.482   3.304  21.711  0.00  0.00    +0.000 A 
ATOM      4  C   UNL     1       2.327   2.205  21.581  0.00  0.00    +0.000 A 
ATOM      5  C   UNL     1       3.372   2.457  20.688  0.00  0.00    +0.000 A 
ATOM      6  N   UNL     1       4.371   1.632  20.345  0.00  0.00    +0.000 NA
ATOM      7  N   UNL     1       5.128   2.352  19.512  0.00  0.00    +0.000 N 
ATOM      8  C   UNL     1       4.700   3.642  19.278  0.00  0.00    +0.000 A 
ATOM      9  C   UNL     1       3.509   3.727  19.986  0.00  0.00    +0.000 A 
ATOM     10  H   UNL     1       5.964   1.914  19.142  0.00  0.00    +0.000 HD
ENDROOT
BRANCH   1  14
ATOM     11  C   UNL     1       2.176   8.523  18.067  0.00  0.00    +0.000 A 
ATOM     12  C   UNL     1       2.828   7.435  17.470  0.00  0.00    +0.000 A 
ATOM     13  C   UNL     1       2.966   6.222  18.150  0.00  0.00    +0.000 A 
ATOM     14  C   UNL     1       2.514   6.073  19.464  0.00  0.00    +0.000 A 
ATOM     15  C   UNL     1       2.035   7.224  20.105  0.00  0.00    +0.000 A 
ATOM     16  C   UNL     1       1.804   8.427  19.415  0.00  0.00    +0.000 A 
BRANCH  11  18
ATOM     17  C   UNL     1       2.432  10.873  17.934  0.00  0.00    +0.000 C 
ATOM     18  O   UNL     1       1.916   9.667  17.361  0.00  0.00    +0.000 OA
ENDBRANCH  11  18
BRANCH  16  19
ATOM     19  O   UNL     1       1.154   9.337  20.204  0.00  0.00    +0.000 OA
ATOM     20  C   UNL     1       1.131   9.155  21.609  0.00  0.00    +0.000 C 
ENDBRANCH  16  19
ENDBRANCH   1  14
BRANCH   8  21
ATOM     21  C   UNL     1       5.528   4.537  18.461  0.00  0.00    +0.000 A 
ATOM     22  C   UNL     1       6.260   5.570  19.069  0.00  0.00    +0.000 A 
ATOM     23  C   UNL     1       7.089   6.403  18.314  0.00  0.00    +0.000 A 
ATOM     24  C   UNL     1       7.212   6.202  16.941  0.00  0.00    +0.000 A 
ATOM     25  C   UNL     1       6.474   5.197  16.301  0.00  0.00    +0.000 A 
ATOM     26  C   UNL     1       5.610   4.392  17.070  0.00  0.00    +0.000 A 
BRANCH  25  27
ATOM     27  C   UNL     1       6.625   4.953  14.819  0.00  0.00    +0.000 C 
ATOM     28  F   UNL     1       7.803   5.415  14.311  0.00  0.00    +0.000 F 
ATOM     29  F   UNL     1       6.574   3.647  14.475  0.00  0.00    +0.000 F 
ATOM     30  F   UNL     1       5.646   5.555  14.088  0.00  0.00    +0.000 F 
ENDBRANCH  25  27
ENDBRANCH   8  21
TORSDOF 5
ENDMDL
MODEL 2
REMARK VINA RESULT:      -8.6      4.021      6.136
REMARK  Name = 
REMARK  7 active torsions:
REMARK  status: ('A' for Active; 'I' for Inactive)
REMARK    1  A    between atoms: C_1  and  O_2
REMARK    2  A    between atoms: O_2  and  C_3
REMARK    3  A    between atoms: C_6  and  C_7
REMARK    4  A    between atoms: C_14  and  C_15
REMARK    5  A    between atoms: C_19  and  C_20
REMARK    6  A    between atoms: C_27  and  O_28
REMARK    7  A    between atoms: O_28  and  C_29
REMARK                            x       y       z     vdW  Elec       q    Type
REMARK                         _______ _______ _______ _____ _____    ______ ____
ROOT
ATOM      1  C   UNL     1       3.869   3.585  18.469  0.00  0.00    +0.000 A 
ATOM      2  N   UNL     1       4.244   2.298  18.117  0.00  0.00    +0.000 NA
ATOM      3  C   UNL     1       3.509   1.198  18.500  0.00  0.00    +0.000 A 
ATOM      4  C   UNL     1       2.340   1.176  19.256  0.00  0.00    +0.000 A 
ATOM      5  C   UNL     1       1.913   2.465  19.588  0.00  0.00    +0.000 A 
ATOM      6  N   UNL     1       0.822   2.810  20.285  0.00  0.00    +0.000 NA
ATOM      7  N   UNL     1       0.833   4.146  20.283  0.00  0.00    +0.000 N 
ATOM      8  C   UNL     1       1.876   4.735  19.601  0.00  0.00    +0.000 A 
ATOM      9  C   UNL     1       2.646   3.658  19.183  0.00  0.00    +0.000 A 
ATOM     10  H   UNL     1       0.069   4.621  20.750  0.00  0.00    +0.000 HD
ENDROOT
BRANCH   1  14
ATOM     11  C   UNL     1       6.683   6.579  17.213  0.00  0.00    +0.000 A 
ATOM     12  C   UNL     1       6.377   6.399  18.569  0.00  0.00    +0.000 A 
ATOM     13  C   UNL     1       5.450   5.436  18.972  0.00  0.00    +0.000 A 
ATOM     14  C   UNL     1       4.753   4.665  18.037  0.00  0.00    +0.000 A 
ATOM     15  C   UNL     1       4.935   4.989  16.685  0.00  0.00    +0.000 A 
ATOM     16  C   UNL     1       5.927   5.888  16.256  0.00  0.00    +0.000 A 
BRANCH  11  18
ATOM     17  C   UNL     1       7.982   8.492  17.723  0.00  0.00    +0.000 C 
ATOM     18  O   UNL     1       7.687   7.422  16.819  0.00  0.00    +0.000 OA
ENDBRANCH  11  18
BRANCH  16  19
ATOM     19  O   UNL     1       6.042   5.889  14.891  0.00  0.00    +0.000 OA
ATOM     20  C   UNL     1       6.592   4.760  14.235  0.00  0.00    +0.000 C 
ENDBRANCH  16  19
ENDBRANCH   1  14
BRANCH   8  21
ATOM     21  C   UNL     1       1.908   6.195  19.457  0.00  0.00    +0.000 A 
ATOM     22  C   UNL     1       2.247   6.774  18.223  0.00  0.00    +0.000 A 
ATOM     23  C   UNL     1       2.239   8.160  18.054  0.00  0.00    +0.000 A 
ATOM     24  C   UNL     1       1.871   8.988  19.112  0.00  0.00    +0.000 A 
ATOM     25  C   UNL     1       1.554   8.442  20.363  0.00  0.00    +0.000 A 
ATOM     26  C   UNL     1       1.608   7.043  20.530  0.00  0.00    +0.000 A 
BRANCH  25  27
ATOM     27  C   UNL     1       1.124   9.329  21.507  0.00  0.00    +0.000 C 
ATOM     28  F   UNL     1       1.844   9.128  22.648  0.00  0.00    +0.000 F 
ATOM     29  F   UNL     1       1.234  10.650  21.242  0.00  0.00    +0.000 F 
ATOM     30  F   UNL     1      -0.180   9.140  21.853  0.00  0.00    +0.000 F 
ENDBRANCH  25  27
ENDBRANCH   8  21
TORSDOF 5
ENDMDL
MODEL 3
REMARK VINA RESULT:      -8.5      1.692      2.222
REMARK  Name = 
REMARK  7 active torsions:
REMARK  status: ('A' for Active; 'I' for Inactive)
REMARK    1  A    between atoms: C_1  and  O_2
REMARK    2  A    between atoms: O_2  and  C_3
REMARK    3  A    between atoms: C_6  and  C_7
REMARK    4  A    between atoms: C_14  and  C_15
REMARK    5  A    between atoms: C_19  and  C_20
REMARK    6  A    between atoms: C_27  and  O_28
REMARK    7  A    between atoms: O_28  and  C_29
REMARK                            x       y       z     vdW  Elec       q    Type
REMARK                         _______ _______ _______ _____ _____    ______ ____
ROOT
ATOM      1  C   UNL     1       2.637   4.987  20.131  0.00  0.00    +0.000 A 
ATOM      2  N   UNL     1       1.889   4.668  21.254  0.00  0.00    +0.000 NA
ATOM      3  C   UNL     1       1.976   3.434  21.856  0.00  0.00    +0.000 A 
ATOM      4  C   UNL     1       2.770   2.355  21.476  0.00  0.00    +0.000 A 
ATOM      5  C   UNL     1       3.569   2.662  20.372  0.00  0.00    +0.000 A 
ATOM      6  N   UNL     1       4.461   1.869  19.762  0.00  0.00    +0.000 NA
ATOM      7  N   UNL     1       4.993   2.638  18.807  0.00  0.00    +0.000 N 
ATOM      8  C   UNL     1       4.516   3.929  18.743  0.00  0.00    +0.000 A 
ATOM      9  C   UNL     1       3.529   3.964  19.719  0.00  0.00    +0.000 A 
ATOM     10  H   UNL     1       5.717   2.229  18.228  0.00  0.00    +0.000 HD
ENDROOT
BRANCH   1  14
ATOM     11  C   UNL     1       1.762   8.812  18.380  0.00  0.00    +0.000 A 
ATOM     12  C   UNL     1       2.352   7.790  17.624  0.00  0.00    +0.000 A 
ATOM     13  C   UNL     1       2.650   6.553  18.201  0.00  0.00    +0.000 A 
ATOM     14  C   UNL     1       2.428   6.316  19.561  0.00  0.00    +0.000 A 
ATOM     15  C   UNL     1       2.013   7.408  20.336  0.00  0.00    +0.000 A 
ATOM     16  C   UNL     1       1.622   8.630  19.763  0.00  0.00    +0.000 A 
BRANCH  11  18
ATOM     17  C   UNL     1       2.177  11.115  18.021  0.00  0.00    +0.000 C 
ATOM     18  O   UNL     1       1.342   9.975  17.793  0.00  0.00    +0.000 OA
ENDBRANCH  11  18
BRANCH  16  19
ATOM     19  O   UNL     1       1.073   9.466  20.698  0.00  0.00    +0.000 OA
ATOM     20  C   UNL     1      -0.078   9.054  21.415  0.00  0.00    +0.000 C 
ENDBRANCH  16  19
ENDBRANCH   1  14
BRANCH   8  21
ATOM     21  C   UNL     1       5.120   4.873  17.795  0.00  0.00    +0.000 A 
ATOM     22  C   UNL     1       4.686   4.903  16.459  0.00  0.00    +0.000 A 
ATOM     23  C   UNL     1       5.217   5.824  15.554  0.00  0.00    +0.000 A 
ATOM     24  C   UNL     1       6.176   6.743  15.976  0.00  0.00    +0.000 A 
ATOM     25  C   UNL     1       6.648   6.719  17.295  0.00  0.00    +0.000 A 
ATOM     26  C   UNL     1       6.134   5.756  18.186  0.00  0.00    +0.000 A 
BRANCH  25  27
ATOM     27  C   UNL     1       7.664   7.730  17.770  0.00  0.00    +0.000 C 
ATOM     28  F   UNL     1       8.606   8.033  16.831  0.00  0.00    +0.000 F 
ATOM     29  F   UNL     1       7.125   8.915  18.133  0.00  0.00    +0.000 F 
ATOM     30  F   UNL     1       8.356   7.301  18.862  0.00  0.00    +0.000 F 
ENDBRANCH  25  27
ENDBRANCH   8  21
TORSDOF 5
ENDMDL
MODEL 4
REMARK VINA RESULT:      -7.9      2.241      2.619
REMARK  Name = 
REMARK  7 active torsions:
REMARK  status: ('A' for Active; 'I' for Inactive)
REMARK    1  A    between atoms: C_1  and  O_2
REMARK    2  A    between atoms: O_2  and  C_3
REMARK    3  A    between atoms: C_6  and  C_7
REMARK    4  A    between atoms: C_14  and  C_15
REMARK    5  A    between atoms: C_19  and  C_20
REMARK    6  A    between atoms: C_27  and  O_28
REMARK    7  A    between atoms: O_28  and  C_29
REMARK                            x       y       z     vdW  Elec       q    Type
REMARK                         _______ _______ _______ _____ _____    ______ ____
ROOT
ATOM      1  C   UNL     1       1.845   4.476  19.243  0.00  0.00    +0.000 A 
ATOM      2  N   UNL     1       0.755   3.988  19.947  0.00  0.00    +0.000 NA
ATOM      3  C   UNL     1       0.501   2.639  20.046  0.00  0.00    +0.000 A 
ATOM      4  C   UNL     1       1.236   1.591  19.496  0.00  0.00    +0.000 A 
ATOM      5  C   UNL     1       2.367   2.052  18.818  0.00  0.00    +0.000 A 
ATOM      6  N   UNL     1       3.300   1.320  18.192  0.00  0.00    +0.000 NA
ATOM      7  N   UNL     1       4.189   2.216  17.755  0.00  0.00    +0.000 N 
ATOM      8  C   UNL     1       3.917   3.531  18.064  0.00  0.00    +0.000 A 
ATOM      9  C   UNL     1       2.689   3.469  18.710  0.00  0.00    +0.000 A 
ATOM     10  H   UNL     1       5.002   1.865  17.260  0.00  0.00    +0.000 HD
ENDROOT
BRANCH   1  14
ATOM     11  C   UNL     1       1.984   8.762  18.981  0.00  0.00    +0.000 A 
ATOM     12  C   UNL     1       2.284   7.962  17.872  0.00  0.00    +0.000 A 
ATOM     13  C   UNL     1       2.254   6.568  17.965  0.00  0.00    +0.000 A 
ATOM     14  C   UNL     1       1.985   5.929  19.179  0.00  0.00    +0.000 A 
ATOM     15  C   UNL     1       1.872   6.744  20.314  0.00  0.00    +0.000 A 
ATOM     16  C   UNL     1       1.808   8.146  20.228  0.00  0.00    +0.000 A 
BRANCH  11  18
ATOM     17  C   UNL     1       0.555  10.618  18.629  0.00  0.00    +0.000 C 
ATOM     18  O   UNL     1       1.877  10.123  18.865  0.00  0.00    +0.000 OA
ENDBRANCH  11  18
BRANCH  16  19
ATOM     19  O   UNL     1       1.500   8.706  21.439  0.00  0.00    +0.000 OA
ATOM     20  C   UNL     1       0.143   8.817  21.833  0.00  0.00    +0.000 C 
ENDBRANCH  16  19
ENDBRANCH   1  14
BRANCH   8  21
ATOM     21  C   UNL     1       4.893   4.569  17.715  0.00  0.00    +0.000 A 
ATOM     22  C   UNL     1       4.710   5.350  16.561  0.00  0.00    +0.000 A 
ATOM     23  C   UNL     1       5.603   6.372  16.237  0.00  0.00    +0.000 A 
ATOM     24  C   UNL     1       6.685   6.643  17.074  0.00  0.00    +0.000 A 
ATOM     25  C   UNL     1       6.909   5.865  18.217  0.00  0.00    +0.000 A 
ATOM     26  C   UNL     1       6.022   4.808  18.508  0.00  0.00    +0.000 A 
BRANCH  25  27
ATOM     27  C   UNL     1       8.060   6.170  19.146  0.00  0.00    +0.000 C 
ATOM     28  F   UNL     1       9.038   5.220  19.126  0.00  0.00    +0.000 F 
ATOM     29  F   UNL     1       8.687   7.336  18.872  0.00  0.00    +0.000 F 
ATOM     30  F   UNL     1       7.668   6.271  20.447  0.00  0.00    +0.000 F 
ENDBRANCH  25  27
ENDBRANCH   8  21
TORSDOF 5
ENDMDL
MODEL 5
REMARK VINA RESULT:      -7.5      9.538     12.560
REMARK  Name = 
REMARK  7 active torsions:
REMARK  status: ('A' for Active; 'I' for Inactive)
REMARK    1  A    between atoms: C_1  and  O_2
REMARK    2  A    between atoms: O_2  and  C_3
REMARK    3  A    between atoms: C_6  and  C_7
REMARK    4  A    between atoms: C_14  and  C_15
REMARK    5  A    between atoms: C_19  and  C_20
REMARK    6  A    between atoms: C_27  and  O_28
REMARK    7  A    between atoms: O_28  and  C_29
REMARK                            x       y       z     vdW  Elec       q    Type
REMARK                         _______ _______ _______ _____ _____    ______ ____
ROOT
ATOM      1  C   UNL     1      -2.553  11.956  19.064  0.00  0.00    +0.000 A 
ATOM      2  N   UNL     1      -1.677  11.476  18.103  0.00  0.00    +0.000 NA
ATOM      3  C   UNL     1      -2.126  10.912  16.930  0.00  0.00    +0.000 A 
ATOM      4  C   UNL     1      -3.445  10.730  16.522  0.00  0.00    +0.000 A 
ATOM      5  C   UNL     1      -4.351  11.246  17.453  0.00  0.00    +0.000 A 
ATOM      6  N   UNL     1      -5.688  11.259  17.371  0.00  0.00    +0.000 NA
ATOM      7  N   UNL     1      -6.085  11.903  18.472  0.00  0.00    +0.000 N 
ATOM      8  C   UNL     1      -5.077  12.345  19.302  0.00  0.00    +0.000 A 
ATOM      9  C   UNL     1      -3.921  11.874  18.695  0.00  0.00    +0.000 A 
ATOM     10  H   UNL     1      -7.081  12.041  18.600  0.00  0.00    +0.000 HD
ENDROOT
BRANCH   1  14
ATOM     11  C   UNL     1      -1.056  13.551  22.762  0.00  0.00    +0.000 A 
ATOM     12  C   UNL     1      -1.452  14.398  21.718  0.00  0.00    +0.000 A 
ATOM     13  C   UNL     1      -1.922  13.876  20.511  0.00  0.00    +0.000 A 
ATOM     14  C   UNL     1      -1.956  12.497  20.283  0.00  0.00    +0.000 A 
ATOM     15  C   UNL     1      -1.383  11.677  21.265  0.00  0.00    +0.000 A 
ATOM     16  C   UNL     1      -0.989  12.172  22.520  0.00  0.00    +0.000 A 
BRANCH  11  18
ATOM     17  C   UNL     1      -1.313  15.312  24.323  0.00  0.00    +0.000 C 
ATOM     18  O   UNL     1      -0.724  14.051  23.993  0.00  0.00    +0.000 OA
ENDBRANCH  11  18
BRANCH  16  19
ATOM     19  O   UNL     1      -0.647  11.156  23.371  0.00  0.00    +0.000 OA
ATOM     20  C   UNL     1      -0.516   9.837  22.869  0.00  0.00    +0.000 C 
ENDBRANCH  16  19
ENDBRANCH   1  14
BRANCH   8  21
ATOM     21  C   UNL     1      -5.417  13.153  20.479  0.00  0.00    +0.000 A 
ATOM     22  C   UNL     1      -5.325  14.554  20.422  0.00  0.00    +0.000 A 
ATOM     23  C   UNL     1      -5.688  15.342  21.516  0.00  0.00    +0.000 A 
ATOM     24  C   UNL     1      -6.167  14.741  22.679  0.00  0.00    +0.000 A 
ATOM     25  C   UNL     1      -6.245  13.345  22.775  0.00  0.00    +0.000 A 
ATOM     26  C   UNL     1      -5.835  12.561  21.677  0.00  0.00    +0.000 A 
BRANCH  25  27
ATOM     27  C   UNL     1      -6.792  12.686  24.019  0.00  0.00    +0.000 C 
ATOM     28  F   UNL     1      -5.822  12.200  24.845  0.00  0.00    +0.000 F 
ATOM     29  F   UNL     1      -7.538  13.509  24.788  0.00  0.00    +0.000 F 
ATOM     30  F   UNL     1      -7.601  11.627  23.736  0.00  0.00    +0.000 F 
ENDBRANCH  25  27
ENDBRANCH   8  21
TORSDOF 5
ENDMDL
MODEL 6
REMARK VINA RESULT:      -7.5      9.323     11.842
REMARK  Name = 
REMARK  7 active torsions:
REMARK  status: ('A' for Active; 'I' for Inactive)
REMARK    1  A    between atoms: C_1  and  O_2
REMARK    2  A    between atoms: O_2  and  C_3
REMARK    3  A    between atoms: C_6  and  C_7
REMARK    4  A    between atoms: C_14  and  C_15
REMARK    5  A    between atoms: C_19  and  C_20
REMARK    6  A    between atoms: C_27  and  O_28
REMARK    7  A    between atoms: O_28  and  C_29
REMARK                            x       y       z     vdW  Elec       q    Type
REMARK                         _______ _______ _______ _____ _____    ______ ____
ROOT
ATOM      1  C   UNL     1      -2.350  11.861  18.466  0.00  0.00    +0.000 A 
ATOM      2  N   UNL     1      -1.784  11.356  17.306  0.00  0.00    +0.000 NA
ATOM      3  C   UNL     1      -2.550  10.779  16.318  0.00  0.00    +0.000 A 
ATOM      4  C   UNL     1      -3.932  10.609  16.301  0.00  0.00    +0.000 A 
ATOM      5  C   UNL     1      -4.535  11.150  17.440  0.00  0.00    +0.000 A 
ATOM      6  N   UNL     1      -5.841  11.180  17.738  0.00  0.00    +0.000 NA
ATOM      7  N   UNL     1      -5.905  11.845  18.894  0.00  0.00    +0.000 N 
ATOM      8  C   UNL     1      -4.701  12.287  19.399  0.00  0.00    +0.000 A 
ATOM      9  C   UNL     1      -3.766  11.791  18.499  0.00  0.00    +0.000 A 
ATOM     10  H   UNL     1      -6.824  11.998  19.295  0.00  0.00    +0.000 HD
ENDROOT
BRANCH   1  14
ATOM     11  C   UNL     1       0.148  13.649  21.470  0.00  0.00    +0.000 A 
ATOM     12  C   UNL     1       0.077  14.185  20.178  0.00  0.00    +0.000 A 
ATOM     13  C   UNL     1      -0.723  13.591  19.199  0.00  0.00    +0.000 A 
ATOM     14  C   UNL     1      -1.429  12.413  19.457  0.00  0.00    +0.000 A 
ATOM     15  C   UNL     1      -1.198  11.792  20.693  0.00  0.00    +0.000 A 
ATOM     16  C   UNL     1      -0.472  12.417  21.722  0.00  0.00    +0.000 A 
BRANCH  11  18
ATOM     17  C   UNL     1       1.709  15.335  22.042  0.00  0.00    +0.000 C 
ATOM     18  O   UNL     1       0.819  14.299  22.471  0.00  0.00    +0.000 OA
ENDBRANCH  11  18
BRANCH  16  19
ATOM     19  O   UNL     1      -0.551  11.706  22.889  0.00  0.00    +0.000 OA
ATOM     20  C   UNL     1      -0.633  10.292  22.843  0.00  0.00    +0.000 C 
ENDBRANCH  16  19
ENDBRANCH   1  14
BRANCH   8  21
ATOM     21  C   UNL     1      -4.689  13.117  20.609  0.00  0.00    +0.000 A 
ATOM     22  C   UNL     1      -5.006  14.483  20.529  0.00  0.00    +0.000 A 
ATOM     23  C   UNL     1      -5.044  15.279  21.675  0.00  0.00    +0.000 A 
ATOM     24  C   UNL     1      -4.785  14.715  22.923  0.00  0.00    +0.000 A 
ATOM     25  C   UNL     1      -4.439  13.362  23.032  0.00  0.00    +0.000 A 
ATOM     26  C   UNL     1      -4.363  12.581  21.861  0.00  0.00    +0.000 A 
BRANCH  25  27
ATOM     27  C   UNL     1      -4.186  12.735  24.382  0.00  0.00    +0.000 C 
ATOM     28  F   UNL     1      -5.322  12.295  24.996  0.00  0.00    +0.000 F 
ATOM     29  F   UNL     1      -3.363  11.664  24.340  0.00  0.00    +0.000 F 
ATOM     30  F   UNL     1      -3.604  13.601  25.259  0.00  0.00    +0.000 F 
ENDBRANCH  25  27
ENDBRANCH   8  21
TORSDOF 5
ENDMDL
MODEL 7
REMARK VINA RESULT:      -7.5      7.825     10.184
REMARK  Name = 
REMARK  7 active torsions:
REMARK  status: ('A' for Active; 'I' for Inactive)
REMARK    1  A    between atoms: C_1  and  O_2
REMARK    2  A    between atoms: O_2  and  C_3
REMARK    3  A    between atoms: C_6  and  C_7
REMARK    4  A    between atoms: C_14  and  C_15
REMARK    5  A    between atoms: C_19  and  C_20
REMARK    6  A    between atoms: C_27  and  O_28
REMARK    7  A    between atoms: O_28  and  C_29
REMARK                            x       y       z     vdW  Elec       q    Type
REMARK                         _______ _______ _______ _____ _____    ______ ____
ROOT
ATOM      1  C   UNL     1      -4.107  12.461  19.391  0.00  0.00    +0.000 A 
ATOM      2  N   UNL     1      -5.453  12.609  19.095  0.00  0.00    +0.000 NA
ATOM      3  C   UNL     1      -5.970  12.248  17.872  0.00  0.00    +0.000 A 
ATOM      4  C   UNL     1      -5.288  11.708  16.784  0.00  0.00    +0.000 A 
ATOM      5  C   UNL     1      -3.935  11.506  17.070  0.00  0.00    +0.000 A 
ATOM      6  N   UNL     1      -2.998  10.987  16.264  0.00  0.00    +0.000 NA
ATOM      7  N   UNL     1      -1.893  10.957  17.013  0.00  0.00    +0.000 N 
ATOM      8  C   UNL     1      -2.031  11.418  18.304  0.00  0.00    +0.000 A 
ATOM      9  C   UNL     1      -3.350  11.849  18.359  0.00  0.00    +0.000 A 
ATOM     10  H   UNL     1      -1.053  10.575  16.592  0.00  0.00    +0.000 HD
ENDROOT
BRANCH   1  14
ATOM     11  C   UNL     1      -3.014  14.015  23.245  0.00  0.00    +0.000 A 
ATOM     12  C   UNL     1      -2.333  14.413  22.086  0.00  0.00    +0.000 A 
ATOM     13  C   UNL     1      -2.680  13.892  20.837  0.00  0.00    +0.000 A 
ATOM     14  C   UNL     1      -3.673  12.916  20.710  0.00  0.00    +0.000 A 
ATOM     15  C   UNL     1      -4.210  12.399  21.897  0.00  0.00    +0.000 A 
ATOM     16  C   UNL     1      -3.943  12.969  23.153  0.00  0.00    +0.000 A 
BRANCH  11  18
ATOM     17  C   UNL     1      -1.423  15.037  24.669  0.00  0.00    +0.000 C 
ATOM     18  O   UNL     1      -2.774  14.619  24.450  0.00  0.00    +0.000 OA
ENDBRANCH  11  18
BRANCH  16  19
ATOM     19  O   UNL     1      -4.731  12.419  24.128  0.00  0.00    +0.000 OA
ATOM     20  C   UNL     1      -6.121  12.694  24.141  0.00  0.00    +0.000 C 
ENDBRANCH  16  19
ENDBRANCH   1  14
BRANCH   8  21
ATOM     21  C   UNL     1      -0.895  11.322  19.228  0.00  0.00    +0.000 A 
ATOM     22  C   UNL     1       0.156  12.250  19.151  0.00  0.00    +0.000 A 
ATOM     23  C   UNL     1       1.223  12.203  20.050  0.00  0.00    +0.000 A 
ATOM     24  C   UNL     1       1.244  11.237  21.055  0.00  0.00    +0.000 A 
ATOM     25  C   UNL     1       0.223  10.281  21.142  0.00  0.00    +0.000 A 
ATOM     26  C   UNL     1      -0.825  10.316  20.200  0.00  0.00    +0.000 A 
BRANCH  25  27
ATOM     27  C   UNL     1       0.221   9.251  22.245  0.00  0.00    +0.000 C 
ATOM     28  F   UNL     1       1.398   8.570  22.352  0.00  0.00    +0.000 F 
ATOM     29  F   UNL     1      -0.008   9.767  23.472  0.00  0.00    +0.000 F 
ATOM     30  F   UNL     1      -0.740   8.301  22.070  0.00  0.00    +0.000 F 
ENDBRANCH  25  27
ENDBRANCH   8  21
TORSDOF 5
ENDMDL
MODEL 8
REMARK VINA RESULT:      -7.4      9.290     12.142
REMARK  Name = 
REMARK  7 active torsions:
REMARK  status: ('A' for Active; 'I' for Inactive)
REMARK    1  A    between atoms: C_1  and  O_2
REMARK    2  A    between atoms: O_2  and  C_3
REMARK    3  A    between atoms: C_6  and  C_7
REMARK    4  A    between atoms: C_14  and  C_15
REMARK    5  A    between atoms: C_19  and  C_20
REMARK    6  A    between atoms: C_27  and  O_28
REMARK    7  A    between atoms: O_28  and  C_29
REMARK                            x       y       z     vdW  Elec       q    Type
REMARK                         _______ _______ _______ _____ _____    ______ ____
ROOT
ATOM      1  C   UNL     1      -2.552  12.039  18.811  0.00  0.00    +0.000 A 
ATOM      2  N   UNL     1      -1.812  11.645  17.707  0.00  0.00    +0.000 NA
ATOM      3  C   UNL     1      -2.401  11.050  16.614  0.00  0.00    +0.000 A 
ATOM      4  C   UNL     1      -3.749  10.754  16.429  0.00  0.00    +0.000 A 
ATOM      5  C   UNL     1      -4.526  11.181  17.509  0.00  0.00    +0.000 A 
ATOM      6  N   UNL     1      -5.855  11.075  17.652  0.00  0.00    +0.000 NA
ATOM      7  N   UNL     1      -6.114  11.673  18.818  0.00  0.00    +0.000 N 
ATOM      8  C   UNL     1      -5.023  12.199  19.477  0.00  0.00    +0.000 A 
ATOM      9  C   UNL     1      -3.949  11.837  18.675  0.00  0.00    +0.000 A 
ATOM     10  H   UNL     1      -7.082  11.721  19.114  0.00  0.00    +0.000 HD
ENDROOT
BRANCH   1  14
ATOM     11  C   UNL     1      -0.609  13.800  22.215  0.00  0.00    +0.000 A 
ATOM     12  C   UNL     1      -1.000  14.584  21.121  0.00  0.00    +0.000 A 
ATOM     13  C   UNL     1      -1.616  14.005  20.009  0.00  0.00    +0.000 A 
ATOM     14  C   UNL     1      -1.807  12.623  19.924  0.00  0.00    +0.000 A 
ATOM     15  C   UNL     1      -1.242  11.841  20.941  0.00  0.00    +0.000 A 
ATOM     16  C   UNL     1      -0.700  12.405  22.110  0.00  0.00    +0.000 A 
BRANCH  11  18
ATOM     17  C   UNL     1      -1.109  15.026  24.178  0.00  0.00    +0.000 C 
ATOM     18  O   UNL     1      -0.130  14.374  23.362  0.00  0.00    +0.000 OA
ENDBRANCH  11  18
BRANCH  16  19
ATOM     19  O   UNL     1      -0.395  11.442  23.033  0.00  0.00    +0.000 OA
ATOM     20  C   UNL     1      -0.700  10.086  22.756  0.00  0.00    +0.000 C 
ENDBRANCH  16  19
ENDBRANCH   1  14
BRANCH   8  21
ATOM     21  C   UNL     1      -5.229  12.966  20.711  0.00  0.00    +0.000 A 
ATOM     22  C   UNL     1      -6.056  14.101  20.705  0.00  0.00    +0.000 A 
ATOM     23  C   UNL     1      -6.300  14.817  21.879  0.00  0.00    +0.000 A 
ATOM     24  C   UNL     1      -5.736  14.396  23.081  0.00  0.00    +0.000 A 
ATOM     25  C   UNL     1      -4.886  13.283  23.115  0.00  0.00    +0.000 A 
ATOM     26  C   UNL     1      -4.615  12.596  21.914  0.00  0.00    +0.000 A 
BRANCH  25  27
ATOM     27  C   UNL     1      -4.295  12.801  24.418  0.00  0.00    +0.000 C 
ATOM     28  F   UNL     1      -3.231  11.964  24.253  0.00  0.00    +0.000 F 
ATOM     29  F   UNL     1      -3.849  13.796  25.215  0.00  0.00    +0.000 F 
ATOM     30  F   UNL     1      -5.194  12.110  25.174  0.00  0.00    +0.000 F 
ENDBRANCH  25  27
ENDBRANCH   8  21
TORSDOF 5
ENDMDL
MODEL 9
REMARK VINA RESULT:      -7.4      6.587      9.578
REMARK  Name = 
REMARK  7 active torsions:
REMARK  status: ('A' for Active; 'I' for Inactive)
REMARK    1  A    between atoms: C_1  and  O_2
REMARK    2  A    between atoms: O_2  and  C_3
REMARK    3  A    between atoms: C_6  and  C_7
REMARK    4  A    between atoms: C_14  and  C_15
REMARK    5  A    between atoms: C_19  and  C_20
REMARK    6  A    between atoms: C_27  and  O_28
REMARK    7  A    between atoms: O_28  and  C_29
REMARK                            x       y       z     vdW  Elec       q    Type
REMARK                         _______ _______ _______ _____ _____    ______ ____
ROOT
ATOM      1  C   UNL     1      -4.219  12.411  20.056  0.00  0.00    +0.000 A 
ATOM      2  N   UNL     1      -5.532  12.386  20.497  0.00  0.00    +0.000 NA
ATOM      3  C   UNL     1      -6.563  11.980  19.680  0.00  0.00    +0.000 A 
ATOM      4  C   UNL     1      -6.484  11.552  18.357  0.00  0.00    +0.000 A 
ATOM      5  C   UNL     1      -5.163  11.524  17.899  0.00  0.00    +0.000 A 
ATOM      6  N   UNL     1      -4.725  11.146  16.691  0.00  0.00    +0.000 NA
ATOM      7  N   UNL     1      -3.395  11.249  16.771  0.00  0.00    +0.000 N 
ATOM      8  C   UNL     1      -2.899  11.667  17.987  0.00  0.00    +0.000 A 
ATOM      9  C   UNL     1      -4.039  11.921  18.737  0.00  0.00    +0.000 A 
ATOM     10  H   UNL     1      -2.856  10.988  15.953  0.00  0.00    +0.000 HD
ENDROOT
BRANCH   1  14
ATOM     11  C   UNL     1      -1.483  13.844  23.044  0.00  0.00    +0.000 A 
ATOM     12  C   UNL     1      -2.207  14.736  22.241  0.00  0.00    +0.000 A 
ATOM     13  C   UNL     1      -3.083  14.266  21.259  0.00  0.00    +0.000 A 
ATOM     14  C   UNL     1      -3.219  12.898  21.005  0.00  0.00    +0.000 A 
ATOM     15  C   UNL     1      -2.351  12.035  21.688  0.00  0.00    +0.000 A 
ATOM     16  C   UNL     1      -1.530  12.476  22.741  0.00  0.00    +0.000 A 
BRANCH  11  18
ATOM     17  C   UNL     1      -0.974  15.642  24.498  0.00  0.00    +0.000 C 
ATOM     18  O   UNL     1      -0.729  14.290  24.096  0.00  0.00    +0.000 OA
ENDBRANCH  11  18
BRANCH  16  19
ATOM     19  O   UNL     1      -0.928  11.424  23.377  0.00  0.00    +0.000 OA
ATOM     20  C   UNL     1      -0.490  10.308  22.621  0.00  0.00    +0.000 C 
ENDBRANCH  16  19
ENDBRANCH   1  14
BRANCH   8  21
ATOM     21  C   UNL     1      -1.447  11.706  18.196  0.00  0.00    +0.000 A 
ATOM     22  C   UNL     1      -0.802  12.931  18.434  0.00  0.00    +0.000 A 
ATOM     23  C   UNL     1       0.571  12.983  18.681  0.00  0.00    +0.000 A 
ATOM     24  C   UNL     1       1.318  11.806  18.713  0.00  0.00    +0.000 A 
ATOM     25  C   UNL     1       0.708  10.572  18.453  0.00  0.00    +0.000 A 
ATOM     26  C   UNL     1      -0.672  10.540  18.164  0.00  0.00    +0.000 A 
BRANCH  25  27
ATOM     27  C   UNL     1       1.502   9.289  18.516  0.00  0.00    +0.000 C 
ATOM     28  F   UNL     1       1.521   8.725  19.758  0.00  0.00    +0.000 F 
ATOM     29  F   UNL     1       1.042   8.323  17.690  0.00  0.00    +0.000 F 
ATOM     30  F   UNL     1       2.807   9.466  18.170  0.00  0.00    +0.000 F 
ENDBRANCH  25  27
ENDBRANCH   8  21
TORSDOF 5
ENDMDL
