MODEL 1
REMARK VINA RESULT:      -8.3      0.000      0.000
REMARK  Name = 
REMARK  10 active torsions:
REMARK  status: ('A' for Active; 'I' for Inactive)
REMARK    1  A    between atoms: C_1  and  O_2
REMARK    2  A    between atoms: O_2  and  C_3
REMARK    3  A    between atoms: C_6  and  O_7
REMARK    4  A    between atoms: O_7  and  C_8
REMARK    5  A    between atoms: C_9  and  N_10
REMARK    6  A    between atoms: C_11  and  C_13
REMARK    7  A    between atoms: C_15  and  C_16
REMARK    8  A    between atoms: C_18  and  C_19
REMARK    9  A    between atoms: C_20  and  C_21
REMARK   10  A    between atoms: C_23  and  O_24
REMARK                            x       y       z     vdW  Elec       q    Type
REMARK                         _______ _______ _______ _____ _____    ______ ____
ROOT
ATOM      1  C   UNL     1       7.286   7.623  17.843  0.00  0.00    +0.000 A 
ATOM      2  C   UNL     1       7.623   8.988  17.638  0.00  0.00    +0.000 A 
ATOM      3  C   UNL     1       8.681   9.261  18.482  0.00  0.00    +0.000 A 
ATOM      4  N   UNL     1       8.950   8.054  19.078  0.00  0.00    +0.000 N 
ATOM      5  N   UNL     1       8.127   7.045  18.725  0.00  0.00    +0.000 NA
ATOM      6  H   UNL     1       9.684   7.885  19.761  0.00  0.00    +0.000 HD
ENDROOT
BRANCH   3   7
ATOM      7  C   UNL     1       9.404  10.503  18.802  0.00  0.00    +0.000 A 
ATOM      8  C   UNL     1       9.930  11.298  17.769  0.00  0.00    +0.000 A 
ATOM      9  C   UNL     1      10.592  12.518  18.022  0.00  0.00    +0.000 A 
ATOM     10  C   UNL     1      11.173  13.285  16.864  0.00  0.00    +0.000 C 
ATOM     11  C   UNL     1      10.707  12.975  19.347  0.00  0.00    +0.000 A 
ATOM     12  C   UNL     1      11.339  14.290  19.714  0.00  0.00    +0.000 C 
ATOM     13  C   UNL     1      10.211  12.174  20.388  0.00  0.00    +0.000 A 
ATOM     14  C   UNL     1       9.579  10.957  20.118  0.00  0.00    +0.000 A 
BRANCH  14  15
ATOM     15  O   UNL     1       9.120  10.203  21.173  0.00  0.00    +0.000 OA
ATOM     16  H   UNL     1       9.491   9.307  21.087  0.00  0.00    +0.000 HD
ENDBRANCH  14  15
ENDBRANCH   3   7
BRANCH   1  18
ATOM     17  N   UNL     1       5.342   6.297  18.176  0.00  0.00    +0.000 N 
ATOM     18  C   UNL     1       6.144   6.908  17.232  0.00  0.00    +0.000 C 
ATOM     19  O   UNL     1       5.976   6.974  16.020  0.00  0.00    +0.000 OA
ATOM     20  H   UNL     1       5.622   6.537  19.125  0.00  0.00    +0.000 HD
BRANCH  17  25
ATOM     21  C   UNL     1       3.307   3.240  17.743  0.00  0.00    +0.000 A 
ATOM     22  C   UNL     1       2.011   3.739  17.716  0.00  0.00    +0.000 A 
ATOM     23  C   UNL     1       1.780   5.108  17.818  0.00  0.00    +0.000 A 
ATOM     24  C   UNL     1       2.846   6.010  17.938  0.00  0.00    +0.000 A 
ATOM     25  C   UNL     1       4.166   5.519  18.018  0.00  0.00    +0.000 A 
ATOM     26  C   UNL     1       4.377   4.128  17.895  0.00  0.00    +0.000 A 
BRANCH  21  28
ATOM     27  C   UNL     1       3.894   1.146  18.710  0.00  0.00    +0.000 C 
ATOM     28  O   UNL     1       3.384   1.882  17.609  0.00  0.00    +0.000 OA
ENDBRANCH  21  28
BRANCH  24  29
ATOM     29  O   UNL     1       2.642   7.360  17.955  0.00  0.00    +0.000 OA
ATOM     30  C   UNL     1       2.114   7.943  19.136  0.00  0.00    +0.000 C 
ENDBRANCH  24  29
ENDBRANCH  17  25
ENDBRANCH   1  18
TORSDOF 6
ENDMDL
MODEL 2
REMARK VINA RESULT:      -8.3      1.328      2.168
REMARK  Name = 
REMARK  10 active torsions:
REMARK  status: ('A' for Active; 'I' for Inactive)
REMARK    1  A    between atoms: C_1  and  O_2
REMARK    2  A    between atoms: O_2  and  C_3
REMARK    3  A    between atoms: C_6  and  O_7
REMARK    4  A    between atoms: O_7  and  C_8
REMARK    5  A    between atoms: C_9  and  N_10
REMARK    6  A    between atoms: C_11  and  C_13
REMARK    7  A    between atoms: C_15  and  C_16
REMARK    8  A    between atoms: C_18  and  C_19
REMARK    9  A    between atoms: C_20  and  C_21
REMARK   10  A    between atoms: C_23  and  O_24
REMARK                            x       y       z     vdW  Elec       q    Type
REMARK                         _______ _______ _______ _____ _____    ______ ____
ROOT
ATOM      1  C   UNL     1       7.356   7.676  17.827  0.00  0.00    +0.000 A 
ATOM      2  C   UNL     1       7.683   9.042  17.616  0.00  0.00    +0.000 A 
ATOM      3  C   UNL     1       8.717   9.336  18.482  0.00  0.00    +0.000 A 
ATOM      4  N   UNL     1       8.985   8.138  19.097  0.00  0.00    +0.000 N 
ATOM      5  N   UNL     1       8.182   7.116  18.735  0.00  0.00    +0.000 NA
ATOM      6  H   UNL     1       9.703   7.984  19.799  0.00  0.00    +0.000 HD
ENDROOT
BRANCH   3   7
ATOM      7  C   UNL     1       9.418  10.588  18.807  0.00  0.00    +0.000 A 
ATOM      8  C   UNL     1       9.933  11.395  17.778  0.00  0.00    +0.000 A 
ATOM      9  C   UNL     1      10.574  12.625  18.035  0.00  0.00    +0.000 A 
ATOM     10  C   UNL     1      11.144  13.405  16.881  0.00  0.00    +0.000 C 
ATOM     11  C   UNL     1      10.678  13.081  19.362  0.00  0.00    +0.000 A 
ATOM     12  C   UNL     1      11.287  14.406  19.734  0.00  0.00    +0.000 C 
ATOM     13  C   UNL     1      10.193  12.270  20.400  0.00  0.00    +0.000 A 
ATOM     14  C   UNL     1       9.582  11.042  20.125  0.00  0.00    +0.000 A 
BRANCH  14  15
ATOM     15  O   UNL     1       9.133  10.279  21.177  0.00  0.00    +0.000 OA
ATOM     16  H   UNL     1       8.494  10.811  21.684  0.00  0.00    +0.000 HD
ENDBRANCH  14  15
ENDBRANCH   3   7
BRANCH   1  18
ATOM     17  N   UNL     1       5.684   6.001  18.041  0.00  0.00    +0.000 N 
ATOM     18  C   UNL     1       6.237   6.942  17.195  0.00  0.00    +0.000 C 
ATOM     19  O   UNL     1       5.873   7.260  16.069  0.00  0.00    +0.000 OA
ATOM     20  H   UNL     1       6.077   6.056  18.979  0.00  0.00    +0.000 HD
BRANCH  17  25
ATOM     21  C   UNL     1       2.362   4.467  18.573  0.00  0.00    +0.000 A 
ATOM     22  C   UNL     1       2.338   3.455  17.621  0.00  0.00    +0.000 A 
ATOM     23  C   UNL     1       3.436   3.241  16.792  0.00  0.00    +0.000 A 
ATOM     24  C   UNL     1       4.589   4.031  16.906  0.00  0.00    +0.000 A 
ATOM     25  C   UNL     1       4.612   5.094  17.832  0.00  0.00    +0.000 A 
ATOM     26  C   UNL     1       3.493   5.282  18.674  0.00  0.00    +0.000 A 
BRANCH  21  28
ATOM     27  C   UNL     1       1.226   3.861  20.575  0.00  0.00    +0.000 C 
ATOM     28  O   UNL     1       1.227   4.544  19.330  0.00  0.00    +0.000 OA
ENDBRANCH  21  28
BRANCH  24  29
ATOM     29  O   UNL     1       5.703   3.782  16.160  0.00  0.00    +0.000 OA
ATOM     30  C   UNL     1       5.653   4.058  14.768  0.00  0.00    +0.000 C 
ENDBRANCH  24  29
ENDBRANCH  17  25
ENDBRANCH   1  18
TORSDOF 6
ENDMDL
MODEL 3
REMARK VINA RESULT:      -7.7      1.943      2.399
REMARK  Name = 
REMARK  10 active torsions:
REMARK  status: ('A' for Active; 'I' for Inactive)
REMARK    1  A    between atoms: C_1  and  O_2
REMARK    2  A    between atoms: O_2  and  C_3
REMARK    3  A    between atoms: C_6  and  O_7
REMARK    4  A    between atoms: O_7  and  C_8
REMARK    5  A    between atoms: C_9  and  N_10
REMARK    6  A    between atoms: C_11  and  C_13
REMARK    7  A    between atoms: C_15  and  C_16
REMARK    8  A    between atoms: C_18  and  C_19
REMARK    9  A    between atoms: C_20  and  C_21
REMARK   10  A    between atoms: C_23  and  O_24
REMARK                            x       y       z     vdW  Elec       q    Type
REMARK                         _______ _______ _______ _____ _____    ______ ____
ROOT
ATOM      1  C   UNL     1       7.584   7.401  18.187  0.00  0.00    +0.000 A 
ATOM      2  C   UNL     1       8.508   8.089  19.019  0.00  0.00    +0.000 A 
ATOM      3  C   UNL     1       8.676   9.342  18.466  0.00  0.00    +0.000 A 
ATOM      4  N   UNL     1       7.810   9.353  17.400  0.00  0.00    +0.000 N 
ATOM      5  N   UNL     1       7.140   8.200  17.195  0.00  0.00    +0.000 NA
ATOM      6  H   UNL     1       7.668  10.134  16.766  0.00  0.00    +0.000 HD
ENDROOT
BRANCH   3   7
ATOM      7  C   UNL     1       9.564  10.468  18.801  0.00  0.00    +0.000 A 
ATOM      8  C   UNL     1      10.241  11.158  17.781  0.00  0.00    +0.000 A 
ATOM      9  C   UNL     1      11.068  12.270  18.047  0.00  0.00    +0.000 A 
ATOM     10  C   UNL     1      11.800  12.922  16.904  0.00  0.00    +0.000 C 
ATOM     11  C   UNL     1      11.198  12.728  19.370  0.00  0.00    +0.000 A 
ATOM     12  C   UNL     1      12.005  13.941  19.748  0.00  0.00    +0.000 C 
ATOM     13  C   UNL     1      10.549  12.028  20.399  0.00  0.00    +0.000 A 
ATOM     14  C   UNL     1       9.754  10.914  20.118  0.00  0.00    +0.000 A 
BRANCH  14  15
ATOM     15  O   UNL     1       9.147  10.255  21.162  0.00  0.00    +0.000 OA
ATOM     16  H   UNL     1       9.723   9.516  21.427  0.00  0.00    +0.000 HD
ENDBRANCH  14  15
ENDBRANCH   3   7
BRANCH   1  18
ATOM     17  N   UNL     1       5.812   5.818  18.173  0.00  0.00    +0.000 N 
ATOM     18  C   UNL     1       7.174   5.986  18.326  0.00  0.00    +0.000 C 
ATOM     19  O   UNL     1       8.034   5.127  18.483  0.00  0.00    +0.000 OA
ATOM     20  H   UNL     1       5.352   6.681  17.890  0.00  0.00    +0.000 HD
BRANCH  17  25
ATOM     21  C   UNL     1       3.926   3.052  19.743  0.00  0.00    +0.000 A 
ATOM     22  C   UNL     1       3.443   2.351  18.645  0.00  0.00    +0.000 A 
ATOM     23  C   UNL     1       3.751   2.767  17.353  0.00  0.00    +0.000 A 
ATOM     24  C   UNL     1       4.560   3.890  17.132  0.00  0.00    +0.000 A 
ATOM     25  C   UNL     1       5.019   4.642  18.233  0.00  0.00    +0.000 A 
ATOM     26  C   UNL     1       4.708   4.192  19.535  0.00  0.00    +0.000 A 
BRANCH  21  28
ATOM     27  C   UNL     1       2.205   2.635  21.333  0.00  0.00    +0.000 C 
ATOM     28  O   UNL     1       3.566   2.516  20.948  0.00  0.00    +0.000 OA
ENDBRANCH  21  28
BRANCH  24  29
ATOM     29  O   UNL     1       4.940   4.261  15.874  0.00  0.00    +0.000 OA
ATOM     30  C   UNL     1       6.182   3.783  15.382  0.00  0.00    +0.000 C 
ENDBRANCH  24  29
ENDBRANCH  17  25
ENDBRANCH   1  18
TORSDOF 6
ENDMDL
MODEL 4
REMARK VINA RESULT:      -7.7      6.226     10.549
REMARK  Name = 
REMARK  10 active torsions:
REMARK  status: ('A' for Active; 'I' for Inactive)
REMARK    1  A    between atoms: C_1  and  O_2
REMARK    2  A    between atoms: O_2  and  C_3
REMARK    3  A    between atoms: C_6  and  O_7
REMARK    4  A    between atoms: O_7  and  C_8
REMARK    5  A    between atoms: C_9  and  N_10
REMARK    6  A    between atoms: C_11  and  C_13
REMARK    7  A    between atoms: C_15  and  C_16
REMARK    8  A    between atoms: C_18  and  C_19
REMARK    9  A    between atoms: C_20  and  C_21
REMARK   10  A    between atoms: C_23  and  O_24
REMARK                            x       y       z     vdW  Elec       q    Type
REMARK                         _______ _______ _______ _____ _____    ______ ____
ROOT
ATOM      1  C   UNL     1       0.811   9.483  21.360  0.00  0.00    +0.000 A 
ATOM      2  C   UNL     1       1.355   8.171  21.413  0.00  0.00    +0.000 A 
ATOM      3  C   UNL     1       1.731   7.851  20.124  0.00  0.00    +0.000 A 
ATOM      4  N   UNL     1       1.459   8.989  19.406  0.00  0.00    +0.000 N 
ATOM      5  N   UNL     1       0.897   9.991  20.113  0.00  0.00    +0.000 NA
ATOM      6  H   UNL     1       1.622   9.109  18.410  0.00  0.00    +0.000 HD
ENDROOT
BRANCH   3   7
ATOM      7  C   UNL     1       2.259   6.617  19.519  0.00  0.00    +0.000 A 
ATOM      8  C   UNL     1       1.984   5.370  20.107  0.00  0.00    +0.000 A 
ATOM      9  C   UNL     1       2.429   4.157  19.540  0.00  0.00    +0.000 A 
ATOM     10  C   UNL     1       2.138   2.867  20.260  0.00  0.00    +0.000 C 
ATOM     11  C   UNL     1       3.146   4.186  18.331  0.00  0.00    +0.000 A 
ATOM     12  C   UNL     1       3.610   2.946  17.616  0.00  0.00    +0.000 C 
ATOM     13  C   UNL     1       3.451   5.427  17.751  0.00  0.00    +0.000 A 
ATOM     14  C   UNL     1       3.021   6.620  18.340  0.00  0.00    +0.000 A 
BRANCH  14  15
ATOM     15  O   UNL     1       3.354   7.811  17.739  0.00  0.00    +0.000 OA
ATOM     16  H   UNL     1       4.189   7.682  17.257  0.00  0.00    +0.000 HD
ENDBRANCH  14  15
ENDBRANCH   3   7
BRANCH   1  18
ATOM     17  N   UNL     1      -0.604  11.261  22.053  0.00  0.00    +0.000 N 
ATOM     18  C   UNL     1       0.181  10.210  22.484  0.00  0.00    +0.000 C 
ATOM     19  O   UNL     1       0.341   9.799  23.627  0.00  0.00    +0.000 OA
ATOM     20  H   UNL     1      -0.690  11.281  21.039  0.00  0.00    +0.000 HD
BRANCH  17  25
ATOM     21  C   UNL     1      -3.508  12.570  23.932  0.00  0.00    +0.000 A 
ATOM     22  C   UNL     1      -3.089  13.846  24.289  0.00  0.00    +0.000 A 
ATOM     23  C   UNL     1      -1.838  14.314  23.894  0.00  0.00    +0.000 A 
ATOM     24  C   UNL     1      -0.982  13.515  23.123  0.00  0.00    +0.000 A 
ATOM     25  C   UNL     1      -1.370  12.200  22.793  0.00  0.00    +0.000 A 
ATOM     26  C   UNL     1      -2.649  11.753  23.189  0.00  0.00    +0.000 A 
BRANCH  21  28
ATOM     27  C   UNL     1      -5.841  13.037  23.872  0.00  0.00    +0.000 C 
ATOM     28  O   UNL     1      -4.764  12.255  24.366  0.00  0.00    +0.000 OA
ENDBRANCH  21  28
BRANCH  24  29
ATOM     29  O   UNL     1       0.210  13.989  22.657  0.00  0.00    +0.000 OA
ATOM     30  C   UNL     1       0.201  14.791  21.487  0.00  0.00    +0.000 C 
ENDBRANCH  24  29
ENDBRANCH  17  25
ENDBRANCH   1  18
TORSDOF 6
ENDMDL
MODEL 5
REMARK VINA RESULT:      -7.6      4.640      7.552
REMARK  Name = 
REMARK  10 active torsions:
REMARK  status: ('A' for Active; 'I' for Inactive)
REMARK    1  A    between atoms: C_1  and  O_2
REMARK    2  A    between atoms: O_2  and  C_3
REMARK    3  A    between atoms: C_6  and  O_7
REMARK    4  A    between atoms: O_7  and  C_8
REMARK    5  A    between atoms: C_9  and  N_10
REMARK    6  A    between atoms: C_11  and  C_13
REMARK    7  A    between atoms: C_15  and  C_16
REMARK    8  A    between atoms: C_18  and  C_19
REMARK    9  A    between atoms: C_20  and  C_21
REMARK   10  A    between atoms: C_23  and  O_24
REMARK                            x       y       z     vdW  Elec       q    Type
REMARK                         _______ _______ _______ _____ _____    ______ ____
ROOT
ATOM      1  C   UNL     1       2.377   6.628  19.514  0.00  0.00    +0.000 A 
ATOM      2  C   UNL     1       2.002   7.946  19.140  0.00  0.00    +0.000 A 
ATOM      3  C   UNL     1       1.319   8.479  20.215  0.00  0.00    +0.000 A 
ATOM      4  N   UNL     1       1.384   7.495  21.170  0.00  0.00    +0.000 N 
ATOM      5  N   UNL     1       2.006   6.362  20.784  0.00  0.00    +0.000 NA
ATOM      6  H   UNL     1       0.985   7.553  22.103  0.00  0.00    +0.000 HD
ENDROOT
BRANCH   3   7
ATOM      7  C   UNL     1       0.604   9.751  20.409  0.00  0.00    +0.000 A 
ATOM      8  C   UNL     1       0.029  10.411  19.309  0.00  0.00    +0.000 A 
ATOM      9  C   UNL     1      -0.704  11.609  19.450  0.00  0.00    +0.000 A 
ATOM     10  C   UNL     1      -1.243  12.281  18.216  0.00  0.00    +0.000 C 
ATOM     11  C   UNL     1      -0.894  12.150  20.733  0.00  0.00    +0.000 A 
ATOM     12  C   UNL     1      -1.710  13.387  20.994  0.00  0.00    +0.000 C 
ATOM     13  C   UNL     1      -0.299  11.515  21.835  0.00  0.00    +0.000 A 
ATOM     14  C   UNL     1       0.443  10.342  21.672  0.00  0.00    +0.000 A 
BRANCH  14  15
ATOM     15  O   UNL     1       1.015   9.763  22.780  0.00  0.00    +0.000 OA
ATOM     16  H   UNL     1       0.720   8.836  22.821  0.00  0.00    +0.000 HD
ENDBRANCH  14  15
ENDBRANCH   3   7
BRANCH   1  18
ATOM     17  N   UNL     1       4.283   6.055  18.216  0.00  0.00    +0.000 N 
ATOM     18  C   UNL     1       3.040   5.632  18.644  0.00  0.00    +0.000 C 
ATOM     19  O   UNL     1       2.495   4.552  18.446  0.00  0.00    +0.000 OA
ATOM     20  H   UNL     1       4.561   6.928  18.661  0.00  0.00    +0.000 HD
BRANCH  17  25
ATOM     21  C   UNL     1       5.665   4.620  15.101  0.00  0.00    +0.000 A 
ATOM     22  C   UNL     1       6.929   4.197  15.496  0.00  0.00    +0.000 A 
ATOM     23  C   UNL     1       7.346   4.356  16.815  0.00  0.00    +0.000 A 
ATOM     24  C   UNL     1       6.500   4.936  17.772  0.00  0.00    +0.000 A 
ATOM     25  C   UNL     1       5.234   5.416  17.379  0.00  0.00    +0.000 A 
ATOM     26  C   UNL     1       4.825   5.228  16.040  0.00  0.00    +0.000 A 
BRANCH  21  28
ATOM     27  C   UNL     1       6.384   3.735  13.012  0.00  0.00    +0.000 C 
ATOM     28  O   UNL     1       5.383   4.377  13.787  0.00  0.00    +0.000 OA
ENDBRANCH  21  28
BRANCH  24  29
ATOM     29  O   UNL     1       6.861   5.023  19.085  0.00  0.00    +0.000 OA
ATOM     30  C   UNL     1       7.911   5.913  19.432  0.00  0.00    +0.000 C 
ENDBRANCH  24  29
ENDBRANCH  17  25
ENDBRANCH   1  18
TORSDOF 6
ENDMDL
MODEL 6
REMARK VINA RESULT:      -7.4      5.988      9.785
REMARK  Name = 
REMARK  10 active torsions:
REMARK  status: ('A' for Active; 'I' for Inactive)
REMARK    1  A    between atoms: C_1  and  O_2
REMARK    2  A    between atoms: O_2  and  C_3
REMARK    3  A    between atoms: C_6  and  O_7
REMARK    4  A    between atoms: O_7  and  C_8
REMARK    5  A    between atoms: C_9  and  N_10
REMARK    6  A    between atoms: C_11  and  C_13
REMARK    7  A    between atoms: C_15  and  C_16
REMARK    8  A    between atoms: C_18  and  C_19
REMARK    9  A    between atoms: C_20  and  C_21
REMARK   10  A    between atoms: C_23  and  O_24
REMARK                            x       y       z     vdW  Elec       q    Type
REMARK                         _______ _______ _______ _____ _____    ______ ____
ROOT
ATOM      1  C   UNL     1       1.628   9.562  18.786  0.00  0.00    +0.000 A 
ATOM      2  C   UNL     1       1.782   8.280  19.378  0.00  0.00    +0.000 A 
ATOM      3  C   UNL     1       2.343   7.468  18.414  0.00  0.00    +0.000 A 
ATOM      4  N   UNL     1       2.549   8.310  17.349  0.00  0.00    +0.000 N 
ATOM      5  N   UNL     1       2.124   9.578  17.532  0.00  0.00    +0.000 NA
ATOM      6  H   UNL     1       2.959   8.044  16.458  0.00  0.00    +0.000 HD
ENDROOT
BRANCH   3   7
ATOM      7  C   UNL     1       2.652   6.029  18.380  0.00  0.00    +0.000 A 
ATOM      8  C   UNL     1       1.882   5.125  19.132  0.00  0.00    +0.000 A 
ATOM      9  C   UNL     1       2.110   3.733  19.099  0.00  0.00    +0.000 A 
ATOM     10  C   UNL     1       1.275   2.838  19.975  0.00  0.00    +0.000 C 
ATOM     11  C   UNL     1       3.119   3.222  18.264  0.00  0.00    +0.000 A 
ATOM     12  C   UNL     1       3.399   1.752  18.111  0.00  0.00    +0.000 C 
ATOM     13  C   UNL     1       3.913   4.118  17.530  0.00  0.00    +0.000 A 
ATOM     14  C   UNL     1       3.687   5.496  17.595  0.00  0.00    +0.000 A 
BRANCH  14  15
ATOM     15  O   UNL     1       4.498   6.334  16.866  0.00  0.00    +0.000 OA
ATOM     16  H   UNL     1       4.027   7.178  16.745  0.00  0.00    +0.000 HD
ENDBRANCH  14  15
ENDBRANCH   3   7
BRANCH   1  18
ATOM     17  N   UNL     1      -0.103  10.376  20.195  0.00  0.00    +0.000 N 
ATOM     18  C   UNL     1       0.973  10.734  19.407  0.00  0.00    +0.000 C 
ATOM     19  O   UNL     1       1.454  11.848  19.239  0.00  0.00    +0.000 OA
ATOM     20  H   UNL     1      -0.187   9.366  20.289  0.00  0.00    +0.000 HD
BRANCH  17  25
ATOM     21  C   UNL     1      -2.912  12.699  20.821  0.00  0.00    +0.000 A 
ATOM     22  C   UNL     1      -2.900  12.825  22.205  0.00  0.00    +0.000 A 
ATOM     23  C   UNL     1      -1.941  12.160  22.965  0.00  0.00    +0.000 A 
ATOM     24  C   UNL     1      -0.967  11.359  22.353  0.00  0.00    +0.000 A 
ATOM     25  C   UNL     1      -0.994  11.179  20.954  0.00  0.00    +0.000 A 
ATOM     26  C   UNL     1      -1.964  11.878  20.202  0.00  0.00    +0.000 A 
BRANCH  21  28
ATOM     27  C   UNL     1      -5.203  12.887  20.204  0.00  0.00    +0.000 C 
ATOM     28  O   UNL     1      -3.890  13.427  20.205  0.00  0.00    +0.000 OA
ENDBRANCH  21  28
BRANCH  24  29
ATOM     29  O   UNL     1       0.029  10.768  23.075  0.00  0.00    +0.000 OA
ATOM     30  C   UNL     1      -0.118   9.399  23.422  0.00  0.00    +0.000 C 
ENDBRANCH  24  29
ENDBRANCH  17  25
ENDBRANCH   1  18
TORSDOF 6
ENDMDL
MODEL 7
REMARK VINA RESULT:      -7.4      5.511      8.206
REMARK  Name = 
REMARK  10 active torsions:
REMARK  status: ('A' for Active; 'I' for Inactive)
REMARK    1  A    between atoms: C_1  and  O_2
REMARK    2  A    between atoms: O_2  and  C_3
REMARK    3  A    between atoms: C_6  and  O_7
REMARK    4  A    between atoms: O_7  and  C_8
REMARK    5  A    between atoms: C_9  and  N_10
REMARK    6  A    between atoms: C_11  and  C_13
REMARK    7  A    between atoms: C_15  and  C_16
REMARK    8  A    between atoms: C_18  and  C_19
REMARK    9  A    between atoms: C_20  and  C_21
REMARK   10  A    between atoms: C_23  and  O_24
REMARK                            x       y       z     vdW  Elec       q    Type
REMARK                         _______ _______ _______ _____ _____    ______ ____
ROOT
ATOM      1  C   UNL     1       1.648   8.683  19.620  0.00  0.00    +0.000 A 
ATOM      2  C   UNL     1       0.954   9.922  19.625  0.00  0.00    +0.000 A 
ATOM      3  C   UNL     1       0.457  10.088  20.902  0.00  0.00    +0.000 A 
ATOM      4  N   UNL     1       0.930   8.995  21.586  0.00  0.00    +0.000 N 
ATOM      5  N   UNL     1       1.645   8.122  20.847  0.00  0.00    +0.000 NA
ATOM      6  H   UNL     1       0.760   8.797  22.568  0.00  0.00    +0.000 HD
ENDROOT
BRANCH   3   7
ATOM      7  C   UNL     1      -0.418  11.106  21.507  0.00  0.00    +0.000 A 
ATOM      8  C   UNL     1      -0.653  12.319  20.838  0.00  0.00    +0.000 A 
ATOM      9  C   UNL     1      -1.518  13.308  21.354  0.00  0.00    +0.000 A 
ATOM     10  C   UNL     1      -1.675  14.602  20.602  0.00  0.00    +0.000 C 
ATOM     11  C   UNL     1      -2.194  13.064  22.563  0.00  0.00    +0.000 A 
ATOM     12  C   UNL     1      -3.183  14.026  23.163  0.00  0.00    +0.000 C 
ATOM     13  C   UNL     1      -1.944  11.868  23.253  0.00  0.00    +0.000 A 
ATOM     14  C   UNL     1      -1.065  10.912  22.737  0.00  0.00    +0.000 A 
BRANCH  14  15
ATOM     15  O   UNL     1      -0.845   9.760  23.456  0.00  0.00    +0.000 OA
ATOM     16  H   UNL     1      -1.706   9.332  23.609  0.00  0.00    +0.000 HD
ENDBRANCH  14  15
ENDBRANCH   3   7
BRANCH   1  18
ATOM     17  N   UNL     1       2.770   6.785  18.734  0.00  0.00    +0.000 N 
ATOM     18  C   UNL     1       2.262   8.035  18.440  0.00  0.00    +0.000 C 
ATOM     19  O   UNL     1       2.206   8.596  17.352  0.00  0.00    +0.000 OA
ATOM     20  H   UNL     1       2.538   6.494  19.682  0.00  0.00    +0.000 HD
BRANCH  17  25
ATOM     21  C   UNL     1       5.247   5.547  16.283  0.00  0.00    +0.000 A 
ATOM     22  C   UNL     1       4.935   4.197  16.191  0.00  0.00    +0.000 A 
ATOM     23  C   UNL     1       3.876   3.666  16.923  0.00  0.00    +0.000 A 
ATOM     24  C   UNL     1       3.100   4.481  17.759  0.00  0.00    +0.000 A 
ATOM     25  C   UNL     1       3.433   5.844  17.904  0.00  0.00    +0.000 A 
ATOM     26  C   UNL     1       4.500   6.363  17.138  0.00  0.00    +0.000 A 
BRANCH  21  28
ATOM     27  C   UNL     1       6.771   4.993  14.541  0.00  0.00    +0.000 C 
ATOM     28  O   UNL     1       6.292   5.932  15.491  0.00  0.00    +0.000 OA
ENDBRANCH  21  28
BRANCH  24  29
ATOM     29  O   UNL     1       2.009   3.994  18.418  0.00  0.00    +0.000 OA
ATOM     30  C   UNL     1       1.692   2.619  18.265  0.00  0.00    +0.000 C 
ENDBRANCH  24  29
ENDBRANCH  17  25
ENDBRANCH   1  18
TORSDOF 6
ENDMDL
MODEL 8
REMARK VINA RESULT:      -7.3      5.860      9.870
REMARK  Name = 
REMARK  10 active torsions:
REMARK  status: ('A' for Active; 'I' for Inactive)
REMARK    1  A    between atoms: C_1  and  O_2
REMARK    2  A    between atoms: O_2  and  C_3
REMARK    3  A    between atoms: C_6  and  O_7
REMARK    4  A    between atoms: O_7  and  C_8
REMARK    5  A    between atoms: C_9  and  N_10
REMARK    6  A    between atoms: C_11  and  C_13
REMARK    7  A    between atoms: C_15  and  C_16
REMARK    8  A    between atoms: C_18  and  C_19
REMARK    9  A    between atoms: C_20  and  C_21
REMARK   10  A    between atoms: C_23  and  O_24
REMARK                            x       y       z     vdW  Elec       q    Type
REMARK                         _______ _______ _______ _____ _____    ______ ____
ROOT
ATOM      1  C   UNL     1       1.197   9.527  19.220  0.00  0.00    +0.000 A 
ATOM      2  C   UNL     1       1.504   8.387  20.010  0.00  0.00    +0.000 A 
ATOM      3  C   UNL     1       2.269   7.555  19.218  0.00  0.00    +0.000 A 
ATOM      4  N   UNL     1       2.427   8.262  18.051  0.00  0.00    +0.000 N 
ATOM      5  N   UNL     1       1.790   9.450  18.011  0.00  0.00    +0.000 NA
ATOM      6  H   UNL     1       2.950   7.947  17.239  0.00  0.00    +0.000 HD
ENDROOT
BRANCH   3   7
ATOM      7  C   UNL     1       2.806   6.201  19.425  0.00  0.00    +0.000 A 
ATOM      8  C   UNL     1       2.184   5.326  20.332  0.00  0.00    +0.000 A 
ATOM      9  C   UNL     1       2.634   4.004  20.533  0.00  0.00    +0.000 A 
ATOM     10  C   UNL     1       1.945   3.148  21.561  0.00  0.00    +0.000 C 
ATOM     11  C   UNL     1       3.723   3.529  19.781  0.00  0.00    +0.000 A 
ATOM     12  C   UNL     1       4.239   2.118  19.876  0.00  0.00    +0.000 C 
ATOM     13  C   UNL     1       4.370   4.403  18.893  0.00  0.00    +0.000 A 
ATOM     14  C   UNL     1       3.923   5.717  18.726  0.00  0.00    +0.000 A 
BRANCH  14  15
ATOM     15  O   UNL     1       4.597   6.538  17.853  0.00  0.00    +0.000 OA
ATOM     16  H   UNL     1       5.463   6.750  18.245  0.00  0.00    +0.000 HD
ENDBRANCH  14  15
ENDBRANCH   3   7
BRANCH   1  18
ATOM     17  N   UNL     1       0.336  10.881  20.973  0.00  0.00    +0.000 N 
ATOM     18  C   UNL     1       0.310  10.645  19.612  0.00  0.00    +0.000 C 
ATOM     19  O   UNL     1      -0.280  11.274  18.742  0.00  0.00    +0.000 OA
ATOM     20  H   UNL     1       1.038  10.313  21.444  0.00  0.00    +0.000 HD
BRANCH  17  25
ATOM     21  C   UNL     1      -2.284  12.200  23.223  0.00  0.00    +0.000 A 
ATOM     22  C   UNL     1      -1.909  13.529  23.382  0.00  0.00    +0.000 A 
ATOM     23  C   UNL     1      -0.787  14.027  22.725  0.00  0.00    +0.000 A 
ATOM     24  C   UNL     1      -0.021  13.207  21.885  0.00  0.00    +0.000 A 
ATOM     25  C   UNL     1      -0.357  11.844  21.752  0.00  0.00    +0.000 A 
ATOM     26  C   UNL     1      -1.509  11.364  22.414  0.00  0.00    +0.000 A 
BRANCH  21  28
ATOM     27  C   UNL     1      -4.356  12.888  24.171  0.00  0.00    +0.000 C 
ATOM     28  O   UNL     1      -3.417  11.857  23.906  0.00  0.00    +0.000 OA
ENDBRANCH  21  28
BRANCH  24  29
ATOM     29  O   UNL     1       1.031  13.700  21.170  0.00  0.00    +0.000 OA
ATOM     30  C   UNL     1       1.769  14.780  21.722  0.00  0.00    +0.000 C 
ENDBRANCH  24  29
ENDBRANCH  17  25
ENDBRANCH   1  18
TORSDOF 6
ENDMDL
MODEL 9
REMARK VINA RESULT:      -7.3      4.821      7.988
REMARK  Name = 
REMARK  10 active torsions:
REMARK  status: ('A' for Active; 'I' for Inactive)
REMARK    1  A    between atoms: C_1  and  O_2
REMARK    2  A    between atoms: O_2  and  C_3
REMARK    3  A    between atoms: C_6  and  O_7
REMARK    4  A    between atoms: O_7  and  C_8
REMARK    5  A    between atoms: C_9  and  N_10
REMARK    6  A    between atoms: C_11  and  C_13
REMARK    7  A    between atoms: C_15  and  C_16
REMARK    8  A    between atoms: C_18  and  C_19
REMARK    9  A    between atoms: C_20  and  C_21
REMARK   10  A    between atoms: C_23  and  O_24
REMARK                            x       y       z     vdW  Elec       q    Type
REMARK                         _______ _______ _______ _____ _____    ______ ____
ROOT
ATOM      1  C   UNL     1       2.492   8.054  18.148  0.00  0.00    +0.000 A 
ATOM      2  C   UNL     1       1.536   8.308  19.169  0.00  0.00    +0.000 A 
ATOM      3  C   UNL     1       1.060   9.585  18.951  0.00  0.00    +0.000 A 
ATOM      4  N   UNL     1       1.695   9.984  17.800  0.00  0.00    +0.000 N 
ATOM      5  N   UNL     1       2.570   9.093  17.291  0.00  0.00    +0.000 NA
ATOM      6  H   UNL     1       1.572  10.882  17.341  0.00  0.00    +0.000 HD
ENDROOT
BRANCH   3   7
ATOM      7  C   UNL     1       0.140  10.448  19.709  0.00  0.00    +0.000 A 
ATOM      8  C   UNL     1      -0.065  10.225  21.082  0.00  0.00    +0.000 A 
ATOM      9  C   UNL     1      -0.903  11.050  21.861  0.00  0.00    +0.000 A 
ATOM     10  C   UNL     1      -1.111  10.712  23.313  0.00  0.00    +0.000 C 
ATOM     11  C   UNL     1      -1.532  12.154  21.259  0.00  0.00    +0.000 A 
ATOM     12  C   UNL     1      -2.393  13.128  22.016  0.00  0.00    +0.000 C 
ATOM     13  C   UNL     1      -1.357  12.369  19.883  0.00  0.00    +0.000 A 
ATOM     14  C   UNL     1      -0.542  11.525  19.122  0.00  0.00    +0.000 A 
BRANCH  14  15
ATOM     15  O   UNL     1      -0.410  11.771  17.776  0.00  0.00    +0.000 OA
ATOM     16  H   UNL     1       0.529  11.954  17.594  0.00  0.00    +0.000 HD
ENDBRANCH  14  15
ENDBRANCH   3   7
BRANCH   1  18
ATOM     17  N   UNL     1       4.287   6.968  17.033  0.00  0.00    +0.000 N 
ATOM     18  C   UNL     1       3.342   6.849  18.033  0.00  0.00    +0.000 C 
ATOM     19  O   UNL     1       3.193   5.933  18.833  0.00  0.00    +0.000 OA
ATOM     20  H   UNL     1       4.295   7.902  16.627  0.00  0.00    +0.000 HD
BRANCH  17  25
ATOM     21  C   UNL     1       5.912   4.501  14.809  0.00  0.00    +0.000 A 
ATOM     22  C   UNL     1       7.095   4.218  15.481  0.00  0.00    +0.000 A 
ATOM     23  C   UNL     1       7.373   4.823  16.705  0.00  0.00    +0.000 A 
ATOM     24  C   UNL     1       6.465   5.719  17.287  0.00  0.00    +0.000 A 
ATOM     25  C   UNL     1       5.283   6.056  16.596  0.00  0.00    +0.000 A 
ATOM     26  C   UNL     1       5.014   5.417  15.365  0.00  0.00    +0.000 A 
BRANCH  21  28
ATOM     27  C   UNL     1       6.777   3.974  12.655  0.00  0.00    +0.000 C 
ATOM     28  O   UNL     1       5.762   3.818  13.636  0.00  0.00    +0.000 OA
ENDBRANCH  21  28
BRANCH  24  29
ATOM     29  O   UNL     1       6.683   6.255  18.522  0.00  0.00    +0.000 OA
ATOM     30  C   UNL     1       7.755   5.739  19.297  0.00  0.00    +0.000 C 
ENDBRANCH  24  29
ENDBRANCH  17  25
ENDBRANCH   1  18
TORSDOF 6
ENDMDL
