MODEL 1
REMARK VINA RESULT:      -7.5      0.000      0.000
REMARK  Name = 
REMARK  6 active torsions:
REMARK  status: ('A' for Active; 'I' for Inactive)
REMARK    1  A    between atoms: C_1  and  N_2
REMARK    2  A    between atoms: C_5  and  C_6
REMARK    3  A    between atoms: C_6  and  N_7
REMARK    4  A    between atoms: C_10  and  C_11
REMARK    5  A    between atoms: C_11  and  C_12
REMARK    6  A    between atoms: N_14  and  C_15
REMARK                            x       y       z     vdW  Elec       q    Type
REMARK                         _______ _______ _______ _____ _____    ______ ____
ROOT
ATOM      1  N   UNL     1       1.645   6.165  19.765  0.00  0.00    +0.000 NA
ATOM      2  C   UNL     1       2.090   5.526  18.513  0.00  0.00    +0.000 C 
ATOM      3  C   UNL     1       1.538   4.106  18.369  0.00  0.00    +0.000 C 
ATOM      4  C   UNL     1       1.908   3.206  19.553  0.00  0.00    +0.000 C 
ATOM      5  C   UNL     1       1.458   3.909  20.842  0.00  0.00    +0.000 C 
ATOM      6  C   UNL     1       1.968   5.350  20.945  0.00  0.00    +0.000 C 
ENDROOT
BRANCH   1   7
ATOM      7  C   UNL     1       2.262   7.504  19.917  0.00  0.00    +0.000 C 
BRANCH   7  12
ATOM      8  C   UNL     1      -1.199  11.501  22.182  0.00  0.00    +0.000 C 
ATOM      9  N   UNL     1      -0.329  10.485  21.624  0.00  0.00    +0.000 N 
ATOM     10  C   UNL     1      -0.194  10.359  20.254  0.00  0.00    +0.000 A 
ATOM     11  C   UNL     1       0.618   9.438  19.718  0.00  0.00    +0.000 A 
ATOM     12  C   UNL     1       1.380   8.545  20.569  0.00  0.00    +0.000 A 
ATOM     13  C   UNL     1       1.253   8.645  21.904  0.00  0.00    +0.000 A 
ATOM     14  C   UNL     1       0.358   9.663  22.515  0.00  0.00    +0.000 A 
ATOM     15  O   UNL     1       0.267   9.728  23.739  0.00  0.00    +0.000 OA
ENDBRANCH   7  12
ENDBRANCH   1   7
BRANCH   4  16
ATOM     16  C   UNL     1       3.406   2.840  19.597  0.00  0.00    +0.000 C 
BRANCH  16  17
ATOM     17  C   UNL     1       4.031   2.698  18.219  0.00  0.00    +0.000 C 
ATOM     18  O   UNL     1       3.734   1.775  17.468  0.00  0.00    +0.000 OA
ATOM     19  N   UNL     1       4.955   3.669  17.909  0.00  0.00    +0.000 N 
ATOM     20  H   UNL     1       4.989   4.501  18.484  0.00  0.00    +0.000 HD
BRANCH  19  21
ATOM     21  C   UNL     1       5.676   3.673  16.652  0.00  0.00    +0.000 C 
ATOM     22  C   UNL     1       4.913   4.371  15.531  0.00  0.00    +0.000 C 
ATOM     23  C   UNL     1       5.992   4.738  14.520  0.00  0.00    +0.000 C 
ATOM     24  C   UNL     1       7.285   4.901  15.317  0.00  0.00    +0.000 C 
ATOM     25  C   UNL     1       6.973   4.471  16.745  0.00  0.00    +0.000 C 
ENDBRANCH  19  21
ENDBRANCH  16  17
ENDBRANCH   4  16
TORSDOF 5
ENDMDL
MODEL 2
REMARK VINA RESULT:      -7.2      2.433      3.402
REMARK  Name = 
REMARK  6 active torsions:
REMARK  status: ('A' for Active; 'I' for Inactive)
REMARK    1  A    between atoms: C_1  and  N_2
REMARK    2  A    between atoms: C_5  and  C_6
REMARK    3  A    between atoms: C_6  and  N_7
REMARK    4  A    between atoms: C_10  and  C_11
REMARK    5  A    between atoms: C_11  and  C_12
REMARK    6  A    between atoms: N_14  and  C_15
REMARK                            x       y       z     vdW  Elec       q    Type
REMARK                         _______ _______ _______ _____ _____    ______ ____
ROOT
ATOM      1  N   UNL     1       2.248   3.795  20.346  0.00  0.00    +0.000 NA
ATOM      2  C   UNL     1       1.318   3.694  19.207  0.00  0.00    +0.000 C 
ATOM      3  C   UNL     1       1.632   2.490  18.316  0.00  0.00    +0.000 C 
ATOM      4  C   UNL     1       3.073   2.505  17.791  0.00  0.00    +0.000 C 
ATOM      5  C   UNL     1       4.016   2.638  18.995  0.00  0.00    +0.000 C 
ATOM      6  C   UNL     1       3.652   3.811  19.910  0.00  0.00    +0.000 C 
ENDROOT
BRANCH   1   7
ATOM      7  C   UNL     1       1.973   5.014  21.141  0.00  0.00    +0.000 C 
BRANCH   7  12
ATOM      8  C   UNL     1       1.713  10.021  18.322  0.00  0.00    +0.000 C 
ATOM      9  N   UNL     1       1.791   8.756  19.024  0.00  0.00    +0.000 N 
ATOM     10  C   UNL     1       1.201   8.610  20.266  0.00  0.00    +0.000 A 
ATOM     11  C   UNL     1       1.248   7.446  20.925  0.00  0.00    +0.000 A 
ATOM     12  C   UNL     1       1.923   6.300  20.347  0.00  0.00    +0.000 A 
ATOM     13  C   UNL     1       2.513   6.425  19.145  0.00  0.00    +0.000 A 
ATOM     14  C   UNL     1       2.469   7.711  18.399  0.00  0.00    +0.000 A 
ATOM     15  O   UNL     1       3.017   7.790  17.303  0.00  0.00    +0.000 OA
ENDBRANCH   7  12
ENDBRANCH   1   7
BRANCH   4  16
ATOM     16  C   UNL     1       3.329   3.607  16.742  0.00  0.00    +0.000 C 
BRANCH  16  17
ATOM     17  C   UNL     1       4.786   4.029  16.658  0.00  0.00    +0.000 C 
ATOM     18  O   UNL     1       5.636   3.314  16.138  0.00  0.00    +0.000 OA
ATOM     19  N   UNL     1       5.059   5.253  17.223  0.00  0.00    +0.000 N 
ATOM     20  H   UNL     1       4.284   5.867  17.437  0.00  0.00    +0.000 HD
BRANCH  19  21
ATOM     21  C   UNL     1       6.401   5.801  17.264  0.00  0.00    +0.000 C 
ATOM     22  C   UNL     1       6.427   7.320  17.123  0.00  0.00    +0.000 C 
ATOM     23  C   UNL     1       7.773   7.723  17.711  0.00  0.00    +0.000 C 
ATOM     24  C   UNL     1       8.129   6.650  18.738  0.00  0.00    +0.000 C 
ATOM     25  C   UNL     1       7.069   5.561  18.614  0.00  0.00    +0.000 C 
ENDBRANCH  19  21
ENDBRANCH  16  17
ENDBRANCH   4  16
TORSDOF 5
ENDMDL
MODEL 3
REMARK VINA RESULT:      -7.2      2.109      2.503
REMARK  Name = 
REMARK  6 active torsions:
REMARK  status: ('A' for Active; 'I' for Inactive)
REMARK    1  A    between atoms: C_1  and  N_2
REMARK    2  A    between atoms: C_5  and  C_6
REMARK    3  A    between atoms: C_6  and  N_7
REMARK    4  A    between atoms: C_10  and  C_11
REMARK    5  A    between atoms: C_11  and  C_12
REMARK    6  A    between atoms: N_14  and  C_15
REMARK                            x       y       z     vdW  Elec       q    Type
REMARK                         _______ _______ _______ _____ _____    ______ ____
ROOT
ATOM      1  N   UNL     1       1.537   5.252  20.162  0.00  0.00    +0.000 NA
ATOM      2  C   UNL     1       2.217   5.149  18.857  0.00  0.00    +0.000 C 
ATOM      3  C   UNL     1       1.833   3.870  18.111  0.00  0.00    +0.000 C 
ATOM      4  C   UNL     1       2.117   2.603  18.928  0.00  0.00    +0.000 C 
ATOM      5  C   UNL     1       1.420   2.750  20.288  0.00  0.00    +0.000 C 
ATOM      6  C   UNL     1       1.766   4.064  20.997  0.00  0.00    +0.000 C 
ENDROOT
BRANCH   1   7
ATOM      7  C   UNL     1       1.991   6.455  20.896  0.00  0.00    +0.000 C 
BRANCH   7  12
ATOM      8  C   UNL     1       0.265  11.540  18.835  0.00  0.00    +0.000 C 
ATOM      9  N   UNL     1       0.712  10.260  19.345  0.00  0.00    +0.000 N 
ATOM     10  C   UNL     1       0.298   9.822  20.590  0.00  0.00    +0.000 A 
ATOM     11  C   UNL     1       0.686   8.635  21.073  0.00  0.00    +0.000 A 
ATOM     12  C   UNL     1       1.557   7.774  20.296  0.00  0.00    +0.000 A 
ATOM     13  C   UNL     1       1.980   8.187  19.089  0.00  0.00    +0.000 A 
ATOM     14  C   UNL     1       1.556   9.501  18.537  0.00  0.00    +0.000 A 
ATOM     15  O   UNL     1       1.960   9.848  17.429  0.00  0.00    +0.000 OA
ENDBRANCH   7  12
ENDBRANCH   1   7
BRANCH   4  16
ATOM     16  C   UNL     1       3.622   2.304  19.088  0.00  0.00    +0.000 C 
BRANCH  16  17
ATOM     17  C   UNL     1       4.503   3.154  18.187  0.00  0.00    +0.000 C 
ATOM     18  O   UNL     1       4.432   3.086  16.964  0.00  0.00    +0.000 OA
ATOM     19  N   UNL     1       5.381   3.974  18.857  0.00  0.00    +0.000 N 
ATOM     20  H   UNL     1       5.235   4.128  19.846  0.00  0.00    +0.000 HD
BRANCH  19  21
ATOM     21  C   UNL     1       6.321   4.829  18.161  0.00  0.00    +0.000 C 
ATOM     22  C   UNL     1       5.668   6.077  17.575  0.00  0.00    +0.000 C 
ATOM     23  C   UNL     1       6.827   7.049  17.388  0.00  0.00    +0.000 C 
ATOM     24  C   UNL     1       7.873   6.673  18.436  0.00  0.00    +0.000 C 
ATOM     25  C   UNL     1       7.379   5.395  19.103  0.00  0.00    +0.000 C 
ENDBRANCH  19  21
ENDBRANCH  16  17
ENDBRANCH   4  16
TORSDOF 5
ENDMDL
MODEL 4
REMARK VINA RESULT:      -7.1      1.772      2.172
REMARK  Name = 
REMARK  6 active torsions:
REMARK  status: ('A' for Active; 'I' for Inactive)
REMARK    1  A    between atoms: C_1  and  N_2
REMARK    2  A    between atoms: C_5  and  C_6
REMARK    3  A    between atoms: C_6  and  N_7
REMARK    4  A    between atoms: C_10  and  C_11
REMARK    5  A    between atoms: C_11  and  C_12
REMARK    6  A    between atoms: N_14  and  C_15
REMARK                            x       y       z     vdW  Elec       q    Type
REMARK                         _______ _______ _______ _____ _____    ______ ____
ROOT
ATOM      1  N   UNL     1       1.699   6.093  19.766  0.00  0.00    +0.000 NA
ATOM      2  C   UNL     1       2.407   5.800  18.506  0.00  0.00    +0.000 C 
ATOM      3  C   UNL     1       1.903   4.512  17.853  0.00  0.00    +0.000 C 
ATOM      4  C   UNL     1       2.006   3.298  18.784  0.00  0.00    +0.000 C 
ATOM      5  C   UNL     1       1.284   3.643  20.094  0.00  0.00    +0.000 C 
ATOM      6  C   UNL     1       1.757   4.965  20.706  0.00  0.00    +0.000 C 
ENDROOT
BRANCH   1   7
ATOM      7  C   UNL     1       2.265   7.297  20.417  0.00  0.00    +0.000 C 
BRANCH   7  12
ATOM      8  C   UNL     1      -1.346  11.722  21.102  0.00  0.00    +0.000 C 
ATOM      9  N   UNL     1      -0.428  10.615  20.919  0.00  0.00    +0.000 N 
ATOM     10  C   UNL     1      -0.220   9.706  21.940  0.00  0.00    +0.000 A 
ATOM     11  C   UNL     1       0.611   8.667  21.785  0.00  0.00    +0.000 A 
ATOM     12  C   UNL     1       1.316   8.469  20.534  0.00  0.00    +0.000 A 
ATOM     13  C   UNL     1       1.136   9.350  19.534  0.00  0.00    +0.000 A 
ATOM     14  C   UNL     1       0.216  10.507  19.688  0.00  0.00    +0.000 A 
ATOM     15  O   UNL     1       0.073  11.292  18.754  0.00  0.00    +0.000 OA
ENDBRANCH   7  12
ENDBRANCH   1   7
BRANCH   4  16
ATOM     16  C   UNL     1       3.459   2.844  19.036  0.00  0.00    +0.000 C 
BRANCH  16  17
ATOM     17  C   UNL     1       4.475   3.566  18.166  0.00  0.00    +0.000 C 
ATOM     18  O   UNL     1       4.530   3.386  16.954  0.00  0.00    +0.000 OA
ATOM     19  N   UNL     1       5.319   4.407  18.853  0.00  0.00    +0.000 N 
ATOM     20  H   UNL     1       5.077   4.660  19.802  0.00  0.00    +0.000 HD
BRANCH  19  21
ATOM     21  C   UNL     1       6.372   5.152  18.190  0.00  0.00    +0.000 C 
ATOM     22  C   UNL     1       5.867   6.425  17.519  0.00  0.00    +0.000 C 
ATOM     23  C   UNL     1       7.115   7.287  17.375  0.00  0.00    +0.000 C 
ATOM     24  C   UNL     1       8.056   6.868  18.502  0.00  0.00    +0.000 C 
ATOM     25  C   UNL     1       7.412   5.664  19.181  0.00  0.00    +0.000 C 
ENDBRANCH  19  21
ENDBRANCH  16  17
ENDBRANCH   4  16
TORSDOF 5
ENDMDL
MODEL 5
REMARK VINA RESULT:      -7.1      2.623      4.178
REMARK  Name = 
REMARK  6 active torsions:
REMARK  status: ('A' for Active; 'I' for Inactive)
REMARK    1  A    between atoms: C_1  and  N_2
REMARK    2  A    between atoms: C_5  and  C_6
REMARK    3  A    between atoms: C_6  and  N_7
REMARK    4  A    between atoms: C_10  and  C_11
REMARK    5  A    between atoms: C_11  and  C_12
REMARK    6  A    between atoms: N_14  and  C_15
REMARK                            x       y       z     vdW  Elec       q    Type
REMARK                         _______ _______ _______ _____ _____    ______ ____
ROOT
ATOM      1  N   UNL     1       4.591   6.569  18.262  0.00  0.00    +0.000 NA
ATOM      2  C   UNL     1       5.360   5.508  18.938  0.00  0.00    +0.000 C 
ATOM      3  C   UNL     1       6.868   5.684  18.748  0.00  0.00    +0.000 C 
ATOM      4  C   UNL     1       7.274   5.737  17.271  0.00  0.00    +0.000 C 
ATOM      5  C   UNL     1       6.439   6.831  16.588  0.00  0.00    +0.000 C 
ATOM      6  C   UNL     1       4.936   6.675  16.837  0.00  0.00    +0.000 C 
ENDROOT
BRANCH   1   7
ATOM      7  C   UNL     1       3.136   6.325  18.392  0.00  0.00    +0.000 C 
BRANCH   7  12
ATOM      8  C   UNL     1       0.039  10.837  20.163  0.00  0.00    +0.000 C 
ATOM      9  N   UNL     1       0.813   9.691  19.728  0.00  0.00    +0.000 N 
ATOM     10  C   UNL     1       1.239   9.595  18.416  0.00  0.00    +0.000 A 
ATOM     11  C   UNL     1       1.969   8.554  17.998  0.00  0.00    +0.000 A 
ATOM     12  C   UNL     1       2.334   7.494  18.918  0.00  0.00    +0.000 A 
ATOM     13  C   UNL     1       1.919   7.564  20.195  0.00  0.00    +0.000 A 
ATOM     14  C   UNL     1       1.109   8.714  20.677  0.00  0.00    +0.000 A 
ATOM     15  O   UNL     1       0.748   8.748  21.851  0.00  0.00    +0.000 OA
ENDBRANCH   7  12
ENDBRANCH   1   7
BRANCH   4  16
ATOM     16  C   UNL     1       7.134   4.380  16.550  0.00  0.00    +0.000 C 
BRANCH  16  17
ATOM     17  C   UNL     1       7.082   4.506  15.036  0.00  0.00    +0.000 C 
ATOM     18  O   UNL     1       7.792   5.301  14.430  0.00  0.00    +0.000 OA
ATOM     19  N   UNL     1       6.170   3.676  14.426  0.00  0.00    +0.000 N 
ATOM     20  H   UNL     1       5.781   2.912  14.963  0.00  0.00    +0.000 HD
BRANCH  19  21
ATOM     21  C   UNL     1       5.960   3.684  12.992  0.00  0.00    +0.000 C 
ATOM     22  C   UNL     1       6.452   2.411  12.312  0.00  0.00    +0.000 C 
ATOM     23  C   UNL     1       5.689   2.376  10.994  0.00  0.00    +0.000 C 
ATOM     24  C   UNL     1       4.382   3.128  11.237  0.00  0.00    +0.000 C 
ATOM     25  C   UNL     1       4.477   3.723  12.637  0.00  0.00    +0.000 C 
ENDBRANCH  19  21
ENDBRANCH  16  17
ENDBRANCH   4  16
TORSDOF 5
ENDMDL
MODEL 6
REMARK VINA RESULT:      -7.1      3.751      5.720
REMARK  Name = 
REMARK  6 active torsions:
REMARK  status: ('A' for Active; 'I' for Inactive)
REMARK    1  A    between atoms: C_1  and  N_2
REMARK    2  A    between atoms: C_5  and  C_6
REMARK    3  A    between atoms: C_6  and  N_7
REMARK    4  A    between atoms: C_10  and  C_11
REMARK    5  A    between atoms: C_11  and  C_12
REMARK    6  A    between atoms: N_14  and  C_15
REMARK                            x       y       z     vdW  Elec       q    Type
REMARK                         _______ _______ _______ _____ _____    ______ ____
ROOT
ATOM      1  N   UNL     1       4.428   6.550  17.854  0.00  0.00    +0.000 NA
ATOM      2  C   UNL     1       5.189   5.546  18.620  0.00  0.00    +0.000 C 
ATOM      3  C   UNL     1       6.696   5.803  18.561  0.00  0.00    +0.000 C 
ATOM      4  C   UNL     1       7.230   5.851  17.124  0.00  0.00    +0.000 C 
ATOM      5  C   UNL     1       6.402   6.883  16.345  0.00  0.00    +0.000 C 
ATOM      6  C   UNL     1       4.893   6.649  16.463  0.00  0.00    +0.000 C 
ENDROOT
BRANCH   1   7
ATOM      7  C   UNL     1       2.982   6.228  17.860  0.00  0.00    +0.000 C 
BRANCH   7  12
ATOM      8  C   UNL     1       1.342   2.407  21.834  0.00  0.00    +0.000 C 
ATOM      9  N   UNL     1       1.748   3.361  20.822  0.00  0.00    +0.000 N 
ATOM     10  C   UNL     1       2.023   4.671  21.169  0.00  0.00    +0.000 A 
ATOM     11  C   UNL     1       2.415   5.565  20.252  0.00  0.00    +0.000 A 
ATOM     12  C   UNL     1       2.563   5.177  18.863  0.00  0.00    +0.000 A 
ATOM     13  C   UNL     1       2.290   3.910  18.504  0.00  0.00    +0.000 A 
ATOM     14  C   UNL     1       1.855   2.905  19.510  0.00  0.00    +0.000 A 
ATOM     15  O   UNL     1       1.615   1.756  19.148  0.00  0.00    +0.000 OA
ENDBRANCH   7  12
ENDBRANCH   1   7
BRANCH   4  16
ATOM     16  C   UNL     1       7.229   4.475  16.426  0.00  0.00    +0.000 C 
BRANCH  16  17
ATOM     17  C   UNL     1       7.128   4.569  14.912  0.00  0.00    +0.000 C 
ATOM     18  O   UNL     1       7.752   5.411  14.275  0.00  0.00    +0.000 OA
ATOM     19  N   UNL     1       6.274   3.655  14.340  0.00  0.00    +0.000 N 
ATOM     20  H   UNL     1       5.965   2.870  14.899  0.00  0.00    +0.000 HD
BRANCH  19  21
ATOM     21  C   UNL     1       6.028   3.619  12.912  0.00  0.00    +0.000 C 
ATOM     22  C   UNL     1       6.358   2.269  12.285  0.00  0.00    +0.000 C 
ATOM     23  C   UNL     1       5.561   2.258  10.987  0.00  0.00    +0.000 C 
ATOM     24  C   UNL     1       4.351   3.161  11.221  0.00  0.00    +0.000 C 
ATOM     25  C   UNL     1       4.549   3.806  12.588  0.00  0.00    +0.000 C 
ENDBRANCH  19  21
ENDBRANCH  16  17
ENDBRANCH   4  16
TORSDOF 5
ENDMDL
MODEL 7
REMARK VINA RESULT:      -7.1      1.113      1.476
REMARK  Name = 
REMARK  6 active torsions:
REMARK  status: ('A' for Active; 'I' for Inactive)
REMARK    1  A    between atoms: C_1  and  N_2
REMARK    2  A    between atoms: C_5  and  C_6
REMARK    3  A    between atoms: C_6  and  N_7
REMARK    4  A    between atoms: C_10  and  C_11
REMARK    5  A    between atoms: C_11  and  C_12
REMARK    6  A    between atoms: N_14  and  C_15
REMARK                            x       y       z     vdW  Elec       q    Type
REMARK                         _______ _______ _______ _____ _____    ______ ____
ROOT
ATOM      1  N   UNL     1       1.659   6.038  19.719  0.00  0.00    +0.000 NA
ATOM      2  C   UNL     1       2.111   5.387  18.476  0.00  0.00    +0.000 C 
ATOM      3  C   UNL     1       1.510   3.989  18.311  0.00  0.00    +0.000 C 
ATOM      4  C   UNL     1       1.818   3.072  19.501  0.00  0.00    +0.000 C 
ATOM      5  C   UNL     1       1.362   3.786  20.781  0.00  0.00    +0.000 C 
ATOM      6  C   UNL     1       1.923   5.207  20.902  0.00  0.00    +0.000 C 
ENDROOT
BRANCH   1   7
ATOM      7  C   UNL     1       2.321   7.352  19.892  0.00  0.00    +0.000 C 
BRANCH   7  12
ATOM      8  C   UNL     1      -1.161  11.666  21.422  0.00  0.00    +0.000 C 
ATOM      9  N   UNL     1      -0.278  10.588  21.025  0.00  0.00    +0.000 N 
ATOM     10  C   UNL     1       0.133   9.647  21.951  0.00  0.00    +0.000 A 
ATOM     11  C   UNL     1       0.936   8.633  21.601  0.00  0.00    +0.000 A 
ATOM     12  C   UNL     1       1.394   8.497  20.232  0.00  0.00    +0.000 A 
ATOM     13  C   UNL     1       1.014   9.409  19.320  0.00  0.00    +0.000 A 
ATOM     14  C   UNL     1       0.122  10.539  19.691  0.00  0.00    +0.000 A 
ATOM     15  O   UNL     1      -0.208  11.353  18.833  0.00  0.00    +0.000 OA
ENDBRANCH   7  12
ENDBRANCH   1   7
BRANCH   4  16
ATOM     16  C   UNL     1       3.300   2.650  19.580  0.00  0.00    +0.000 C 
BRANCH  16  17
ATOM     17  C   UNL     1       3.975   2.568  18.221  0.00  0.00    +0.000 C 
ATOM     18  O   UNL     1       3.733   1.658  17.434  0.00  0.00    +0.000 OA
ATOM     19  N   UNL     1       4.876   3.576  17.970  0.00  0.00    +0.000 N 
ATOM     20  H   UNL     1       4.864   4.391  18.568  0.00  0.00    +0.000 HD
BRANCH  19  21
ATOM     21  C   UNL     1       5.639   3.639  16.739  0.00  0.00    +0.000 C 
ATOM     22  C   UNL     1       4.888   4.336  15.609  0.00  0.00    +0.000 C 
ATOM     23  C   UNL     1       5.985   4.769  14.646  0.00  0.00    +0.000 C 
ATOM     24  C   UNL     1       7.244   4.960  15.490  0.00  0.00    +0.000 C 
ATOM     25  C   UNL     1       6.900   4.482  16.896  0.00  0.00    +0.000 C 
ENDBRANCH  19  21
ENDBRANCH  16  17
ENDBRANCH   4  16
TORSDOF 5
ENDMDL
MODEL 8
REMARK VINA RESULT:      -7.0      2.134      3.273
REMARK  Name = 
REMARK  6 active torsions:
REMARK  status: ('A' for Active; 'I' for Inactive)
REMARK    1  A    between atoms: C_1  and  N_2
REMARK    2  A    between atoms: C_5  and  C_6
REMARK    3  A    between atoms: C_6  and  N_7
REMARK    4  A    between atoms: C_10  and  C_11
REMARK    5  A    between atoms: C_11  and  C_12
REMARK    6  A    between atoms: N_14  and  C_15
REMARK                            x       y       z     vdW  Elec       q    Type
REMARK                         _______ _______ _______ _____ _____    ______ ____
ROOT
ATOM      1  N   UNL     1       2.293   3.589  20.246  0.00  0.00    +0.000 NA
ATOM      2  C   UNL     1       1.478   3.337  19.044  0.00  0.00    +0.000 C 
ATOM      3  C   UNL     1       2.051   2.203  18.191  0.00  0.00    +0.000 C 
ATOM      4  C   UNL     1       3.504   2.456  17.772  0.00  0.00    +0.000 C 
ATOM      5  C   UNL     1       4.321   2.741  19.040  0.00  0.00    +0.000 C 
ATOM      6  C   UNL     1       3.703   3.837  19.914  0.00  0.00    +0.000 C 
ENDROOT
BRANCH   1   7
ATOM      7  C   UNL     1       1.763   4.745  21.006  0.00  0.00    +0.000 C 
BRANCH   7  12
ATOM      8  C   UNL     1       2.037   9.670  18.048  0.00  0.00    +0.000 C 
ATOM      9  N   UNL     1       1.957   8.435  18.802  0.00  0.00    +0.000 N 
ATOM     10  C   UNL     1       2.353   7.241  18.228  0.00  0.00    +0.000 A 
ATOM     11  C   UNL     1       2.302   6.091  18.913  0.00  0.00    +0.000 A 
ATOM     12  C   UNL     1       1.828   6.071  20.283  0.00  0.00    +0.000 A 
ATOM     13  C   UNL     1       1.427   7.221  20.854  0.00  0.00    +0.000 A 
ATOM     14  C   UNL     1       1.479   8.506  20.109  0.00  0.00    +0.000 A 
ATOM     15  O   UNL     1       1.107   9.539  20.662  0.00  0.00    +0.000 OA
ENDBRANCH   7  12
ENDBRANCH   1   7
BRANCH   4  16
ATOM     16  C   UNL     1       3.651   3.587  16.733  0.00  0.00    +0.000 C 
BRANCH  16  17
ATOM     17  C   UNL     1       5.071   4.115  16.616  0.00  0.00    +0.000 C 
ATOM     18  O   UNL     1       5.946   3.490  16.026  0.00  0.00    +0.000 OA
ATOM     19  N   UNL     1       5.283   5.324  17.237  0.00  0.00    +0.000 N 
ATOM     20  H   UNL     1       4.477   5.869  17.514  0.00  0.00    +0.000 HD
BRANCH  19  21
ATOM     21  C   UNL     1       6.584   5.963  17.258  0.00  0.00    +0.000 C 
ATOM     22  C   UNL     1       6.505   7.477  17.093  0.00  0.00    +0.000 C 
ATOM     23  C   UNL     1       7.825   7.981  17.663  0.00  0.00    +0.000 C 
ATOM     24  C   UNL     1       8.262   6.950  18.703  0.00  0.00    +0.000 C 
ATOM     25  C   UNL     1       7.278   5.790  18.605  0.00  0.00    +0.000 C 
ENDBRANCH  19  21
ENDBRANCH  16  17
ENDBRANCH   4  16
TORSDOF 5
ENDMDL
MODEL 9
REMARK VINA RESULT:      -6.9      2.241      7.556
REMARK  Name = 
REMARK  6 active torsions:
REMARK  status: ('A' for Active; 'I' for Inactive)
REMARK    1  A    between atoms: C_1  and  N_2
REMARK    2  A    between atoms: C_5  and  C_6
REMARK    3  A    between atoms: C_6  and  N_7
REMARK    4  A    between atoms: C_10  and  C_11
REMARK    5  A    between atoms: C_11  and  C_12
REMARK    6  A    between atoms: N_14  and  C_15
REMARK                            x       y       z     vdW  Elec       q    Type
REMARK                         _______ _______ _______ _____ _____    ______ ____
ROOT
ATOM      1  N   UNL     1       2.965   3.110  17.814  0.00  0.00    +0.000 NA
ATOM      2  C   UNL     1       2.851   2.612  19.197  0.00  0.00    +0.000 C 
ATOM      3  C   UNL     1       1.483   2.926  19.808  0.00  0.00    +0.000 C 
ATOM      4  C   UNL     1       1.156   4.424  19.783  0.00  0.00    +0.000 C 
ATOM      5  C   UNL     1       1.309   4.919  18.337  0.00  0.00    +0.000 C 
ATOM      6  C   UNL     1       2.660   4.545  17.719  0.00  0.00    +0.000 C 
ENDROOT
BRANCH   1   7
ATOM      7  C   UNL     1       4.325   2.866  17.280  0.00  0.00    +0.000 C 
BRANCH   7  12
ATOM      8  C   UNL     1       8.065   7.110  18.317  0.00  0.00    +0.000 C 
ATOM      9  N   UNL     1       7.130   6.037  18.043  0.00  0.00    +0.000 N 
ATOM     10  C   UNL     1       6.422   5.450  19.074  0.00  0.00    +0.000 A 
ATOM     11  C   UNL     1       5.541   4.468  18.841  0.00  0.00    +0.000 A 
ATOM     12  C   UNL     1       5.308   3.996  17.490  0.00  0.00    +0.000 A 
ATOM     13  C   UNL     1       5.996   4.546  16.475  0.00  0.00    +0.000 A 
ATOM     14  C   UNL     1       6.976   5.639  16.717  0.00  0.00    +0.000 A 
ATOM     15  O   UNL     1       7.587   6.121  15.766  0.00  0.00    +0.000 OA
ENDBRANCH   7  12
ENDBRANCH   1   7
BRANCH   4  16
ATOM     16  C   UNL     1       2.013   5.253  20.762  0.00  0.00    +0.000 C 
BRANCH  16  17
ATOM     17  C   UNL     1       1.901   6.752  20.538  0.00  0.00    +0.000 C 
ATOM     18  O   UNL     1       2.494   7.314  19.623  0.00  0.00    +0.000 OA
ATOM     19  N   UNL     1       1.106   7.407  21.449  0.00  0.00    +0.000 N 
ATOM     20  H   UNL     1       0.492   6.856  22.035  0.00  0.00    +0.000 HD
BRANCH  19  21
ATOM     21  C   UNL     1       0.911   8.843  21.411  0.00  0.00    +0.000 C 
ATOM     22  C   UNL     1      -0.175   9.269  20.429  0.00  0.00    +0.000 C 
ATOM     23  C   UNL     1      -0.587  10.654  20.910  0.00  0.00    +0.000 C 
ATOM     24  C   UNL     1      -0.306  10.686  22.411  0.00  0.00    +0.000 C 
ATOM     25  C   UNL     1       0.410   9.383  22.746  0.00  0.00    +0.000 C 
ENDBRANCH  19  21
ENDBRANCH  16  17
ENDBRANCH   4  16
TORSDOF 5
ENDMDL
