MODEL 1
REMARK VINA RESULT:      -7.9      0.000      0.000
REMARK  Name = 
REMARK  4 active torsions:
REMARK  status: ('A' for Active; 'I' for Inactive)
REMARK    1  A    between atoms: C_1  and  C_2
REMARK    2  A    between atoms: C_2  and  C_4
REMARK    3  A    between atoms: C_5  and  O_6
REMARK    4  A    between atoms: N_13  and  C_14
REMARK                            x       y       z     vdW  Elec       q    Type
REMARK                         _______ _______ _______ _____ _____    ______ ____
ROOT
ATOM      1  C   UNL     1       5.398   5.085  17.143  0.00  0.00    +0.000 A 
ATOM      2  C   UNL     1       4.909   6.291  16.816  0.00  0.00    +0.000 A 
ATOM      3  C   UNL     1       3.823   6.893  17.599  0.00  0.00    +0.000 A 
ATOM      4  C   UNL     1       3.311   8.154  17.221  0.00  0.00    +0.000 A 
ATOM      5  C   UNL     1       2.346   8.796  17.983  0.00  0.00    +0.000 A 
ATOM      6  C   UNL     1       1.905   8.199  19.153  0.00  0.00    +0.000 A 
ATOM      7  C   UNL     1       2.412   6.953  19.541  0.00  0.00    +0.000 A 
ATOM      8  C   UNL     1       3.340   6.244  18.754  0.00  0.00    +0.000 A 
ATOM      9  N   UNL     1       3.821   4.914  19.081  0.00  0.00    +0.000 N 
ATOM     10  C   UNL     1       4.856   4.361  18.319  0.00  0.00    +0.000 A 
ATOM     11  O   UNL     1       5.419   3.302  18.586  0.00  0.00    +0.000 OA
ENDROOT
BRANCH   9  12
ATOM     12  C   UNL     1       3.369   4.255  20.368  0.00  0.00    +0.000 C 
ATOM     13  C   UNL     1       1.989   4.690  20.926  0.00  0.00    +0.000 C 
ATOM     14  C   UNL     1       0.784   4.032  20.266  0.00  0.00    +0.000 C 
ATOM     15  C   UNL     1       0.865   2.513  20.241  0.00  0.00    +0.000 C 
ATOM     16  C   UNL     1       2.212   2.011  19.751  0.00  0.00    +0.000 C 
ATOM     17  C   UNL     1       3.396   2.701  20.445  0.00  0.00    +0.000 C 
ENDBRANCH   9  12
BRANCH   1  19
ATOM     18  C   UNL     1       6.250   3.836  15.009  0.00  0.00    +0.000 C 
ATOM     19  C   UNL     1       6.530   4.532  16.317  0.00  0.00    +0.000 C 
ATOM     20  O   UNL     1       7.697   4.681  16.702  0.00  0.00    +0.000 OA
ENDBRANCH   1  19
BRANCH   2  21
ATOM     21  O   UNL     1       5.394   7.074  15.784  0.00  0.00    +0.000 OA
ATOM     22  H   UNL     1       5.189   6.633  14.931  0.00  0.00    +0.000 HD
ENDBRANCH   2  21
TORSDOF 3
ENDMDL
MODEL 2
REMARK VINA RESULT:      -7.3      2.012      4.213
REMARK  Name = 
REMARK  4 active torsions:
REMARK  status: ('A' for Active; 'I' for Inactive)
REMARK    1  A    between atoms: C_1  and  C_2
REMARK    2  A    between atoms: C_2  and  C_4
REMARK    3  A    between atoms: C_5  and  O_6
REMARK    4  A    between atoms: N_13  and  C_14
REMARK                            x       y       z     vdW  Elec       q    Type
REMARK                         _______ _______ _______ _____ _____    ______ ____
ROOT
ATOM      1  C   UNL     1       2.575   6.983  18.770  0.00  0.00    +0.000 A 
ATOM      2  C   UNL     1       3.401   7.274  17.754  0.00  0.00    +0.000 A 
ATOM      3  C   UNL     1       4.175   6.215  17.095  0.00  0.00    +0.000 A 
ATOM      4  C   UNL     1       5.056   6.551  16.043  0.00  0.00    +0.000 A 
ATOM      5  C   UNL     1       5.739   5.571  15.338  0.00  0.00    +0.000 A 
ATOM      6  C   UNL     1       5.525   4.240  15.655  0.00  0.00    +0.000 A 
ATOM      7  C   UNL     1       4.649   3.896  16.691  0.00  0.00    +0.000 A 
ATOM      8  C   UNL     1       3.994   4.868  17.471  0.00  0.00    +0.000 A 
ATOM      9  N   UNL     1       3.146   4.550  18.606  0.00  0.00    +0.000 N 
ATOM     10  C   UNL     1       2.419   5.577  19.219  0.00  0.00    +0.000 A 
ATOM     11  O   UNL     1       1.583   5.399  20.101  0.00  0.00    +0.000 OA
ENDROOT
BRANCH   9  12
ATOM     12  C   UNL     1       2.881   3.100  18.953  0.00  0.00    +0.000 C 
ATOM     13  C   UNL     1       3.522   2.568  20.262  0.00  0.00    +0.000 C 
ATOM     14  C   UNL     1       2.776   2.922  21.542  0.00  0.00    +0.000 C 
ATOM     15  C   UNL     1       1.304   2.541  21.507  0.00  0.00    +0.000 C 
ATOM     16  C   UNL     1       0.618   2.986  20.227  0.00  0.00    +0.000 C 
ATOM     17  C   UNL     1       1.405   2.606  18.964  0.00  0.00    +0.000 C 
ENDBRANCH   9  12
BRANCH   1  19
ATOM     18  C   UNL     1       1.605   8.180  20.883  0.00  0.00    +0.000 C 
ATOM     19  C   UNL     1       1.787   8.109  19.388  0.00  0.00    +0.000 C 
ATOM     20  O   UNL     1       1.318   8.997  18.664  0.00  0.00    +0.000 OA
ENDBRANCH   1  19
BRANCH   2  21
ATOM     21  O   UNL     1       3.561   8.539  17.218  0.00  0.00    +0.000 OA
ATOM     22  H   UNL     1       3.602   8.464  16.240  0.00  0.00    +0.000 HD
ENDBRANCH   2  21
TORSDOF 3
ENDMDL
MODEL 3
REMARK VINA RESULT:      -7.2      0.944      1.635
REMARK  Name = 
REMARK  4 active torsions:
REMARK  status: ('A' for Active; 'I' for Inactive)
REMARK    1  A    between atoms: C_1  and  C_2
REMARK    2  A    between atoms: C_2  and  C_4
REMARK    3  A    between atoms: C_5  and  O_6
REMARK    4  A    between atoms: N_13  and  C_14
REMARK                            x       y       z     vdW  Elec       q    Type
REMARK                         _______ _______ _______ _____ _____    ______ ____
ROOT
ATOM      1  C   UNL     1       5.137   4.869  16.631  0.00  0.00    +0.000 A 
ATOM      2  C   UNL     1       4.975   6.197  16.723  0.00  0.00    +0.000 A 
ATOM      3  C   UNL     1       3.792   6.760  17.385  0.00  0.00    +0.000 A 
ATOM      4  C   UNL     1       3.633   8.163  17.448  0.00  0.00    +0.000 A 
ATOM      5  C   UNL     1       2.576   8.735  18.140  0.00  0.00    +0.000 A 
ATOM      6  C   UNL     1       1.681   7.913  18.805  0.00  0.00    +0.000 A 
ATOM      7  C   UNL     1       1.834   6.523  18.754  0.00  0.00    +0.000 A 
ATOM      8  C   UNL     1       2.855   5.908  18.004  0.00  0.00    +0.000 A 
ATOM      9  N   UNL     1       2.992   4.470  17.859  0.00  0.00    +0.000 N 
ATOM     10  C   UNL     1       4.127   3.957  17.223  0.00  0.00    +0.000 A 
ATOM     11  O   UNL     1       4.401   2.761  17.158  0.00  0.00    +0.000 OA
ENDROOT
BRANCH   9  12
ATOM     12  C   UNL     1       2.038   3.554  18.598  0.00  0.00    +0.000 C 
ATOM     13  C   UNL     1       2.623   2.218  19.126  0.00  0.00    +0.000 C 
ATOM     14  C   UNL     1       3.401   2.320  20.432  0.00  0.00    +0.000 C 
ATOM     15  C   UNL     1       2.624   3.009  21.544  0.00  0.00    +0.000 C 
ATOM     16  C   UNL     1       1.978   4.304  21.086  0.00  0.00    +0.000 C 
ATOM     17  C   UNL     1       1.204   4.152  19.768  0.00  0.00    +0.000 C 
ENDBRANCH   9  12
BRANCH   1  19
ATOM     18  C   UNL     1       6.335   3.847  14.542  0.00  0.00    +0.000 C 
ATOM     19  C   UNL     1       6.384   4.352  15.962  0.00  0.00    +0.000 C 
ATOM     20  O   UNL     1       7.460   4.375  16.574  0.00  0.00    +0.000 OA
ENDBRANCH   1  19
BRANCH   2  21
ATOM     21  O   UNL     1       5.892   7.128  16.266  0.00  0.00    +0.000 OA
ATOM     22  H   UNL     1       5.447   8.000  16.196  0.00  0.00    +0.000 HD
ENDBRANCH   2  21
TORSDOF 3
ENDMDL
MODEL 4
REMARK VINA RESULT:      -7.1      2.212      4.277
REMARK  Name = 
REMARK  4 active torsions:
REMARK  status: ('A' for Active; 'I' for Inactive)
REMARK    1  A    between atoms: C_1  and  C_2
REMARK    2  A    between atoms: C_2  and  C_4
REMARK    3  A    between atoms: C_5  and  O_6
REMARK    4  A    between atoms: N_13  and  C_14
REMARK                            x       y       z     vdW  Elec       q    Type
REMARK                         _______ _______ _______ _____ _____    ______ ____
ROOT
ATOM      1  C   UNL     1       2.276   7.543  19.262  0.00  0.00    +0.000 A 
ATOM      2  C   UNL     1       2.958   7.809  18.139  0.00  0.00    +0.000 A 
ATOM      3  C   UNL     1       3.823   6.791  17.532  0.00  0.00    +0.000 A 
ATOM      4  C   UNL     1       4.549   7.104  16.361  0.00  0.00    +0.000 A 
ATOM      5  C   UNL     1       5.309   6.145  15.709  0.00  0.00    +0.000 A 
ATOM      6  C   UNL     1       5.328   4.850  16.202  0.00  0.00    +0.000 A 
ATOM      7  C   UNL     1       4.606   4.528  17.357  0.00  0.00    +0.000 A 
ATOM      8  C   UNL     1       3.882   5.494  18.082  0.00  0.00    +0.000 A 
ATOM      9  N   UNL     1       3.193   5.214  19.329  0.00  0.00    +0.000 N 
ATOM     10  C   UNL     1       2.375   6.201  19.889  0.00  0.00    +0.000 A 
ATOM     11  O   UNL     1       1.654   6.026  20.868  0.00  0.00    +0.000 OA
ENDROOT
BRANCH   9  12
ATOM     12  C   UNL     1       3.182   3.799  19.871  0.00  0.00    +0.000 C 
ATOM     13  C   UNL     1       1.976   3.405  20.764  0.00  0.00    +0.000 C 
ATOM     14  C   UNL     1       0.703   3.037  20.013  0.00  0.00    +0.000 C 
ATOM     15  C   UNL     1       0.918   1.969  18.951  0.00  0.00    +0.000 C 
ATOM     16  C   UNL     1       2.117   2.262  18.065  0.00  0.00    +0.000 C 
ATOM     17  C   UNL     1       3.376   2.627  18.866  0.00  0.00    +0.000 C 
ENDBRANCH   9  12
BRANCH   1  19
ATOM     18  C   UNL     1       1.318   8.859  21.310  0.00  0.00    +0.000 C 
ATOM     19  C   UNL     1       1.384   8.620  19.822  0.00  0.00    +0.000 C 
ATOM     20  O   UNL     1       0.728   9.333  19.052  0.00  0.00    +0.000 OA
ENDBRANCH   1  19
BRANCH   2  21
ATOM     21  O   UNL     1       2.877   9.003  17.443  0.00  0.00    +0.000 OA
ATOM     22  H   UNL     1       1.981   9.383  17.572  0.00  0.00    +0.000 HD
ENDBRANCH   2  21
TORSDOF 3
ENDMDL
MODEL 5
REMARK VINA RESULT:      -7.1      1.670      4.702
REMARK  Name = 
REMARK  4 active torsions:
REMARK  status: ('A' for Active; 'I' for Inactive)
REMARK    1  A    between atoms: C_1  and  C_2
REMARK    2  A    between atoms: C_2  and  C_4
REMARK    3  A    between atoms: C_5  and  O_6
REMARK    4  A    between atoms: N_13  and  C_14
REMARK                            x       y       z     vdW  Elec       q    Type
REMARK                         _______ _______ _______ _____ _____    ______ ____
ROOT
ATOM      1  C   UNL     1       2.936   4.342  19.401  0.00  0.00    +0.000 A 
ATOM      2  C   UNL     1       2.143   5.314  19.876  0.00  0.00    +0.000 A 
ATOM      3  C   UNL     1       2.238   6.680  19.345  0.00  0.00    +0.000 A 
ATOM      4  C   UNL     1       1.408   7.691  19.879  0.00  0.00    +0.000 A 
ATOM      5  C   UNL     1       1.404   8.972  19.347  0.00  0.00    +0.000 A 
ATOM      6  C   UNL     1       2.209   9.250  18.253  0.00  0.00    +0.000 A 
ATOM      7  C   UNL     1       3.029   8.253  17.713  0.00  0.00    +0.000 A 
ATOM      8  C   UNL     1       3.107   6.963  18.273  0.00  0.00    +0.000 A 
ATOM      9  N   UNL     1       4.010   5.932  17.792  0.00  0.00    +0.000 N 
ATOM     10  C   UNL     1       3.901   4.638  18.314  0.00  0.00    +0.000 A 
ATOM     11  O   UNL     1       4.527   3.669  17.890  0.00  0.00    +0.000 OA
ENDROOT
BRANCH   9  12
ATOM     12  C   UNL     1       4.879   6.209  16.582  0.00  0.00    +0.000 C 
ATOM     13  C   UNL     1       6.310   6.737  16.859  0.00  0.00    +0.000 C 
ATOM     14  C   UNL     1       7.333   5.674  17.244  0.00  0.00    +0.000 C 
ATOM     15  C   UNL     1       7.400   4.519  16.257  0.00  0.00    +0.000 C 
ATOM     16  C   UNL     1       6.026   3.980  15.898  0.00  0.00    +0.000 C 
ATOM     17  C   UNL     1       5.032   5.086  15.516  0.00  0.00    +0.000 C 
ENDBRANCH   9  12
BRANCH   1  19
ATOM     18  C   UNL     1       1.929   1.933  19.249  0.00  0.00    +0.000 C 
ATOM     19  C   UNL     1       2.774   2.955  19.967  0.00  0.00    +0.000 C 
ATOM     20  O   UNL     1       3.365   2.647  21.010  0.00  0.00    +0.000 OA
ENDBRANCH   1  19
BRANCH   2  21
ATOM     21  O   UNL     1       1.166   5.123  20.836  0.00  0.00    +0.000 OA
ATOM     22  H   UNL     1       1.461   4.417  21.450  0.00  0.00    +0.000 HD
ENDBRANCH   2  21
TORSDOF 3
ENDMDL
MODEL 6
REMARK VINA RESULT:      -7.0      1.668      4.705
REMARK  Name = 
REMARK  4 active torsions:
REMARK  status: ('A' for Active; 'I' for Inactive)
REMARK    1  A    between atoms: C_1  and  C_2
REMARK    2  A    between atoms: C_2  and  C_4
REMARK    3  A    between atoms: C_5  and  O_6
REMARK    4  A    between atoms: N_13  and  C_14
REMARK                            x       y       z     vdW  Elec       q    Type
REMARK                         _______ _______ _______ _____ _____    ______ ____
ROOT
ATOM      1  C   UNL     1       3.944   3.666  19.469  0.00  0.00    +0.000 A 
ATOM      2  C   UNL     1       2.930   4.197  20.168  0.00  0.00    +0.000 A 
ATOM      3  C   UNL     1       2.586   5.617  20.022  0.00  0.00    +0.000 A 
ATOM      4  C   UNL     1       1.529   6.158  20.788  0.00  0.00    +0.000 A 
ATOM      5  C   UNL     1       1.117   7.471  20.617  0.00  0.00    +0.000 A 
ATOM      6  C   UNL     1       1.736   8.251  19.653  0.00  0.00    +0.000 A 
ATOM      7  C   UNL     1       2.779   7.722  18.885  0.00  0.00    +0.000 A 
ATOM      8  C   UNL     1       3.267   6.417  19.082  0.00  0.00    +0.000 A 
ATOM      9  N   UNL     1       4.402   5.866  18.363  0.00  0.00    +0.000 N 
ATOM     10  C   UNL     1       4.711   4.510  18.519  0.00  0.00    +0.000 A 
ATOM     11  O   UNL     1       5.567   3.918  17.867  0.00  0.00    +0.000 OA
ENDROOT
BRANCH   9  12
ATOM     12  C   UNL     1       5.076   6.695  17.289  0.00  0.00    +0.000 C 
ATOM     13  C   UNL     1       6.617   6.843  17.388  0.00  0.00    +0.000 C 
ATOM     14  C   UNL     1       7.419   5.661  16.859  0.00  0.00    +0.000 C 
ATOM     15  C   UNL     1       7.037   5.260  15.442  0.00  0.00    +0.000 C 
ATOM     16  C   UNL     1       5.535   5.144  15.255  0.00  0.00    +0.000 C 
ATOM     17  C   UNL     1       4.769   6.358  15.801  0.00  0.00    +0.000 C 
ENDBRANCH   9  12
BRANCH   1  19
ATOM     18  C   UNL     1       3.669   1.191  18.670  0.00  0.00    +0.000 C 
ATOM     19  C   UNL     1       4.231   2.197  19.642  0.00  0.00    +0.000 C 
ATOM     20  O   UNL     1       4.961   1.822  20.568  0.00  0.00    +0.000 OA
ENDBRANCH   1  19
BRANCH   2  21
ATOM     21  O   UNL     1       2.112   3.479  21.023  0.00  0.00    +0.000 OA
ATOM     22  H   UNL     1       2.631   3.226  21.816  0.00  0.00    +0.000 HD
ENDBRANCH   2  21
TORSDOF 3
ENDMDL
MODEL 7
REMARK VINA RESULT:      -6.9      1.164      1.591
REMARK  Name = 
REMARK  4 active torsions:
REMARK  status: ('A' for Active; 'I' for Inactive)
REMARK    1  A    between atoms: C_1  and  C_2
REMARK    2  A    between atoms: C_2  and  C_4
REMARK    3  A    between atoms: C_5  and  O_6
REMARK    4  A    between atoms: N_13  and  C_14
REMARK                            x       y       z     vdW  Elec       q    Type
REMARK                         _______ _______ _______ _____ _____    ______ ____
ROOT
ATOM      1  C   UNL     1       5.282   4.691  16.171  0.00  0.00    +0.000 A 
ATOM      2  C   UNL     1       4.885   5.941  16.450  0.00  0.00    +0.000 A 
ATOM      3  C   UNL     1       3.839   6.185  17.450  0.00  0.00    +0.000 A 
ATOM      4  C   UNL     1       3.422   7.510  17.709  0.00  0.00    +0.000 A 
ATOM      5  C   UNL     1       2.500   7.791  18.707  0.00  0.00    +0.000 A 
ATOM      6  C   UNL     1       2.008   6.752  19.481  0.00  0.00    +0.000 A 
ATOM      7  C   UNL     1       2.420   5.438  19.237  0.00  0.00    +0.000 A 
ATOM      8  C   UNL     1       3.301   5.111  18.187  0.00  0.00    +0.000 A 
ATOM      9  N   UNL     1       3.682   3.751  17.852  0.00  0.00    +0.000 N 
ATOM     10  C   UNL     1       4.681   3.543  16.894  0.00  0.00    +0.000 A 
ATOM     11  O   UNL     1       5.163   2.445  16.628  0.00  0.00    +0.000 OA
ENDROOT
BRANCH   9  12
ATOM     12  C   UNL     1       3.173   2.604  18.702  0.00  0.00    +0.000 C 
ATOM     13  C   UNL     1       3.514   2.654  20.214  0.00  0.00    +0.000 C 
ATOM     14  C   UNL     1       2.620   3.559  21.053  0.00  0.00    +0.000 C 
ATOM     15  C   UNL     1       1.137   3.273  20.876  0.00  0.00    +0.000 C 
ATOM     16  C   UNL     1       0.737   3.161  19.415  0.00  0.00    +0.000 C 
ATOM     17  C   UNL     1       1.664   2.238  18.611  0.00  0.00    +0.000 C 
ENDBRANCH   9  12
BRANCH   1  19
ATOM     18  C   UNL     1       6.058   3.985  13.774  0.00  0.00    +0.000 C 
ATOM     19  C   UNL     1       6.378   4.506  15.153  0.00  0.00    +0.000 C 
ATOM     20  O   UNL     1       7.541   4.816  15.443  0.00  0.00    +0.000 OA
ENDBRANCH   1  19
BRANCH   2  21
ATOM     21  O   UNL     1       5.433   7.078  15.882  0.00  0.00    +0.000 OA
ATOM     22  H   UNL     1       5.402   6.988  14.905  0.00  0.00    +0.000 HD
ENDBRANCH   2  21
TORSDOF 3
ENDMDL
MODEL 8
REMARK VINA RESULT:      -6.9      2.001      4.920
REMARK  Name = 
REMARK  4 active torsions:
REMARK  status: ('A' for Active; 'I' for Inactive)
REMARK    1  A    between atoms: C_1  and  C_2
REMARK    2  A    between atoms: C_2  and  C_4
REMARK    3  A    between atoms: C_5  and  O_6
REMARK    4  A    between atoms: N_13  and  C_14
REMARK                            x       y       z     vdW  Elec       q    Type
REMARK                         _______ _______ _______ _____ _____    ______ ____
ROOT
ATOM      1  C   UNL     1       2.433   4.819  20.210  0.00  0.00    +0.000 A 
ATOM      2  C   UNL     1       1.813   5.995  20.389  0.00  0.00    +0.000 A 
ATOM      3  C   UNL     1       2.092   7.128  19.500  0.00  0.00    +0.000 A 
ATOM      4  C   UNL     1       1.443   8.363  19.724  0.00  0.00    +0.000 A 
ATOM      5  C   UNL     1       1.613   9.432  18.856  0.00  0.00    +0.000 A 
ATOM      6  C   UNL     1       2.410   9.269  17.734  0.00  0.00    +0.000 A 
ATOM      7  C   UNL     1       3.051   8.047  17.500  0.00  0.00    +0.000 A 
ATOM      8  C   UNL     1       2.955   6.966  18.397  0.00  0.00    +0.000 A 
ATOM      9  N   UNL     1       3.674   5.716  18.229  0.00  0.00    +0.000 N 
ATOM     10  C   UNL     1       3.392   4.650  19.090  0.00  0.00    +0.000 A 
ATOM     11  O   UNL     1       3.849   3.517  18.959  0.00  0.00    +0.000 OA
ENDROOT
BRANCH   9  12
ATOM     12  C   UNL     1       4.531   5.510  16.996  0.00  0.00    +0.000 C 
ATOM     13  C   UNL     1       5.278   6.755  16.451  0.00  0.00    +0.000 C 
ATOM     14  C   UNL     1       6.566   7.113  17.182  0.00  0.00    +0.000 C 
ATOM     15  C   UNL     1       7.537   5.948  17.296  0.00  0.00    +0.000 C 
ATOM     16  C   UNL     1       6.865   4.675  17.778  0.00  0.00    +0.000 C 
ATOM     17  C   UNL     1       5.573   4.354  17.012  0.00  0.00    +0.000 C 
ENDBRANCH   9  12
BRANCH   1  19
ATOM     18  C   UNL     1       1.177   2.573  20.678  0.00  0.00    +0.000 C 
ATOM     19  C   UNL     1       2.085   3.685  21.140  0.00  0.00    +0.000 C 
ATOM     20  O   UNL     1       2.576   3.653  22.275  0.00  0.00    +0.000 OA
ENDBRANCH   1  19
BRANCH   2  21
ATOM     21  O   UNL     1       0.853   6.230  21.358  0.00  0.00    +0.000 OA
ATOM     22  H   UNL     1      -0.022   6.308  20.921  0.00  0.00    +0.000 HD
ENDBRANCH   2  21
TORSDOF 3
ENDMDL
MODEL 9
REMARK VINA RESULT:      -6.8      2.370      5.702
REMARK  Name = 
REMARK  4 active torsions:
REMARK  status: ('A' for Active; 'I' for Inactive)
REMARK    1  A    between atoms: C_1  and  C_2
REMARK    2  A    between atoms: C_2  and  C_4
REMARK    3  A    between atoms: C_5  and  O_6
REMARK    4  A    between atoms: N_13  and  C_14
REMARK                            x       y       z     vdW  Elec       q    Type
REMARK                         _______ _______ _______ _____ _____    ______ ____
ROOT
ATOM      1  C   UNL     1       2.291   7.266  19.206  0.00  0.00    +0.000 A 
ATOM      2  C   UNL     1       1.896   6.381  20.132  0.00  0.00    +0.000 A 
ATOM      3  C   UNL     1       2.492   5.041  20.186  0.00  0.00    +0.000 A 
ATOM      4  C   UNL     1       2.042   4.118  21.157  0.00  0.00    +0.000 A 
ATOM      5  C   UNL     1       2.639   2.875  21.297  0.00  0.00    +0.000 A 
ATOM      6  C   UNL     1       3.716   2.549  20.489  0.00  0.00    +0.000 A 
ATOM      7  C   UNL     1       4.175   3.459  19.530  0.00  0.00    +0.000 A 
ATOM      8  C   UNL     1       3.547   4.701  19.315  0.00  0.00    +0.000 A 
ATOM      9  N   UNL     1       3.942   5.631  18.272  0.00  0.00    +0.000 N 
ATOM     10  C   UNL     1       3.358   6.902  18.240  0.00  0.00    +0.000 A 
ATOM     11  O   UNL     1       3.708   7.804  17.482  0.00  0.00    +0.000 OA
ENDROOT
BRANCH   9  12
ATOM     12  C   UNL     1       5.133   5.304  17.395  0.00  0.00    +0.000 C 
ATOM     13  C   UNL     1       5.724   6.470  16.560  0.00  0.00    +0.000 C 
ATOM     14  C   UNL     1       6.651   7.410  17.319  0.00  0.00    +0.000 C 
ATOM     15  C   UNL     1       7.773   6.690  18.050  0.00  0.00    +0.000 C 
ATOM     16  C   UNL     1       7.275   5.501  18.853  0.00  0.00    +0.000 C 
ATOM     17  C   UNL     1       6.348   4.581  18.046  0.00  0.00    +0.000 C 
ENDBRANCH   9  12
BRANCH   1  19
ATOM     18  C   UNL     1       1.212   9.279  17.930  0.00  0.00    +0.000 C 
ATOM     19  C   UNL     1       1.660   8.635  19.218  0.00  0.00    +0.000 C 
ATOM     20  O   UNL     1       1.479   9.215  20.296  0.00  0.00    +0.000 OA
ENDBRANCH   1  19
BRANCH   2  21
ATOM     21  O   UNL     1       0.962   6.649  21.117  0.00  0.00    +0.000 OA
ATOM     22  H   UNL     1       0.074   6.393  20.787  0.00  0.00    +0.000 HD
ENDBRANCH   2  21
TORSDOF 3
ENDMDL
