MODEL 1
REMARK VINA RESULT:      -8.5      0.000      0.000
REMARK  Name = 
REMARK  7 active torsions:
REMARK  status: ('A' for Active; 'I' for Inactive)
REMARK    1  A    between atoms: C_1  and  C_2
REMARK    2  A    between atoms: C_2  and  C_12
REMARK    3  A    between atoms: N_3  and  N_4
REMARK    4  A    between atoms: N_4  and  C_5
REMARK    5  A    between atoms: C_12  and  C_15
REMARK    6  A    between atoms: N_13  and  O_14
REMARK    7  A    between atoms: N_17  and  C_18
REMARK                            x       y       z     vdW  Elec       q    Type
REMARK                         _______ _______ _______ _____ _____    ______ ____
ROOT
ATOM      1  C   UNL     1       7.102   5.524  18.804  0.00  0.00    +0.000 C 
ATOM      2  N   UNL     1       8.088   5.793  19.619  0.00  0.00    +0.000 NA
ENDROOT
BRANCH   1   3
ATOM      3  C   UNL     1       5.848   4.758  19.205  0.00  0.00    +0.000 C 
ATOM      4  O   UNL     1       6.014   3.617  19.619  0.00  0.00    +0.000 OA
ATOM      5  N   UNL     1       4.646   5.407  18.968  0.00  0.00    +0.000 N 
ATOM      6  H   UNL     1       4.722   6.357  18.626  0.00  0.00    +0.000 HD
BRANCH   5   7
ATOM      7  C   UNL     1       3.355   4.902  19.233  0.00  0.00    +0.000 A 
ATOM      8  C   UNL     1       2.752   4.973  20.491  0.00  0.00    +0.000 A 
ATOM      9  C   UNL     1       1.475   4.448  20.709  0.00  0.00    +0.000 A 
ATOM     10  C   UNL     1       0.783   3.842  19.667  0.00  0.00    +0.000 A 
ATOM     11  C   UNL     1       1.365   3.774  18.402  0.00  0.00    +0.000 A 
ATOM     12  C   UNL     1       2.639   4.311  18.182  0.00  0.00    +0.000 A 
ENDBRANCH   5   7
ENDBRANCH   1   3
BRANCH   1  14
ATOM     13  C   UNL     1       7.247   7.523  17.175  0.00  0.00    +0.000 C 
ATOM     14  C   UNL     1       7.263   6.026  17.368  0.00  0.00    +0.000 C 
ATOM     15  N   UNL     1       7.402   5.130  16.431  0.00  0.00    +0.000 NA
BRANCH  15  16
ATOM     16  N   UNL     1       7.629   5.564  15.158  0.00  0.00    +0.000 N 
ATOM     17  H   UNL     1       8.603   5.721  14.898  0.00  0.00    +0.000 HD
BRANCH  16  18
ATOM     18  C   UNL     1       6.941   4.882  14.121  0.00  0.00    +0.000 A 
ATOM     19  C   UNL     1       7.514   4.684  12.858  0.00  0.00    +0.000 A 
ATOM     20  C   UNL     1       6.842   3.953  11.871  0.00  0.00    +0.000 A 
ATOM     21  C   UNL     1       5.596   3.401  12.148  0.00  0.00    +0.000 A 
ATOM     22 CL   UNL     1       4.765   2.498  10.942  0.00  0.00    +0.000 Cl
ATOM     23  C   UNL     1       5.019   3.566  13.406  0.00  0.00    +0.000 A 
ATOM     24  C   UNL     1       5.698   4.292  14.391  0.00  0.00    +0.000 A 
ENDBRANCH  16  18
ENDBRANCH  15  16
ENDBRANCH   1  14
BRANCH   2  25
ATOM     25  O   UNL     1       7.936   5.240  20.893  0.00  0.00    +0.000 OA
ATOM     26  H   UNL     1       7.097   5.645  21.192  0.00  0.00    +0.000 HD
ENDBRANCH   2  25
TORSDOF 6
ENDMDL
MODEL 2
REMARK VINA RESULT:      -8.5      0.150      1.011
REMARK  Name = 
REMARK  7 active torsions:
REMARK  status: ('A' for Active; 'I' for Inactive)
REMARK    1  A    between atoms: C_1  and  C_2
REMARK    2  A    between atoms: C_2  and  C_12
REMARK    3  A    between atoms: N_3  and  N_4
REMARK    4  A    between atoms: N_4  and  C_5
REMARK    5  A    between atoms: C_12  and  C_15
REMARK    6  A    between atoms: N_13  and  O_14
REMARK    7  A    between atoms: N_17  and  C_18
REMARK                            x       y       z     vdW  Elec       q    Type
REMARK                         _______ _______ _______ _____ _____    ______ ____
ROOT
ATOM      1  C   UNL     1       6.996   5.492  18.756  0.00  0.00    +0.000 C 
ATOM      2  N   UNL     1       7.989   5.786  19.555  0.00  0.00    +0.000 NA
ENDROOT
BRANCH   1   3
ATOM      3  C   UNL     1       5.764   4.704  19.181  0.00  0.00    +0.000 C 
ATOM      4  O   UNL     1       5.964   3.596  19.663  0.00  0.00    +0.000 OA
ATOM      5  N   UNL     1       4.544   5.292  18.885  0.00  0.00    +0.000 N 
ATOM      6  H   UNL     1       4.591   6.223  18.489  0.00  0.00    +0.000 HD
BRANCH   5   7
ATOM      7  C   UNL     1       3.267   4.755  19.157  0.00  0.00    +0.000 A 
ATOM      8  C   UNL     1       2.531   4.027  18.220  0.00  0.00    +0.000 A 
ATOM      9  C   UNL     1       1.265   3.523  18.532  0.00  0.00    +0.000 A 
ATOM     10  C   UNL     1       0.716   3.745  19.789  0.00  0.00    +0.000 A 
ATOM     11  C   UNL     1       1.443   4.460  20.741  0.00  0.00    +0.000 A 
ATOM     12  C   UNL     1       2.717   4.952  20.431  0.00  0.00    +0.000 A 
ENDBRANCH   5   7
ENDBRANCH   1   3
BRANCH   1  14
ATOM     13  C   UNL     1       6.883   7.463  17.090  0.00  0.00    +0.000 C 
ATOM     14  C   UNL     1       7.127   5.990  17.316  0.00  0.00    +0.000 C 
ATOM     15  N   UNL     1       7.436   5.111  16.404  0.00  0.00    +0.000 NA
BRANCH  15  16
ATOM     16  N   UNL     1       7.636   5.555  15.129  0.00  0.00    +0.000 N 
ATOM     17  H   UNL     1       8.603   5.723  14.853  0.00  0.00    +0.000 HD
BRANCH  16  18
ATOM     18  C   UNL     1       6.937   4.871  14.101  0.00  0.00    +0.000 A 
ATOM     19  C   UNL     1       7.514   4.630  12.847  0.00  0.00    +0.000 A 
ATOM     20  C   UNL     1       6.829   3.897  11.869  0.00  0.00    +0.000 A 
ATOM     21  C   UNL     1       5.565   3.387  12.147  0.00  0.00    +0.000 A 
ATOM     22 CL   UNL     1       4.719   2.483  10.954  0.00  0.00    +0.000 Cl
ATOM     23  C   UNL     1       4.984   3.595  13.397  0.00  0.00    +0.000 A 
ATOM     24  C   UNL     1       5.676   4.321  14.373  0.00  0.00    +0.000 A 
ENDBRANCH  16  18
ENDBRANCH  15  16
ENDBRANCH   1  14
BRANCH   2  25
ATOM     25  O   UNL     1       7.867   5.237  20.834  0.00  0.00    +0.000 OA
ATOM     26  H   UNL     1       8.311   4.372  20.730  0.00  0.00    +0.000 HD
ENDBRANCH   2  25
TORSDOF 6
ENDMDL
MODEL 3
REMARK VINA RESULT:      -8.2      0.210      1.027
REMARK  Name = 
REMARK  7 active torsions:
REMARK  status: ('A' for Active; 'I' for Inactive)
REMARK    1  A    between atoms: C_1  and  C_2
REMARK    2  A    between atoms: C_2  and  C_12
REMARK    3  A    between atoms: N_3  and  N_4
REMARK    4  A    between atoms: N_4  and  C_5
REMARK    5  A    between atoms: C_12  and  C_15
REMARK    6  A    between atoms: N_13  and  O_14
REMARK    7  A    between atoms: N_17  and  C_18
REMARK                            x       y       z     vdW  Elec       q    Type
REMARK                         _______ _______ _______ _____ _____    ______ ____
ROOT
ATOM      1  C   UNL     1       7.087   5.496  18.798  0.00  0.00    +0.000 C 
ATOM      2  N   UNL     1       8.084   5.789  19.592  0.00  0.00    +0.000 NA
ENDROOT
BRANCH   1   3
ATOM      3  C   UNL     1       5.833   4.755  19.241  0.00  0.00    +0.000 C 
ATOM      4  O   UNL     1       5.993   3.620  19.674  0.00  0.00    +0.000 OA
ATOM      5  N   UNL     1       4.634   5.415  19.017  0.00  0.00    +0.000 N 
ATOM      6  H   UNL     1       4.715   6.358  18.655  0.00  0.00    +0.000 HD
BRANCH   5   7
ATOM      7  C   UNL     1       3.343   4.933  19.320  0.00  0.00    +0.000 A 
ATOM      8  C   UNL     1       2.624   5.336  20.448  0.00  0.00    +0.000 A 
ATOM      9  C   UNL     1       1.351   4.822  20.713  0.00  0.00    +0.000 A 
ATOM     10  C   UNL     1       0.781   3.893  19.851  0.00  0.00    +0.000 A 
ATOM     11  C   UNL     1       1.480   3.489  18.714  0.00  0.00    +0.000 A 
ATOM     12  C   UNL     1       2.750   4.015  18.443  0.00  0.00    +0.000 A 
ENDBRANCH   5   7
ENDBRANCH   1   3
BRANCH   1  14
ATOM     13  C   UNL     1       7.161   7.427  17.084  0.00  0.00    +0.000 C 
ATOM     14  C   UNL     1       7.237   5.942  17.342  0.00  0.00    +0.000 C 
ATOM     15  N   UNL     1       7.418   5.012  16.446  0.00  0.00    +0.000 NA
BRANCH  15  16
ATOM     16  N   UNL     1       7.634   5.400  15.155  0.00  0.00    +0.000 N 
ATOM     17  H   UNL     1       8.608   5.518  14.874  0.00  0.00    +0.000 HD
BRANCH  16  18
ATOM     18  C   UNL     1       6.907   4.708  14.153  0.00  0.00    +0.000 A 
ATOM     19  C   UNL     1       5.603   4.245  14.370  0.00  0.00    +0.000 A 
ATOM     20  C   UNL     1       4.882   3.621  13.345  0.00  0.00    +0.000 A 
ATOM     21  C   UNL     1       5.458   3.470  12.088  0.00  0.00    +0.000 A 
ATOM     22 CL   UNL     1       4.577   2.707  10.822  0.00  0.00    +0.000 Cl
ATOM     23  C   UNL     1       6.746   3.944  11.844  0.00  0.00    +0.000 A 
ATOM     24  C   UNL     1       7.459   4.574  12.870  0.00  0.00    +0.000 A 
ENDBRANCH  16  18
ENDBRANCH  15  16
ENDBRANCH   1  14
BRANCH   2  25
ATOM     25  O   UNL     1       7.941   5.287  20.887  0.00  0.00    +0.000 OA
ATOM     26  H   UNL     1       6.986   5.077  20.921  0.00  0.00    +0.000 HD
ENDBRANCH   2  25
TORSDOF 6
ENDMDL
MODEL 4
REMARK VINA RESULT:      -8.2      1.214      1.214
REMARK  Name = 
REMARK  7 active torsions:
REMARK  status: ('A' for Active; 'I' for Inactive)
REMARK    1  A    between atoms: C_1  and  C_2
REMARK    2  A    between atoms: C_2  and  C_12
REMARK    3  A    between atoms: N_3  and  N_4
REMARK    4  A    between atoms: N_4  and  C_5
REMARK    5  A    between atoms: C_12  and  C_15
REMARK    6  A    between atoms: N_13  and  O_14
REMARK    7  A    between atoms: N_17  and  C_18
REMARK                            x       y       z     vdW  Elec       q    Type
REMARK                         _______ _______ _______ _____ _____    ______ ____
ROOT
ATOM      1  C   UNL     1       7.099   5.606  18.740  0.00  0.00    +0.000 C 
ATOM      2  N   UNL     1       8.124   5.663  19.551  0.00  0.00    +0.000 NA
ENDROOT
BRANCH   1   3
ATOM      3  C   UNL     1       5.710   5.137  19.152  0.00  0.00    +0.000 C 
ATOM      4  O   UNL     1       5.099   5.859  19.931  0.00  0.00    +0.000 OA
ATOM      5  N   UNL     1       5.329   3.894  18.672  0.00  0.00    +0.000 N 
ATOM      6  H   UNL     1       5.978   3.455  18.029  0.00  0.00    +0.000 HD
BRANCH   5   7
ATOM      7  C   UNL     1       4.107   3.236  18.927  0.00  0.00    +0.000 A 
ATOM      8  C   UNL     1       3.647   2.954  20.216  0.00  0.00    +0.000 A 
ATOM      9  C   UNL     1       2.434   2.289  20.419  0.00  0.00    +0.000 A 
ATOM     10  C   UNL     1       1.665   1.895  19.331  0.00  0.00    +0.000 A 
ATOM     11  C   UNL     1       2.103   2.179  18.039  0.00  0.00    +0.000 A 
ATOM     12  C   UNL     1       3.312   2.856  17.837  0.00  0.00    +0.000 A 
ENDBRANCH   5   7
ENDBRANCH   1   3
BRANCH   1  14
ATOM     13  C   UNL     1       7.623   7.516  17.081  0.00  0.00    +0.000 C 
ATOM     14  C   UNL     1       7.361   6.045  17.299  0.00  0.00    +0.000 C 
ATOM     15  N   UNL     1       7.340   5.122  16.378  0.00  0.00    +0.000 NA
BRANCH  15  16
ATOM     16  N   UNL     1       7.652   5.485  15.100  0.00  0.00    +0.000 N 
ATOM     17  H   UNL     1       8.645   5.547  14.875  0.00  0.00    +0.000 HD
BRANCH  16  18
ATOM     18  C   UNL     1       6.947   4.824  14.061  0.00  0.00    +0.000 A 
ATOM     19  C   UNL     1       7.525   4.590  12.806  0.00  0.00    +0.000 A 
ATOM     20  C   UNL     1       6.834   3.880  11.817  0.00  0.00    +0.000 A 
ATOM     21  C   UNL     1       5.562   3.384  12.084  0.00  0.00    +0.000 A 
ATOM     22 CL   UNL     1       4.706   2.508  10.876  0.00  0.00    +0.000 Cl
ATOM     23  C   UNL     1       4.978   3.586  13.334  0.00  0.00    +0.000 A 
ATOM     24  C   UNL     1       5.677   4.290  14.321  0.00  0.00    +0.000 A 
ENDBRANCH  16  18
ENDBRANCH  15  16
ENDBRANCH   1  14
BRANCH   2  25
ATOM     25  O   UNL     1       7.859   5.172  20.831  0.00  0.00    +0.000 OA
ATOM     26  H   UNL     1       7.259   4.422  20.643  0.00  0.00    +0.000 HD
ENDBRANCH   2  25
TORSDOF 6
ENDMDL
MODEL 5
REMARK VINA RESULT:      -8.1      1.214      1.552
REMARK  Name = 
REMARK  7 active torsions:
REMARK  status: ('A' for Active; 'I' for Inactive)
REMARK    1  A    between atoms: C_1  and  C_2
REMARK    2  A    between atoms: C_2  and  C_12
REMARK    3  A    between atoms: N_3  and  N_4
REMARK    4  A    between atoms: N_4  and  C_5
REMARK    5  A    between atoms: C_12  and  C_15
REMARK    6  A    between atoms: N_13  and  O_14
REMARK    7  A    between atoms: N_17  and  C_18
REMARK                            x       y       z     vdW  Elec       q    Type
REMARK                         _______ _______ _______ _____ _____    ______ ____
ROOT
ATOM      1  C   UNL     1       7.104   5.568  18.674  0.00  0.00    +0.000 C 
ATOM      2  N   UNL     1       8.126   5.636  19.489  0.00  0.00    +0.000 NA
ENDROOT
BRANCH   1   3
ATOM      3  C   UNL     1       5.710   5.118  19.091  0.00  0.00    +0.000 C 
ATOM      4  O   UNL     1       5.104   5.857  19.858  0.00  0.00    +0.000 OA
ATOM      5  N   UNL     1       5.318   3.871  18.629  0.00  0.00    +0.000 N 
ATOM      6  H   UNL     1       5.964   3.417  17.995  0.00  0.00    +0.000 HD
BRANCH   5   7
ATOM      7  C   UNL     1       4.089   3.228  18.892  0.00  0.00    +0.000 A 
ATOM      8  C   UNL     1       3.156   2.932  17.896  0.00  0.00    +0.000 A 
ATOM      9  C   UNL     1       1.946   2.304  18.206  0.00  0.00    +0.000 A 
ATOM     10  C   UNL     1       1.653   1.966  19.522  0.00  0.00    +0.000 A 
ATOM     11  C   UNL     1       2.580   2.244  20.526  0.00  0.00    +0.000 A 
ATOM     12  C   UNL     1       3.796   2.861  20.213  0.00  0.00    +0.000 A 
ENDBRANCH   5   7
ENDBRANCH   1   3
BRANCH   1  14
ATOM     13  C   UNL     1       7.582   7.444  16.965  0.00  0.00    +0.000 C 
ATOM     14  C   UNL     1       7.376   5.972  17.225  0.00  0.00    +0.000 C 
ATOM     15  N   UNL     1       7.408   5.020  16.333  0.00  0.00    +0.000 NA
BRANCH  15  16
ATOM     16  N   UNL     1       7.729   5.355  15.050  0.00  0.00    +0.000 N 
ATOM     17  H   UNL     1       8.720   5.330  14.809  0.00  0.00    +0.000 HD
BRANCH  16  18
ATOM     18  C   UNL     1       6.952   4.760  14.023  0.00  0.00    +0.000 A 
ATOM     19  C   UNL     1       7.462   4.550  12.735  0.00  0.00    +0.000 A 
ATOM     20  C   UNL     1       6.698   3.903  11.756  0.00  0.00    +0.000 A 
ATOM     21  C   UNL     1       5.421   3.446  12.066  0.00  0.00    +0.000 A 
ATOM     22 CL   UNL     1       4.477   2.648  10.870  0.00  0.00    +0.000 Cl
ATOM     23  C   UNL     1       4.904   3.624  13.349  0.00  0.00    +0.000 A 
ATOM     24  C   UNL     1       5.675   4.265  14.325  0.00  0.00    +0.000 A 
ENDBRANCH  16  18
ENDBRANCH  15  16
ENDBRANCH   1  14
BRANCH   2  25
ATOM     25  O   UNL     1       7.852   5.176  20.778  0.00  0.00    +0.000 OA
ATOM     26  H   UNL     1       6.991   5.601  20.969  0.00  0.00    +0.000 HD
ENDBRANCH   2  25
TORSDOF 6
ENDMDL
MODEL 6
REMARK VINA RESULT:      -8.0      4.463      6.588
REMARK  Name = 
REMARK  7 active torsions:
REMARK  status: ('A' for Active; 'I' for Inactive)
REMARK    1  A    between atoms: C_1  and  C_2
REMARK    2  A    between atoms: C_2  and  C_12
REMARK    3  A    between atoms: N_3  and  N_4
REMARK    4  A    between atoms: N_4  and  C_5
REMARK    5  A    between atoms: C_12  and  C_15
REMARK    6  A    between atoms: N_13  and  O_14
REMARK    7  A    between atoms: N_17  and  C_18
REMARK                            x       y       z     vdW  Elec       q    Type
REMARK                         _______ _______ _______ _____ _____    ______ ____
ROOT
ATOM      1  C   UNL     1       6.752   6.322  17.049  0.00  0.00    +0.000 C 
ATOM      2  N   UNL     1       7.342   6.073  15.908  0.00  0.00    +0.000 NA
ENDROOT
BRANCH   1   3
ATOM      3  C   UNL     1       5.268   6.095  17.308  0.00  0.00    +0.000 C 
ATOM      4  O   UNL     1       4.494   6.885  16.780  0.00  0.00    +0.000 OA
ATOM      5  N   UNL     1       4.963   5.072  18.193  0.00  0.00    +0.000 N 
ATOM      6  H   UNL     1       5.750   4.524  18.518  0.00  0.00    +0.000 HD
BRANCH   5   7
ATOM      7  C   UNL     1       3.671   4.681  18.608  0.00  0.00    +0.000 A 
ATOM      8  C   UNL     1       2.779   3.996  17.780  0.00  0.00    +0.000 A 
ATOM      9  C   UNL     1       1.505   3.640  18.232  0.00  0.00    +0.000 A 
ATOM     10  C   UNL     1       1.106   3.968  19.522  0.00  0.00    +0.000 A 
ATOM     11  C   UNL     1       1.989   4.641  20.365  0.00  0.00    +0.000 A 
ATOM     12  C   UNL     1       3.269   4.986  19.916  0.00  0.00    +0.000 A 
ENDBRANCH   5   7
ENDBRANCH   1   3
BRANCH   1  14
ATOM     13  C   UNL     1       8.032   5.912  19.254  0.00  0.00    +0.000 C 
ATOM     14  C   UNL     1       7.645   6.876  18.159  0.00  0.00    +0.000 C 
ATOM     15  N   UNL     1       8.001   8.128  18.072  0.00  0.00    +0.000 NA
BRANCH  15  16
ATOM     16  N   UNL     1       8.864   8.615  19.011  0.00  0.00    +0.000 N 
ATOM     17  H   UNL     1       9.738   8.102  19.134  0.00  0.00    +0.000 HD
BRANCH  16  18
ATOM     18  C   UNL     1       9.106  10.012  18.989  0.00  0.00    +0.000 A 
ATOM     19  C   UNL     1       8.755  10.808  17.891  0.00  0.00    +0.000 A 
ATOM     20  C   UNL     1       8.945  12.195  17.918  0.00  0.00    +0.000 A 
ATOM     21  C   UNL     1       9.475  12.798  19.054  0.00  0.00    +0.000 A 
ATOM     22 CL   UNL     1       9.709  14.501  19.096  0.00  0.00    +0.000 Cl
ATOM     23  C   UNL     1       9.809  12.027  20.166  0.00  0.00    +0.000 A 
ATOM     24  C   UNL     1       9.610  10.642  20.137  0.00  0.00    +0.000 A 
ENDBRANCH  16  18
ENDBRANCH  15  16
ENDBRANCH   1  14
BRANCH   2  25
ATOM     25  O   UNL     1       6.472   5.651  14.901  0.00  0.00    +0.000 OA
ATOM     26  H   UNL     1       5.613   5.628  15.369  0.00  0.00    +0.000 HD
ENDBRANCH   2  25
TORSDOF 6
ENDMDL
MODEL 7
REMARK VINA RESULT:      -8.0      4.458      6.613
REMARK  Name = 
REMARK  7 active torsions:
REMARK  status: ('A' for Active; 'I' for Inactive)
REMARK    1  A    between atoms: C_1  and  C_2
REMARK    2  A    between atoms: C_2  and  C_12
REMARK    3  A    between atoms: N_3  and  N_4
REMARK    4  A    between atoms: N_4  and  C_5
REMARK    5  A    between atoms: C_12  and  C_15
REMARK    6  A    between atoms: N_13  and  O_14
REMARK    7  A    between atoms: N_17  and  C_18
REMARK                            x       y       z     vdW  Elec       q    Type
REMARK                         _______ _______ _______ _____ _____    ______ ____
ROOT
ATOM      1  C   UNL     1       6.711   6.315  17.109  0.00  0.00    +0.000 C 
ATOM      2  N   UNL     1       7.262   6.053  15.952  0.00  0.00    +0.000 NA
ENDROOT
BRANCH   1   3
ATOM      3  C   UNL     1       5.235   6.103  17.419  0.00  0.00    +0.000 C 
ATOM      4  O   UNL     1       4.470   6.993  17.068  0.00  0.00    +0.000 OA
ATOM      5  N   UNL     1       4.933   4.965  18.152  0.00  0.00    +0.000 N 
ATOM      6  H   UNL     1       5.712   4.346  18.339  0.00  0.00    +0.000 HD
BRANCH   5   7
ATOM      7  C   UNL     1       3.650   4.560  18.578  0.00  0.00    +0.000 A 
ATOM      8  C   UNL     1       2.832   3.709  17.832  0.00  0.00    +0.000 A 
ATOM      9  C   UNL     1       1.562   3.344  18.290  0.00  0.00    +0.000 A 
ATOM     10  C   UNL     1       1.094   3.830  19.505  0.00  0.00    +0.000 A 
ATOM     11  C   UNL     1       1.903   4.671  20.269  0.00  0.00    +0.000 A 
ATOM     12  C   UNL     1       3.179   5.025  19.814  0.00  0.00    +0.000 A 
ENDBRANCH   5   7
ENDBRANCH   1   3
BRANCH   1  14
ATOM     13  C   UNL     1       8.049   5.914  19.282  0.00  0.00    +0.000 C 
ATOM     14  C   UNL     1       7.646   6.869  18.185  0.00  0.00    +0.000 C 
ATOM     15  N   UNL     1       8.020   8.114  18.071  0.00  0.00    +0.000 NA
BRANCH  15  16
ATOM     16  N   UNL     1       8.918   8.598  18.977  0.00  0.00    +0.000 N 
ATOM     17  H   UNL     1       9.834   8.149  18.994  0.00  0.00    +0.000 HD
BRANCH  16  18
ATOM     18  C   UNL     1       9.055  10.008  19.046  0.00  0.00    +0.000 A 
ATOM     19  C   UNL     1       9.488  10.655  20.211  0.00  0.00    +0.000 A 
ATOM     20  C   UNL     1       9.677  12.043  20.235  0.00  0.00    +0.000 A 
ATOM     21  C   UNL     1       9.447  12.791  19.086  0.00  0.00    +0.000 A 
ATOM     22 CL   UNL     1       9.679  14.496  19.107  0.00  0.00    +0.000 Cl
ATOM     23  C   UNL     1       9.038  12.164  17.910  0.00  0.00    +0.000 A 
ATOM     24  C   UNL     1       8.859  10.777  17.889  0.00  0.00    +0.000 A 
ENDBRANCH  16  18
ENDBRANCH  15  16
ENDBRANCH   1  14
BRANCH   2  25
ATOM     25  O   UNL     1       6.354   5.632  14.977  0.00  0.00    +0.000 OA
ATOM     26  H   UNL     1       6.439   6.335  14.302  0.00  0.00    +0.000 HD
ENDBRANCH   2  25
TORSDOF 6
ENDMDL
MODEL 8
REMARK VINA RESULT:      -7.9      4.434      6.476
REMARK  Name = 
REMARK  7 active torsions:
REMARK  status: ('A' for Active; 'I' for Inactive)
REMARK    1  A    between atoms: C_1  and  C_2
REMARK    2  A    between atoms: C_2  and  C_12
REMARK    3  A    between atoms: N_3  and  N_4
REMARK    4  A    between atoms: N_4  and  C_5
REMARK    5  A    between atoms: C_12  and  C_15
REMARK    6  A    between atoms: N_13  and  O_14
REMARK    7  A    between atoms: N_17  and  C_18
REMARK                            x       y       z     vdW  Elec       q    Type
REMARK                         _______ _______ _______ _____ _____    ______ ____
ROOT
ATOM      1  C   UNL     1       6.771   6.256  17.013  0.00  0.00    +0.000 C 
ATOM      2  N   UNL     1       7.382   5.991  15.887  0.00  0.00    +0.000 NA
ENDROOT
BRANCH   1   3
ATOM      3  C   UNL     1       5.287   6.017  17.255  0.00  0.00    +0.000 C 
ATOM      4  O   UNL     1       4.512   6.791  16.706  0.00  0.00    +0.000 OA
ATOM      5  N   UNL     1       4.980   5.003  18.149  0.00  0.00    +0.000 N 
ATOM      6  H   UNL     1       5.769   4.468  18.493  0.00  0.00    +0.000 HD
BRANCH   5   7
ATOM      7  C   UNL     1       3.687   4.603  18.552  0.00  0.00    +0.000 A 
ATOM      8  C   UNL     1       3.028   5.155  19.653  0.00  0.00    +0.000 A 
ATOM      9  C   UNL     1       1.751   4.719  20.021  0.00  0.00    +0.000 A 
ATOM     10  C   UNL     1       1.118   3.721  19.290  0.00  0.00    +0.000 A 
ATOM     11  C   UNL     1       1.757   3.169  18.181  0.00  0.00    +0.000 A 
ATOM     12  C   UNL     1       3.030   3.615  17.806  0.00  0.00    +0.000 A 
ENDBRANCH   5   7
ENDBRANCH   1   3
BRANCH   1  14
ATOM     13  C   UNL     1       8.024   5.910  19.245  0.00  0.00    +0.000 C 
ATOM     14  C   UNL     1       7.641   6.845  18.124  0.00  0.00    +0.000 C 
ATOM     15  N   UNL     1       7.983   8.099  18.017  0.00  0.00    +0.000 NA
BRANCH  15  16
ATOM     16  N   UNL     1       8.826   8.616  18.958  0.00  0.00    +0.000 N 
ATOM     17  H   UNL     1       9.703   8.118  19.104  0.00  0.00    +0.000 HD
BRANCH  16  18
ATOM     18  C   UNL     1       9.051  10.016  18.909  0.00  0.00    +0.000 A 
ATOM     19  C   UNL     1       8.631  10.797  17.825  0.00  0.00    +0.000 A 
ATOM     20  C   UNL     1       8.808  12.186  17.828  0.00  0.00    +0.000 A 
ATOM     21  C   UNL     1       9.394  12.806  18.927  0.00  0.00    +0.000 A 
ATOM     22 CL   UNL     1       9.612  14.512  18.941  0.00  0.00    +0.000 Cl
ATOM     23  C   UNL     1       9.798  12.049  20.026  0.00  0.00    +0.000 A 
ATOM     24  C   UNL     1       9.612  10.662  20.020  0.00  0.00    +0.000 A 
ENDBRANCH  16  18
ENDBRANCH  15  16
ENDBRANCH   1  14
BRANCH   2  25
ATOM     25  O   UNL     1       6.532   5.537  14.876  0.00  0.00    +0.000 OA
ATOM     26  H   UNL     1       6.286   4.647  15.200  0.00  0.00    +0.000 HD
ENDBRANCH   2  25
TORSDOF 6
ENDMDL
MODEL 9
REMARK VINA RESULT:      -7.8      1.178      1.832
REMARK  Name = 
REMARK  7 active torsions:
REMARK  status: ('A' for Active; 'I' for Inactive)
REMARK    1  A    between atoms: C_1  and  C_2
REMARK    2  A    between atoms: C_2  and  C_12
REMARK    3  A    between atoms: N_3  and  N_4
REMARK    4  A    between atoms: N_4  and  C_5
REMARK    5  A    between atoms: C_12  and  C_15
REMARK    6  A    between atoms: N_13  and  O_14
REMARK    7  A    between atoms: N_17  and  C_18
REMARK                            x       y       z     vdW  Elec       q    Type
REMARK                         _______ _______ _______ _____ _____    ______ ____
ROOT
ATOM      1  C   UNL     1       7.069   5.494  18.710  0.00  0.00    +0.000 C 
ATOM      2  N   UNL     1       8.098   5.583  19.513  0.00  0.00    +0.000 NA
ENDROOT
BRANCH   1   3
ATOM      3  C   UNL     1       5.675   5.072  19.154  0.00  0.00    +0.000 C 
ATOM      4  O   UNL     1       5.116   5.801  19.966  0.00  0.00    +0.000 OA
ATOM      5  N   UNL     1       5.230   3.856  18.660  0.00  0.00    +0.000 N 
ATOM      6  H   UNL     1       5.841   3.405  17.990  0.00  0.00    +0.000 HD
BRANCH   5   7
ATOM      7  C   UNL     1       3.989   3.242  18.938  0.00  0.00    +0.000 A 
ATOM      8  C   UNL     1       3.084   2.868  17.943  0.00  0.00    +0.000 A 
ATOM      9  C   UNL     1       1.861   2.272  18.268  0.00  0.00    +0.000 A 
ATOM     10  C   UNL     1       1.528   2.046  19.598  0.00  0.00    +0.000 A 
ATOM     11  C   UNL     1       2.426   2.402  20.603  0.00  0.00    +0.000 A 
ATOM     12  C   UNL     1       3.655   2.986  20.276  0.00  0.00    +0.000 A 
ENDBRANCH   5   7
ENDBRANCH   1   3
BRANCH   1  14
ATOM     13  C   UNL     1       7.511   7.306  16.923  0.00  0.00    +0.000 C 
ATOM     14  C   UNL     1       7.332   5.842  17.244  0.00  0.00    +0.000 C 
ATOM     15  N   UNL     1       7.382   4.854  16.394  0.00  0.00    +0.000 NA
BRANCH  15  16
ATOM     16  N   UNL     1       7.696   5.141  15.097  0.00  0.00    +0.000 N 
ATOM     17  H   UNL     1       8.683   5.080  14.845  0.00  0.00    +0.000 HD
BRANCH  16  18
ATOM     18  C   UNL     1       6.889   4.538  14.098  0.00  0.00    +0.000 A 
ATOM     19  C   UNL     1       5.547   4.211  14.329  0.00  0.00    +0.000 A 
ATOM     20  C   UNL     1       4.752   3.674  13.308  0.00  0.00    +0.000 A 
ATOM     21  C   UNL     1       5.294   3.477  12.042  0.00  0.00    +0.000 A 
ATOM     22 CL   UNL     1       4.324   2.821  10.782  0.00  0.00    +0.000 Cl
ATOM     23  C   UNL     1       6.621   3.818  11.786  0.00  0.00    +0.000 A 
ATOM     24  C   UNL     1       7.408   4.360  12.808  0.00  0.00    +0.000 A 
ENDBRANCH  16  18
ENDBRANCH  15  16
ENDBRANCH   1  14
BRANCH   2  25
ATOM     25  O   UNL     1       7.831   5.173  20.821  0.00  0.00    +0.000 OA
ATOM     26  H   UNL     1       8.549   4.528  20.984  0.00  0.00    +0.000 HD
ENDBRANCH   2  25
TORSDOF 6
ENDMDL
