MODEL 1
REMARK VINA RESULT:      -6.7      0.000      0.000
REMARK  Name = 
REMARK  7 active torsions:
REMARK  status: ('A' for Active; 'I' for Inactive)
REMARK    1  A    between atoms: C_1  and  C_2
REMARK    2  A    between atoms: C_2  and  O_3
REMARK    3  A    between atoms: O_3  and  C_4
REMARK    4  A    between atoms: C_4  and  C_6
REMARK    5  A    between atoms: C_6  and  S_7
REMARK    6  A    between atoms: S_7  and  C_8
REMARK    7  A    between atoms: C_9  and  C_10
REMARK                            x       y       z     vdW  Elec       q    Type
REMARK                         _______ _______ _______ _____ _____    ______ ____
ROOT
ATOM      1  C   UNL     1       3.329   5.568  19.489  0.00  0.00    +0.000 A 
ATOM      2  C   UNL     1       4.231   4.734  18.916  0.00  0.00    +0.000 A 
ATOM      3  C   UNL     1       4.813   5.038  17.602  0.00  0.00    +0.000 A 
ATOM      4  C   UNL     1       4.489   6.183  16.943  0.00  0.00    +0.000 A 
ATOM      5  C   UNL     1       3.554   7.078  17.567  0.00  0.00    +0.000 A 
ATOM      6  N   UNL     1       3.091   8.251  17.187  0.00  0.00    +0.000 NA
ATOM      7  N   UNL     1       2.224   8.697  18.157  0.00  0.00    +0.000 NA
ATOM      8  C   UNL     1       2.175   7.783  19.099  0.00  0.00    +0.000 A 
ATOM      9  N   UNL     1       3.001   6.736  18.789  0.00  0.00    +0.000 N 
ATOM     10  C   UNL     1       5.088   6.505  15.586  0.00  0.00    +0.000 C 
ATOM     11  C   UNL     1       6.296   5.646  15.222  0.00  0.00    +0.000 C 
ATOM     12  C   UNL     1       6.006   4.185  15.520  0.00  0.00    +0.000 C 
ATOM     13  C   UNL     1       5.746   3.997  17.013  0.00  0.00    +0.000 C 
ENDROOT
BRANCH   2  14
ATOM     14  C   UNL     1       4.590   3.451  19.647  0.00  0.00    +0.000 C 
ATOM     15  N   UNL     1       4.887   2.387  20.254  0.00  0.00    +0.000 NA
ENDBRANCH   2  14
BRANCH   1  16
ATOM     16  S   UNL     1       2.489   5.230  20.990  0.00  0.00    +0.000 S 
BRANCH  16  17
ATOM     17  C   UNL     1       1.088   4.166  20.474  0.00  0.00    +0.000 C 
BRANCH  17  18
ATOM     18  C   UNL     1       1.275   2.744  20.964  0.00  0.00    +0.000 C 
ATOM     19  O   UNL     1       1.348   2.391  22.141  0.00  0.00    +0.000 OA
BRANCH  18  20
ATOM     20  O   UNL     1       1.485   1.911  19.899  0.00  0.00    +0.000 OA
BRANCH  20  22
ATOM     21  C   UNL     1       2.214   2.122  17.635  0.00  0.00    +0.000 C 
ATOM     22  C   UNL     1       1.123   2.478  18.630  0.00  0.00    +0.000 C 
ENDBRANCH  20  22
ENDBRANCH  18  20
ENDBRANCH  17  18
ENDBRANCH  16  17
ENDBRANCH   1  16
TORSDOF 6
ENDMDL
MODEL 2
REMARK VINA RESULT:      -6.3      3.368      6.093
REMARK  Name = 
REMARK  7 active torsions:
REMARK  status: ('A' for Active; 'I' for Inactive)
REMARK    1  A    between atoms: C_1  and  C_2
REMARK    2  A    between atoms: C_2  and  O_3
REMARK    3  A    between atoms: O_3  and  C_4
REMARK    4  A    between atoms: C_4  and  C_6
REMARK    5  A    between atoms: C_6  and  S_7
REMARK    6  A    between atoms: S_7  and  C_8
REMARK    7  A    between atoms: C_9  and  C_10
REMARK                            x       y       z     vdW  Elec       q    Type
REMARK                         _______ _______ _______ _____ _____    ______ ____
ROOT
ATOM      1  C   UNL     1       3.916   5.178  18.132  0.00  0.00    +0.000 A 
ATOM      2  C   UNL     1       3.630   6.451  17.769  0.00  0.00    +0.000 A 
ATOM      3  C   UNL     1       2.719   7.280  18.570  0.00  0.00    +0.000 A 
ATOM      4  C   UNL     1       2.167   6.801  19.717  0.00  0.00    +0.000 A 
ATOM      5  C   UNL     1       2.495   5.459  20.113  0.00  0.00    +0.000 A 
ATOM      6  N   UNL     1       2.144   4.758  21.171  0.00  0.00    +0.000 NA
ATOM      7  N   UNL     1       2.743   3.523  21.078  0.00  0.00    +0.000 NA
ATOM      8  C   UNL     1       3.438   3.500  19.963  0.00  0.00    +0.000 A 
ATOM      9  N   UNL     1       3.328   4.699  19.311  0.00  0.00    +0.000 N 
ATOM     10  C   UNL     1       1.227   7.651  20.551  0.00  0.00    +0.000 C 
ATOM     11  C   UNL     1       1.249   9.134  20.192  0.00  0.00    +0.000 C 
ATOM     12  C   UNL     1       1.182   9.306  18.684  0.00  0.00    +0.000 C 
ATOM     13  C   UNL     1       2.400   8.661  18.029  0.00  0.00    +0.000 C 
ENDROOT
BRANCH   2  14
ATOM     14  C   UNL     1       4.240   6.987  16.484  0.00  0.00    +0.000 C 
ATOM     15  N   UNL     1       4.747   7.431  15.418  0.00  0.00    +0.000 NA
ENDBRANCH   2  14
BRANCH   1  16
ATOM     16  S   UNL     1       4.887   4.075  17.177  0.00  0.00    +0.000 S 
BRANCH  16  17
ATOM     17  C   UNL     1       6.610   4.538  17.596  0.00  0.00    +0.000 C 
BRANCH  17  18
ATOM     18  C   UNL     1       7.330   5.107  16.388  0.00  0.00    +0.000 C 
ATOM     19  O   UNL     1       7.765   4.458  15.437  0.00  0.00    +0.000 OA
BRANCH  18  20
ATOM     20  O   UNL     1       7.547   6.446  16.568  0.00  0.00    +0.000 OA
BRANCH  20  22
ATOM     21  C   UNL     1       8.058   8.314  17.965  0.00  0.00    +0.000 C 
ATOM     22  C   UNL     1       7.706   6.836  17.941  0.00  0.00    +0.000 C 
ENDBRANCH  20  22
ENDBRANCH  18  20
ENDBRANCH  17  18
ENDBRANCH  16  17
ENDBRANCH   1  16
TORSDOF 6
ENDMDL
MODEL 3
REMARK VINA RESULT:      -6.2      3.229      5.920
REMARK  Name = 
REMARK  7 active torsions:
REMARK  status: ('A' for Active; 'I' for Inactive)
REMARK    1  A    between atoms: C_1  and  C_2
REMARK    2  A    between atoms: C_2  and  O_3
REMARK    3  A    between atoms: O_3  and  C_4
REMARK    4  A    between atoms: C_4  and  C_6
REMARK    5  A    between atoms: C_6  and  S_7
REMARK    6  A    between atoms: S_7  and  C_8
REMARK    7  A    between atoms: C_9  and  C_10
REMARK                            x       y       z     vdW  Elec       q    Type
REMARK                         _______ _______ _______ _____ _____    ______ ____
ROOT
ATOM      1  C   UNL     1       3.898   4.803  18.059  0.00  0.00    +0.000 A 
ATOM      2  C   UNL     1       3.686   6.108  17.767  0.00  0.00    +0.000 A 
ATOM      3  C   UNL     1       2.845   6.950  18.628  0.00  0.00    +0.000 A 
ATOM      4  C   UNL     1       2.286   6.447  19.762  0.00  0.00    +0.000 A 
ATOM      5  C   UNL     1       2.536   5.069  20.084  0.00  0.00    +0.000 A 
ATOM      6  N   UNL     1       2.162   4.338  21.113  0.00  0.00    +0.000 NA
ATOM      7  N   UNL     1       2.681   3.075  20.944  0.00  0.00    +0.000 NA
ATOM      8  C   UNL     1       3.351   3.066  19.815  0.00  0.00    +0.000 A 
ATOM      9  N   UNL     1       3.304   4.302  19.226  0.00  0.00    +0.000 N 
ATOM     10  C   UNL     1       1.417   7.310  20.659  0.00  0.00    +0.000 C 
ATOM     11  C   UNL     1       1.524   8.806  20.374  0.00  0.00    +0.000 C 
ATOM     12  C   UNL     1       1.440   9.058  18.878  0.00  0.00    +0.000 C 
ATOM     13  C   UNL     1       2.602   8.373  18.165  0.00  0.00    +0.000 C 
ENDROOT
BRANCH   2  14
ATOM     14  C   UNL     1       4.304   6.670  16.498  0.00  0.00    +0.000 C 
ATOM     15  N   UNL     1       4.817   7.137  15.444  0.00  0.00    +0.000 NA
ENDBRANCH   2  14
BRANCH   1  16
ATOM     16  S   UNL     1       4.780   3.692  17.029  0.00  0.00    +0.000 S 
BRANCH  16  17
ATOM     17  C   UNL     1       6.492   4.345  17.051  0.00  0.00    +0.000 C 
BRANCH  17  18
ATOM     18  C   UNL     1       6.996   4.601  15.644  0.00  0.00    +0.000 C 
ATOM     19  O   UNL     1       7.761   5.503  15.305  0.00  0.00    +0.000 OA
BRANCH  18  20
ATOM     20  O   UNL     1       6.370   3.756  14.768  0.00  0.00    +0.000 OA
BRANCH  20  22
ATOM     21  C   UNL     1       6.090   3.102  12.489  0.00  0.00    +0.000 C 
ATOM     22  C   UNL     1       6.246   4.279  13.436  0.00  0.00    +0.000 C 
ENDBRANCH  20  22
ENDBRANCH  18  20
ENDBRANCH  17  18
ENDBRANCH  16  17
ENDBRANCH   1  16
TORSDOF 6
ENDMDL
MODEL 4
REMARK VINA RESULT:      -5.9      3.145      5.943
REMARK  Name = 
REMARK  7 active torsions:
REMARK  status: ('A' for Active; 'I' for Inactive)
REMARK    1  A    between atoms: C_1  and  C_2
REMARK    2  A    between atoms: C_2  and  O_3
REMARK    3  A    between atoms: O_3  and  C_4
REMARK    4  A    between atoms: C_4  and  C_6
REMARK    5  A    between atoms: C_6  and  S_7
REMARK    6  A    between atoms: S_7  and  C_8
REMARK    7  A    between atoms: C_9  and  C_10
REMARK                            x       y       z     vdW  Elec       q    Type
REMARK                         _______ _______ _______ _____ _____    ______ ____
ROOT
ATOM      1  C   UNL     1       4.483   4.648  17.555  0.00  0.00    +0.000 A 
ATOM      2  C   UNL     1       4.138   5.932  17.299  0.00  0.00    +0.000 A 
ATOM      3  C   UNL     1       3.249   6.673  18.205  0.00  0.00    +0.000 A 
ATOM      4  C   UNL     1       2.780   6.097  19.344  0.00  0.00    +0.000 A 
ATOM      5  C   UNL     1       3.172   4.744  19.628  0.00  0.00    +0.000 A 
ATOM      6  N   UNL     1       2.905   3.961  20.652  0.00  0.00    +0.000 NA
ATOM      7  N   UNL     1       3.537   2.758  20.440  0.00  0.00    +0.000 NA
ATOM      8  C   UNL     1       4.166   2.835  19.290  0.00  0.00    +0.000 A 
ATOM      9  N   UNL     1       3.980   4.071  18.729  0.00  0.00    +0.000 N 
ATOM     10  C   UNL     1       1.863   6.855  20.287  0.00  0.00    +0.000 C 
ATOM     11  C   UNL     1       1.817   8.360  20.032  0.00  0.00    +0.000 C 
ATOM     12  C   UNL     1       1.658   8.631  18.545  0.00  0.00    +0.000 C 
ATOM     13  C   UNL     1       2.856   8.074  17.780  0.00  0.00    +0.000 C 
ENDROOT
BRANCH   2  14
ATOM     14  C   UNL     1       4.655   6.575  16.023  0.00  0.00    +0.000 C 
ATOM     15  N   UNL     1       5.084   7.108  14.963  0.00  0.00    +0.000 NA
ENDBRANCH   2  14
BRANCH   1  16
ATOM     16  S   UNL     1       5.433   3.648  16.474  0.00  0.00    +0.000 S 
BRANCH  16  17
ATOM     17  C   UNL     1       7.066   4.477  16.435  0.00  0.00    +0.000 C 
BRANCH  17  18
ATOM     18  C   UNL     1       7.351   5.182  17.746  0.00  0.00    +0.000 C 
ATOM     19  O   UNL     1       7.339   4.662  18.862  0.00  0.00    +0.000 OA
BRANCH  18  20
ATOM     20  O   UNL     1       7.496   6.525  17.528  0.00  0.00    +0.000 OA
BRANCH  20  22
ATOM     21  C   UNL     1       8.313   8.674  18.172  0.00  0.00    +0.000 C 
ATOM     22  C   UNL     1       8.137   7.229  18.604  0.00  0.00    +0.000 C 
ENDBRANCH  20  22
ENDBRANCH  18  20
ENDBRANCH  17  18
ENDBRANCH  16  17
ENDBRANCH   1  16
TORSDOF 6
ENDMDL
MODEL 5
REMARK VINA RESULT:      -5.7      3.188      5.346
REMARK  Name = 
REMARK  7 active torsions:
REMARK  status: ('A' for Active; 'I' for Inactive)
REMARK    1  A    between atoms: C_1  and  C_2
REMARK    2  A    between atoms: C_2  and  O_3
REMARK    3  A    between atoms: O_3  and  C_4
REMARK    4  A    between atoms: C_4  and  C_6
REMARK    5  A    between atoms: C_6  and  S_7
REMARK    6  A    between atoms: S_7  and  C_8
REMARK    7  A    between atoms: C_9  and  C_10
REMARK                            x       y       z     vdW  Elec       q    Type
REMARK                         _______ _______ _______ _____ _____    ______ ____
ROOT
ATOM      1  C   UNL     1       3.798   6.006  17.608  0.00  0.00    +0.000 A 
ATOM      2  C   UNL     1       3.929   4.702  17.951  0.00  0.00    +0.000 A 
ATOM      3  C   UNL     1       3.317   4.177  19.179  0.00  0.00    +0.000 A 
ATOM      4  C   UNL     1       2.573   4.981  19.986  0.00  0.00    +0.000 A 
ATOM      5  C   UNL     1       2.413   6.357  19.604  0.00  0.00    +0.000 A 
ATOM      6  N   UNL     1       1.734   7.338  20.161  0.00  0.00    +0.000 NA
ATOM      7  N   UNL     1       1.903   8.462  19.387  0.00  0.00    +0.000 NA
ATOM      8  C   UNL     1       2.686   8.141  18.382  0.00  0.00    +0.000 A 
ATOM      9  N   UNL     1       3.037   6.819  18.459  0.00  0.00    +0.000 N 
ATOM     10  C   UNL     1       1.935   4.447  21.255  0.00  0.00    +0.000 C 
ATOM     11  C   UNL     1       1.908   2.923  21.342  0.00  0.00    +0.000 C 
ATOM     12  C   UNL     1       3.264   2.355  20.957  0.00  0.00    +0.000 C 
ATOM     13  C   UNL     1       3.595   2.724  19.513  0.00  0.00    +0.000 C 
ENDROOT
BRANCH   2  14
ATOM     14  C   UNL     1       4.765   3.803  17.055  0.00  0.00    +0.000 C 
ATOM     15  N   UNL     1       5.459   3.057  16.311  0.00  0.00    +0.000 NA
ENDBRANCH   2  14
BRANCH   1  16
ATOM     16  S   UNL     1       4.594   6.748  16.234  0.00  0.00    +0.000 S 
BRANCH  16  17
ATOM     17  C   UNL     1       6.277   7.123  16.855  0.00  0.00    +0.000 C 
BRANCH  17  18
ATOM     18  C   UNL     1       7.273   6.077  16.394  0.00  0.00    +0.000 C 
ATOM     19  O   UNL     1       7.489   5.753  15.226  0.00  0.00    +0.000 OA
BRANCH  18  20
ATOM     20  O   UNL     1       7.812   5.441  17.478  0.00  0.00    +0.000 OA
BRANCH  20  22
ATOM     21  C   UNL     1       7.008   5.387  19.726  0.00  0.00    +0.000 C 
ATOM     22  C   UNL     1       7.761   6.207  18.693  0.00  0.00    +0.000 C 
ENDBRANCH  20  22
ENDBRANCH  18  20
ENDBRANCH  17  18
ENDBRANCH  16  17
ENDBRANCH   1  16
TORSDOF 6
ENDMDL
MODEL 6
REMARK VINA RESULT:      -5.7      3.818      6.256
REMARK  Name = 
REMARK  7 active torsions:
REMARK  status: ('A' for Active; 'I' for Inactive)
REMARK    1  A    between atoms: C_1  and  C_2
REMARK    2  A    between atoms: C_2  and  O_3
REMARK    3  A    between atoms: O_3  and  C_4
REMARK    4  A    between atoms: C_4  and  C_6
REMARK    5  A    between atoms: C_6  and  S_7
REMARK    6  A    between atoms: S_7  and  C_8
REMARK    7  A    between atoms: C_9  and  C_10
REMARK                            x       y       z     vdW  Elec       q    Type
REMARK                         _______ _______ _______ _____ _____    ______ ____
ROOT
ATOM      1  C   UNL     1       4.783   4.220  17.394  0.00  0.00    +0.000 A 
ATOM      2  C   UNL     1       4.629   5.530  17.703  0.00  0.00    +0.000 A 
ATOM      3  C   UNL     1       3.513   5.983  18.545  0.00  0.00    +0.000 A 
ATOM      4  C   UNL     1       2.628   5.092  19.067  0.00  0.00    +0.000 A 
ATOM      5  C   UNL     1       2.811   3.700  18.761  0.00  0.00    +0.000 A 
ATOM      6  N   UNL     1       2.143   2.633  19.146  0.00  0.00    +0.000 NA
ATOM      7  N   UNL     1       2.740   1.532  18.575  0.00  0.00    +0.000 NA
ATOM      8  C   UNL     1       3.750   1.957  17.851  0.00  0.00    +0.000 A 
ATOM      9  N   UNL     1       3.853   3.320  17.933  0.00  0.00    +0.000 N 
ATOM     10  C   UNL     1       1.474   5.551  19.940  0.00  0.00    +0.000 C 
ATOM     11  C   UNL     1       1.610   6.985  20.444  0.00  0.00    +0.000 C 
ATOM     12  C   UNL     1       2.022   7.901  19.304  0.00  0.00    +0.000 C 
ATOM     13  C   UNL     1       3.383   7.479  18.758  0.00  0.00    +0.000 C 
ENDROOT
BRANCH   2  14
ATOM     14  C   UNL     1       5.613   6.527  17.116  0.00  0.00    +0.000 C 
ATOM     15  N   UNL     1       6.430   7.355  16.629  0.00  0.00    +0.000 NA
ENDBRANCH   2  14
BRANCH   1  16
ATOM     16  S   UNL     1       6.004   3.602  16.299  0.00  0.00    +0.000 S 
BRANCH  16  17
ATOM     17  C   UNL     1       5.531   4.309  14.676  0.00  0.00    +0.000 C 
BRANCH  17  18
ATOM     18  C   UNL     1       6.757   4.659  13.856  0.00  0.00    +0.000 C 
ATOM     19  O   UNL     1       7.696   5.363  14.227  0.00  0.00    +0.000 OA
BRANCH  18  20
ATOM     20  O   UNL     1       6.612   4.183  12.581  0.00  0.00    +0.000 OA
BRANCH  20  22
ATOM     21  C   UNL     1       5.862   2.132  11.615  0.00  0.00    +0.000 C 
ATOM     22  C   UNL     1       5.442   3.372  12.387  0.00  0.00    +0.000 C 
ENDBRANCH  20  22
ENDBRANCH  18  20
ENDBRANCH  17  18
ENDBRANCH  16  17
ENDBRANCH   1  16
TORSDOF 6
ENDMDL
MODEL 7
REMARK VINA RESULT:      -5.6      3.376      5.526
REMARK  Name = 
REMARK  7 active torsions:
REMARK  status: ('A' for Active; 'I' for Inactive)
REMARK    1  A    between atoms: C_1  and  C_2
REMARK    2  A    between atoms: C_2  and  O_3
REMARK    3  A    between atoms: O_3  and  C_4
REMARK    4  A    between atoms: C_4  and  C_6
REMARK    5  A    between atoms: C_6  and  S_7
REMARK    6  A    between atoms: S_7  and  C_8
REMARK    7  A    between atoms: C_9  and  C_10
REMARK                            x       y       z     vdW  Elec       q    Type
REMARK                         _______ _______ _______ _____ _____    ______ ____
ROOT
ATOM      1  C   UNL     1       2.108   6.399  19.682  0.00  0.00    +0.000 A 
ATOM      2  C   UNL     1       2.772   6.915  18.621  0.00  0.00    +0.000 A 
ATOM      3  C   UNL     1       3.886   6.186  17.998  0.00  0.00    +0.000 A 
ATOM      4  C   UNL     1       4.254   4.958  18.450  0.00  0.00    +0.000 A 
ATOM      5  C   UNL     1       3.528   4.401  19.558  0.00  0.00    +0.000 A 
ATOM      6  N   UNL     1       3.639   3.241  20.172  0.00  0.00    +0.000 NA
ATOM      7  N   UNL     1       2.691   3.198  21.168  0.00  0.00    +0.000 NA
ATOM      8  C   UNL     1       2.033   4.335  21.141  0.00  0.00    +0.000 A 
ATOM      9  N   UNL     1       2.510   5.136  20.139  0.00  0.00    +0.000 N 
ATOM     10  C   UNL     1       5.402   4.197  17.812  0.00  0.00    +0.000 C 
ATOM     11  C   UNL     1       5.839   4.754  16.459  0.00  0.00    +0.000 C 
ATOM     12  C   UNL     1       5.969   6.266  16.536  0.00  0.00    +0.000 C 
ATOM     13  C   UNL     1       4.617   6.891  16.872  0.00  0.00    +0.000 C 
ENDROOT
BRANCH   2  14
ATOM     14  C   UNL     1       2.367   8.290  18.118  0.00  0.00    +0.000 C 
ATOM     15  N   UNL     1       2.030   9.432  17.701  0.00  0.00    +0.000 NA
ENDBRANCH   2  14
BRANCH   1  16
ATOM     16  S   UNL     1       0.853   7.246  20.567  0.00  0.00    +0.000 S 
BRANCH  16  17
ATOM     17  C   UNL     1       1.782   8.430  21.612  0.00  0.00    +0.000 C 
BRANCH  17  18
ATOM     18  C   UNL     1       1.077   9.771  21.674  0.00  0.00    +0.000 C 
ATOM     19  O   UNL     1       0.973  10.574  20.747  0.00  0.00    +0.000 OA
BRANCH  18  20
ATOM     20  O   UNL     1       0.680  10.026  22.958  0.00  0.00    +0.000 OA
BRANCH  20  22
ATOM     21  C   UNL     1      -1.326  11.316  23.077  0.00  0.00    +0.000 C 
ATOM     22  C   UNL     1      -0.737   9.918  23.166  0.00  0.00    +0.000 C 
ENDBRANCH  20  22
ENDBRANCH  18  20
ENDBRANCH  17  18
ENDBRANCH  16  17
ENDBRANCH   1  16
TORSDOF 6
ENDMDL
MODEL 8
REMARK VINA RESULT:      -5.6      3.025      5.208
REMARK  Name = 
REMARK  7 active torsions:
REMARK  status: ('A' for Active; 'I' for Inactive)
REMARK    1  A    between atoms: C_1  and  C_2
REMARK    2  A    between atoms: C_2  and  O_3
REMARK    3  A    between atoms: O_3  and  C_4
REMARK    4  A    between atoms: C_4  and  C_6
REMARK    5  A    between atoms: C_6  and  S_7
REMARK    6  A    between atoms: S_7  and  C_8
REMARK    7  A    between atoms: C_9  and  C_10
REMARK                            x       y       z     vdW  Elec       q    Type
REMARK                         _______ _______ _______ _____ _____    ______ ____
ROOT
ATOM      1  C   UNL     1       2.703   5.761  19.295  0.00  0.00    +0.000 A 
ATOM      2  C   UNL     1       3.419   6.481  18.399  0.00  0.00    +0.000 A 
ATOM      3  C   UNL     1       4.730   6.016  17.929  0.00  0.00    +0.000 A 
ATOM      4  C   UNL     1       5.243   4.831  18.356  0.00  0.00    +0.000 A 
ATOM      5  C   UNL     1       4.468   4.056  19.285  0.00  0.00    +0.000 A 
ATOM      6  N   UNL     1       4.692   2.879  19.831  0.00  0.00    +0.000 NA
ATOM      7  N   UNL     1       3.625   2.581  20.646  0.00  0.00    +0.000 NA
ATOM      8  C   UNL     1       2.781   3.586  20.582  0.00  0.00    +0.000 A 
ATOM      9  N   UNL     1       3.254   4.548  19.731  0.00  0.00    +0.000 N 
ATOM     10  C   UNL     1       6.597   4.341  17.874  0.00  0.00    +0.000 C 
ATOM     11  C   UNL     1       7.129   5.090  16.655  0.00  0.00    +0.000 C 
ATOM     12  C   UNL     1       6.965   6.588  16.851  0.00  0.00    +0.000 C 
ATOM     13  C   UNL     1       5.486   6.939  16.992  0.00  0.00    +0.000 C 
ENDROOT
BRANCH   2  14
ATOM     14  C   UNL     1       2.851   7.809  17.926  0.00  0.00    +0.000 C 
ATOM     15  N   UNL     1       2.380   8.911  17.533  0.00  0.00    +0.000 NA
ENDBRANCH   2  14
BRANCH   1  16
ATOM     16  S   UNL     1       1.192   6.294  20.007  0.00  0.00    +0.000 S 
BRANCH  16  17
ATOM     17  C   UNL     1       1.690   7.680  21.098  0.00  0.00    +0.000 C 
BRANCH  17  18
ATOM     18  C   UNL     1       0.685   8.813  21.032  0.00  0.00    +0.000 C 
ATOM     19  O   UNL     1       0.745   9.788  20.282  0.00  0.00    +0.000 OA
BRANCH  18  20
ATOM     20  O   UNL     1      -0.243   8.667  22.027  0.00  0.00    +0.000 OA
BRANCH  20  22
ATOM     21  C   UNL     1      -1.049  10.638  23.109  0.00  0.00    +0.000 C 
ATOM     22  C   UNL     1      -0.023   9.518  23.164  0.00  0.00    +0.000 C 
ENDBRANCH  20  22
ENDBRANCH  18  20
ENDBRANCH  17  18
ENDBRANCH  16  17
ENDBRANCH   1  16
TORSDOF 6
ENDMDL
MODEL 9
REMARK VINA RESULT:      -5.6      3.537      5.717
REMARK  Name = 
REMARK  7 active torsions:
REMARK  status: ('A' for Active; 'I' for Inactive)
REMARK    1  A    between atoms: C_1  and  C_2
REMARK    2  A    between atoms: C_2  and  O_3
REMARK    3  A    between atoms: O_3  and  C_4
REMARK    4  A    between atoms: C_4  and  C_6
REMARK    5  A    between atoms: C_6  and  S_7
REMARK    6  A    between atoms: S_7  and  C_8
REMARK    7  A    between atoms: C_9  and  C_10
REMARK                            x       y       z     vdW  Elec       q    Type
REMARK                         _______ _______ _______ _____ _____    ______ ____
ROOT
ATOM      1  C   UNL     1       3.959   6.033  17.419  0.00  0.00    +0.000 A 
ATOM      2  C   UNL     1       3.884   4.725  17.763  0.00  0.00    +0.000 A 
ATOM      3  C   UNL     1       3.014   4.279  18.859  0.00  0.00    +0.000 A 
ATOM      4  C   UNL     1       2.232   5.165  19.533  0.00  0.00    +0.000 A 
ATOM      5  C   UNL     1       2.292   6.547  19.146  0.00  0.00    +0.000 A 
ATOM      6  N   UNL     1       1.636   7.600  19.588  0.00  0.00    +0.000 NA
ATOM      7  N   UNL     1       2.059   8.694  18.869  0.00  0.00    +0.000 NA
ATOM      8  C   UNL     1       2.966   8.282  18.013  0.00  0.00    +0.000 A 
ATOM      9  N   UNL     1       3.153   6.931  18.133  0.00  0.00    +0.000 N 
ATOM     10  C   UNL     1       1.328   4.712  20.665  0.00  0.00    +0.000 C 
ATOM     11  C   UNL     1       1.121   3.201  20.727  0.00  0.00    +0.000 C 
ATOM     12  C   UNL     1       2.454   2.486  20.578  0.00  0.00    +0.000 C 
ATOM     13  C   UNL     1       3.070   2.806  19.219  0.00  0.00    +0.000 C 
ENDROOT
BRANCH   2  14
ATOM     14  C   UNL     1       4.762   3.734  17.016  0.00  0.00    +0.000 C 
ATOM     15  N   UNL     1       5.490   2.912  16.396  0.00  0.00    +0.000 NA
ENDBRANCH   2  14
BRANCH   1  16
ATOM     16  S   UNL     1       5.058   6.675  16.214  0.00  0.00    +0.000 S 
BRANCH  16  17
ATOM     17  C   UNL     1       6.240   7.677  17.193  0.00  0.00    +0.000 C 
BRANCH  17  18
ATOM     18  C   UNL     1       7.389   6.825  17.697  0.00  0.00    +0.000 C 
ATOM     19  O   UNL     1       7.424   5.595  17.708  0.00  0.00    +0.000 OA
BRANCH  18  20
ATOM     20  O   UNL     1       8.343   7.625  18.265  0.00  0.00    +0.000 OA
BRANCH  20  22
ATOM     21  C   UNL     1       9.065   9.793  18.957  0.00  0.00    +0.000 C 
ATOM     22  C   UNL     1       8.167   9.026  18.001  0.00  0.00    +0.000 C 
ENDBRANCH  20  22
ENDBRANCH  18  20
ENDBRANCH  17  18
ENDBRANCH  16  17
ENDBRANCH   1  16
TORSDOF 6
ENDMDL
