MODEL 1
REMARK VINA RESULT:      -8.5      0.000      0.000
REMARK  Name = 
REMARK  5 active torsions:
REMARK  status: ('A' for Active; 'I' for Inactive)
REMARK    1  A    between atoms: N_12  and  O_13
REMARK    2  A    between atoms: O_13  and  C_14
REMARK    3  A    between atoms: C_14  and  C_15
REMARK    4  A    between atoms: C_15  and  C_16
REMARK    5  A    between atoms: C_16  and  N_17
REMARK                            x       y       z     vdW  Elec       q    Type
REMARK                         _______ _______ _______ _____ _____    ______ ____
ROOT
ATOM      1  C   UNL     1       2.097   3.453  19.996  0.00  0.00    +0.000 C 
ENDROOT
BRANCH   1   2
ATOM      2  N   UNL     1       3.324   2.724  19.654  0.00  0.00    +0.000 NA
ATOM      3  C   UNL     1       3.271   2.087  18.315  0.00  0.00    +0.000 C 
ATOM      4  C   UNL     1       3.225   3.077  17.128  0.00  0.00    +0.000 C 
ATOM      5  N   UNL     1       4.352   4.012  17.219  0.00  0.00    +0.000 N 
ATOM      6  C   UNL     1       5.150   4.214  16.136  0.00  0.00    +0.000 A 
ATOM      7  N   UNL     1       4.942   3.634  14.974  0.00  0.00    +0.000 NA
ATOM      8  C   UNL     1       5.886   4.015  14.041  0.00  0.00    +0.000 A 
ATOM      9  C   UNL     1       5.945   3.595  12.696  0.00  0.00    +0.000 A 
ATOM     10  C   UNL     1       6.951   4.084  11.863  0.00  0.00    +0.000 A 
ATOM     11  C   UNL     1       7.907   4.970  12.346  0.00  0.00    +0.000 A 
ATOM     12  C   UNL     1       7.878   5.393  13.682  0.00  0.00    +0.000 A 
ATOM     13  C   UNL     1       6.854   4.902  14.507  0.00  0.00    +0.000 A 
ATOM     14  S   UNL     1       6.545   5.242  16.153  0.00  0.00    +0.000 S 
ATOM     15  C   UNL     1       4.519   4.683  18.507  0.00  0.00    +0.000 C 
ATOM     16  C   UNL     1       4.488   3.651  19.664  0.00  0.00    +0.000 C 
ENDBRANCH   1   2
BRANCH   1  17
ATOM     17  C   UNL     1       2.310   4.714  20.842  0.00  0.00    +0.000 C 
BRANCH  17  18
ATOM     18  C   UNL     1       1.677   5.884  20.111  0.00  0.00    +0.000 C 
BRANCH  18  19
ATOM     19  O   UNL     1       2.451   7.079  20.245  0.00  0.00    +0.000 OA
BRANCH  19  31
ATOM     20  O   UNL     1       2.867   8.418  17.942  0.00  0.00    +0.000 OA
ATOM     21  C   UNL     1       1.877   8.673  18.624  0.00  0.00    +0.000 C 
ATOM     22  C   UNL     1       0.777   9.567  18.103  0.00  0.00    +0.000 C 
ATOM     23  C   UNL     1       0.188  10.508  19.165  0.00  0.00    +0.000 C 
ATOM     24  C   UNL     1      -1.132  11.116  18.622  0.00  0.00    +0.000 C 
ATOM     25  C   UNL     1      -0.955  12.626  18.657  0.00  0.00    +0.000 C 
ATOM     26  C   UNL     1       0.543  12.826  18.534  0.00  0.00    +0.000 C 
ATOM     27  C   UNL     1       1.115  11.720  19.408  0.00  0.00    +0.000 C 
ATOM     28  C   UNL     1      -0.079   9.746  20.466  0.00  0.00    +0.000 C 
ATOM     29  C   UNL     1       1.079   8.876  20.896  0.00  0.00    +0.000 C 
ATOM     30  O   UNL     1       1.441   8.819  22.067  0.00  0.00    +0.000 OA
ATOM     31  N   UNL     1       1.572   8.119  19.851  0.00  0.00    +0.000 N 
ENDBRANCH  19  31
ENDBRANCH  18  19
ENDBRANCH  17  18
ENDBRANCH   1  17
TORSDOF 5
ENDMDL
MODEL 2
REMARK VINA RESULT:      -8.0      2.513      8.639
REMARK  Name = 
REMARK  5 active torsions:
REMARK  status: ('A' for Active; 'I' for Inactive)
REMARK    1  A    between atoms: N_12  and  O_13
REMARK    2  A    between atoms: O_13  and  C_14
REMARK    3  A    between atoms: C_14  and  C_15
REMARK    4  A    between atoms: C_15  and  C_16
REMARK    5  A    between atoms: C_16  and  N_17
REMARK                            x       y       z     vdW  Elec       q    Type
REMARK                         _______ _______ _______ _____ _____    ______ ____
ROOT
ATOM      1  C   UNL     1       3.458   3.234  19.355  0.00  0.00    +0.000 C 
ENDROOT
BRANCH   1   2
ATOM      2  N   UNL     1       2.098   3.695  19.049  0.00  0.00    +0.000 NA
ATOM      3  C   UNL     1       1.314   4.046  20.259  0.00  0.00    +0.000 C 
ATOM      4  C   UNL     1       1.834   5.281  21.032  0.00  0.00    +0.000 C 
ATOM      5  N   UNL     1       1.934   6.427  20.122  0.00  0.00    +0.000 N 
ATOM      6  C   UNL     1       1.375   7.617  20.473  0.00  0.00    +0.000 A 
ATOM      7  N   UNL     1       0.767   7.813  21.622  0.00  0.00    +0.000 NA
ATOM      8  C   UNL     1       0.298   9.108  21.734  0.00  0.00    +0.000 A 
ATOM      9  C   UNL     1      -0.383   9.654  22.841  0.00  0.00    +0.000 A 
ATOM     10  C   UNL     1      -0.779  10.992  22.817  0.00  0.00    +0.000 A 
ATOM     11  C   UNL     1      -0.525  11.789  21.708  0.00  0.00    +0.000 A 
ATOM     12  C   UNL     1       0.139  11.266  20.589  0.00  0.00    +0.000 A 
ATOM     13  C   UNL     1       0.542   9.922  20.630  0.00  0.00    +0.000 A 
ATOM     14  S   UNL     1       1.375   9.014  19.447  0.00  0.00    +0.000 S 
ATOM     15  C   UNL     1       2.667   6.191  18.879  0.00  0.00    +0.000 C 
ATOM     16  C   UNL     1       2.152   4.904  18.183  0.00  0.00    +0.000 C 
ENDBRANCH   1   2
BRANCH   1  17
ATOM     17  C   UNL     1       4.554   3.818  18.457  0.00  0.00    +0.000 C 
BRANCH  17  18
ATOM     18  C   UNL     1       5.482   4.649  19.324  0.00  0.00    +0.000 C 
BRANCH  18  19
ATOM     19  O   UNL     1       6.159   5.657  18.570  0.00  0.00    +0.000 OA
BRANCH  19  31
ATOM     20  O   UNL     1       8.238   4.282  17.544  0.00  0.00    +0.000 OA
ATOM     21  C   UNL     1       7.228   4.453  16.865  0.00  0.00    +0.000 C 
ATOM     22  C   UNL     1       7.037   3.736  15.551  0.00  0.00    +0.000 C 
ATOM     23  C   UNL     1       6.383   4.601  14.462  0.00  0.00    +0.000 C 
ATOM     24  C   UNL     1       5.930   3.683  13.296  0.00  0.00    +0.000 C 
ATOM     25  C   UNL     1       6.625   4.201  12.047  0.00  0.00    +0.000 C 
ATOM     26  C   UNL     1       7.886   4.861  12.571  0.00  0.00    +0.000 C 
ATOM     27  C   UNL     1       7.409   5.569  13.832  0.00  0.00    +0.000 C 
ATOM     28  C   UNL     1       5.182   5.361  15.032  0.00  0.00    +0.000 C 
ATOM     29  C   UNL     1       5.476   6.036  16.351  0.00  0.00    +0.000 C 
ATOM     30  O   UNL     1       5.086   7.175  16.592  0.00  0.00    +0.000 OA
ATOM     31  N   UNL     1       6.119   5.190  17.233  0.00  0.00    +0.000 N 
ENDBRANCH  19  31
ENDBRANCH  18  19
ENDBRANCH  17  18
ENDBRANCH   1  17
TORSDOF 5
ENDMDL
MODEL 3
REMARK VINA RESULT:      -7.7      4.437     11.405
REMARK  Name = 
REMARK  5 active torsions:
REMARK  status: ('A' for Active; 'I' for Inactive)
REMARK    1  A    between atoms: N_12  and  O_13
REMARK    2  A    between atoms: O_13  and  C_14
REMARK    3  A    between atoms: C_14  and  C_15
REMARK    4  A    between atoms: C_15  and  C_16
REMARK    5  A    between atoms: C_16  and  N_17
REMARK                            x       y       z     vdW  Elec       q    Type
REMARK                         _______ _______ _______ _____ _____    ______ ____
ROOT
ATOM      1  C   UNL     1       0.782  10.439  18.992  0.00  0.00    +0.000 C 
ENDROOT
BRANCH   1   2
ATOM      2  N   UNL     1       0.536  11.880  19.120  0.00  0.00    +0.000 NA
ATOM      3  C   UNL     1      -0.748  12.309  18.514  0.00  0.00    +0.000 C 
ATOM      4  C   UNL     1      -2.012  11.771  19.224  0.00  0.00    +0.000 C 
ATOM      5  N   UNL     1      -1.964  12.117  20.649  0.00  0.00    +0.000 N 
ATOM      6  C   UNL     1      -3.037  12.715  21.234  0.00  0.00    +0.000 A 
ATOM      7  N   UNL     1      -4.154  12.974  20.590  0.00  0.00    +0.000 NA
ATOM      8  C   UNL     1      -5.087  13.574  21.413  0.00  0.00    +0.000 A 
ATOM      9  C   UNL     1      -6.391  13.965  21.047  0.00  0.00    +0.000 A 
ATOM     10  C   UNL     1      -7.232  14.543  21.999  0.00  0.00    +0.000 A 
ATOM     11  C   UNL     1      -6.795  14.752  23.301  0.00  0.00    +0.000 A 
ATOM     12  C   UNL     1      -5.498  14.384  23.687  0.00  0.00    +0.000 A 
ATOM     13  C   UNL     1      -4.665  13.793  22.723  0.00  0.00    +0.000 A 
ATOM     14  S   UNL     1      -3.062  13.227  22.890  0.00  0.00    +0.000 S 
ATOM     15  C   UNL     1      -0.730  11.763  21.349  0.00  0.00    +0.000 C 
ATOM     16  C   UNL     1       0.505  12.266  20.557  0.00  0.00    +0.000 C 
ENDBRANCH   1   2
BRANCH   1  17
ATOM     17  C   UNL     1       1.765  10.048  17.881  0.00  0.00    +0.000 C 
BRANCH  17  18
ATOM     18  C   UNL     1       1.832   8.534  17.822  0.00  0.00    +0.000 C 
BRANCH  18  19
ATOM     19  O   UNL     1       2.595   7.989  18.902  0.00  0.00    +0.000 OA
BRANCH  19  31
ATOM     20  O   UNL     1       1.738   6.208  20.734  0.00  0.00    +0.000 OA
ATOM     21  C   UNL     1       2.128   5.813  19.638  0.00  0.00    +0.000 C 
ATOM     22  C   UNL     1       1.943   4.376  19.213  0.00  0.00    +0.000 C 
ATOM     23  C   UNL     1       3.136   3.803  18.432  0.00  0.00    +0.000 C 
ATOM     24  C   UNL     1       2.706   2.471  17.762  0.00  0.00    +0.000 C 
ATOM     25  C   UNL     1       3.663   1.406  18.273  0.00  0.00    +0.000 C 
ATOM     26  C   UNL     1       4.107   1.925  19.627  0.00  0.00    +0.000 C 
ATOM     27  C   UNL     1       4.289   3.416  19.385  0.00  0.00    +0.000 C 
ATOM     28  C   UNL     1       3.608   4.799  17.368  0.00  0.00    +0.000 C 
ATOM     29  C   UNL     1       3.754   6.207  17.895  0.00  0.00    +0.000 C 
ATOM     30  O   UNL     1       4.715   6.910  17.595  0.00  0.00    +0.000 OA
ATOM     31  N   UNL     1       2.654   6.600  18.632  0.00  0.00    +0.000 N 
ENDBRANCH  19  31
ENDBRANCH  18  19
ENDBRANCH  17  18
ENDBRANCH   1  17
TORSDOF 5
ENDMDL
MODEL 4
REMARK VINA RESULT:      -7.5      4.384     11.330
REMARK  Name = 
REMARK  5 active torsions:
REMARK  status: ('A' for Active; 'I' for Inactive)
REMARK    1  A    between atoms: N_12  and  O_13
REMARK    2  A    between atoms: O_13  and  C_14
REMARK    3  A    between atoms: C_14  and  C_15
REMARK    4  A    between atoms: C_15  and  C_16
REMARK    5  A    between atoms: C_16  and  N_17
REMARK                            x       y       z     vdW  Elec       q    Type
REMARK                         _______ _______ _______ _____ _____    ______ ____
ROOT
ATOM      1  C   UNL     1       1.113  10.260  19.257  0.00  0.00    +0.000 C 
ENDROOT
BRANCH   1   2
ATOM      2  N   UNL     1       0.850  11.686  19.029  0.00  0.00    +0.000 NA
ATOM      3  C   UNL     1      -0.589  11.989  18.824  0.00  0.00    +0.000 C 
ATOM      4  C   UNL     1      -1.482  11.761  20.066  0.00  0.00    +0.000 C 
ATOM      5  N   UNL     1      -0.945  12.512  21.206  0.00  0.00    +0.000 N 
ATOM      6  C   UNL     1      -1.768  13.319  21.929  0.00  0.00    +0.000 A 
ATOM      7  N   UNL     1      -3.054  13.438  21.682  0.00  0.00    +0.000 NA
ATOM      8  C   UNL     1      -3.662  14.309  22.565  0.00  0.00    +0.000 A 
ATOM      9  C   UNL     1      -5.030  14.649  22.592  0.00  0.00    +0.000 A 
ATOM     10  C   UNL     1      -5.505  15.532  23.562  0.00  0.00    +0.000 A 
ATOM     11  C   UNL     1      -4.642  16.094  24.495  0.00  0.00    +0.000 A 
ATOM     12  C   UNL     1      -3.275  15.783  24.481  0.00  0.00    +0.000 A 
ATOM     13  C   UNL     1      -2.812  14.884  23.507  0.00  0.00    +0.000 A 
ATOM     14  S   UNL     1      -1.227  14.302  23.250  0.00  0.00    +0.000 S 
ATOM     15  C   UNL     1       0.475  12.312  21.489  0.00  0.00    +0.000 C 
ATOM     16  C   UNL     1       1.314  12.483  20.196  0.00  0.00    +0.000 C 
ENDBRANCH   1   2
BRANCH   1  17
ATOM     17  C   UNL     1       0.784   9.345  18.072  0.00  0.00    +0.000 C 
BRANCH  17  18
ATOM     18  C   UNL     1       2.090   8.834  17.493  0.00  0.00    +0.000 C 
BRANCH  18  19
ATOM     19  O   UNL     1       2.954   8.307  18.504  0.00  0.00    +0.000 OA
BRANCH  19  31
ATOM     20  O   UNL     1       1.891   6.703  20.391  0.00  0.00    +0.000 OA
ATOM     21  C   UNL     1       2.289   6.218  19.335  0.00  0.00    +0.000 C 
ATOM     22  C   UNL     1       2.007   4.778  18.980  0.00  0.00    +0.000 C 
ATOM     23  C   UNL     1       3.180   4.072  18.281  0.00  0.00    +0.000 C 
ATOM     24  C   UNL     1       2.671   2.741  17.666  0.00  0.00    +0.000 C 
ATOM     25  C   UNL     1       3.521   1.636  18.272  0.00  0.00    +0.000 C 
ATOM     26  C   UNL     1       3.954   2.195  19.614  0.00  0.00    +0.000 C 
ATOM     27  C   UNL     1       4.262   3.652  19.300  0.00  0.00    +0.000 C 
ATOM     28  C   UNL     1       3.768   4.967  17.186  0.00  0.00    +0.000 C 
ATOM     29  C   UNL     1       4.005   6.387  17.642  0.00  0.00    +0.000 C 
ATOM     30  O   UNL     1       5.028   6.996  17.345  0.00  0.00    +0.000 OA
ATOM     31  N   UNL     1       2.913   6.904  18.311  0.00  0.00    +0.000 N 
ENDBRANCH  19  31
ENDBRANCH  18  19
ENDBRANCH  17  18
ENDBRANCH   1  17
TORSDOF 5
ENDMDL
MODEL 5
REMARK VINA RESULT:      -7.5      4.245     11.210
REMARK  Name = 
REMARK  5 active torsions:
REMARK  status: ('A' for Active; 'I' for Inactive)
REMARK    1  A    between atoms: N_12  and  O_13
REMARK    2  A    between atoms: O_13  and  C_14
REMARK    3  A    between atoms: C_14  and  C_15
REMARK    4  A    between atoms: C_15  and  C_16
REMARK    5  A    between atoms: C_16  and  N_17
REMARK                            x       y       z     vdW  Elec       q    Type
REMARK                         _______ _______ _______ _____ _____    ______ ____
ROOT
ATOM      1  C   UNL     1       1.315  10.139  19.387  0.00  0.00    +0.000 C 
ENDROOT
BRANCH   1   2
ATOM      2  N   UNL     1       0.128   9.681  20.119  0.00  0.00    +0.000 NA
ATOM      3  C   UNL     1       0.047  10.226  21.497  0.00  0.00    +0.000 C 
ATOM      4  C   UNL     1      -0.178  11.754  21.578  0.00  0.00    +0.000 C 
ATOM      5  N   UNL     1      -1.365  12.121  20.799  0.00  0.00    +0.000 N 
ATOM      6  C   UNL     1      -2.329  12.898  21.363  0.00  0.00    +0.000 A 
ATOM      7  N   UNL     1      -2.238  13.380  22.583  0.00  0.00    +0.000 NA
ATOM      8  C   UNL     1      -3.341  14.144  22.911  0.00  0.00    +0.000 A 
ATOM      9  C   UNL     1      -3.555  14.819  24.130  0.00  0.00    +0.000 A 
ATOM     10  C   UNL     1      -4.715  15.573  24.309  0.00  0.00    +0.000 A 
ATOM     11  C   UNL     1      -5.671  15.655  23.304  0.00  0.00    +0.000 A 
ATOM     12  C   UNL     1      -5.489  14.983  22.088  0.00  0.00    +0.000 A 
ATOM     13  C   UNL     1      -4.312  14.236  21.916  0.00  0.00    +0.000 A 
ATOM     14  S   UNL     1      -3.800  13.334  20.558  0.00  0.00    +0.000 S 
ATOM     15  C   UNL     1      -1.407  11.616  19.427  0.00  0.00    +0.000 C 
ATOM     16  C   UNL     1      -1.106  10.095  19.400  0.00  0.00    +0.000 C 
ENDBRANCH   1   2
BRANCH   1  17
ATOM     17  C   UNL     1       1.261   9.920  17.870  0.00  0.00    +0.000 C 
BRANCH  17  18
ATOM     18  C   UNL     1       1.885   8.571  17.566  0.00  0.00    +0.000 C 
BRANCH  18  19
ATOM     19  O   UNL     1       2.663   8.081  18.662  0.00  0.00    +0.000 OA
BRANCH  19  31
ATOM     20  O   UNL     1       1.787   6.444  20.615  0.00  0.00    +0.000 OA
ATOM     21  C   UNL     1       2.155   5.969  19.543  0.00  0.00    +0.000 C 
ATOM     22  C   UNL     1       1.931   4.512  19.215  0.00  0.00    +0.000 C 
ATOM     23  C   UNL     1       3.101   3.862  18.460  0.00  0.00    +0.000 C 
ATOM     24  C   UNL     1       2.632   2.499  17.884  0.00  0.00    +0.000 C 
ATOM     25  C   UNL     1       3.571   1.447  18.453  0.00  0.00    +0.000 C 
ATOM     26  C   UNL     1       4.043   2.042  19.765  0.00  0.00    +0.000 C 
ATOM     27  C   UNL     1       4.256   3.510  19.425  0.00  0.00    +0.000 C 
ATOM     28  C   UNL     1       3.583   4.775  17.329  0.00  0.00    +0.000 C 
ATOM     29  C   UNL     1       3.768   6.210  17.761  0.00  0.00    +0.000 C 
ATOM     30  O   UNL     1       4.741   6.869  17.405  0.00  0.00    +0.000 OA
ATOM     31  N   UNL     1       2.687   6.676  18.483  0.00  0.00    +0.000 N 
ENDBRANCH  19  31
ENDBRANCH  18  19
ENDBRANCH  17  18
ENDBRANCH   1  17
TORSDOF 5
ENDMDL
MODEL 6
REMARK VINA RESULT:      -7.4      4.511     11.271
REMARK  Name = 
REMARK  5 active torsions:
REMARK  status: ('A' for Active; 'I' for Inactive)
REMARK    1  A    between atoms: N_12  and  O_13
REMARK    2  A    between atoms: O_13  and  C_14
REMARK    3  A    between atoms: C_14  and  C_15
REMARK    4  A    between atoms: C_15  and  C_16
REMARK    5  A    between atoms: C_16  and  N_17
REMARK                            x       y       z     vdW  Elec       q    Type
REMARK                         _______ _______ _______ _____ _____    ______ ____
ROOT
ATOM      1  C   UNL     1       1.093   9.940  19.555  0.00  0.00    +0.000 C 
ENDROOT
BRANCH   1   2
ATOM      2  N   UNL     1      -0.226  10.580  19.597  0.00  0.00    +0.000 NA
ATOM      3  C   UNL     1      -0.828  10.591  20.953  0.00  0.00    +0.000 C 
ATOM      4  C   UNL     1      -0.085  11.473  21.984  0.00  0.00    +0.000 C 
ATOM      5  N   UNL     1       0.053  12.836  21.461  0.00  0.00    +0.000 N 
ATOM      6  C   UNL     1      -0.319  13.895  22.231  0.00  0.00    +0.000 A 
ATOM      7  N   UNL     1      -0.772  13.765  23.458  0.00  0.00    +0.000 NA
ATOM      8  C   UNL     1      -1.068  14.990  24.022  0.00  0.00    +0.000 A 
ATOM      9  C   UNL     1      -1.556  15.211  25.327  0.00  0.00    +0.000 A 
ATOM     10  C   UNL     1      -1.790  16.514  25.766  0.00  0.00    +0.000 A 
ATOM     11  C   UNL     1      -1.563  17.599  24.927  0.00  0.00    +0.000 A 
ATOM     12  C   UNL     1      -1.092  17.405  23.622  0.00  0.00    +0.000 A 
ATOM     13  C   UNL     1      -0.850  16.090  23.195  0.00  0.00    +0.000 A 
ATOM     14  S   UNL     1      -0.263  15.540  21.688  0.00  0.00    +0.000 S 
ATOM     15  C   UNL     1       0.614  12.948  20.115  0.00  0.00    +0.000 C 
ATOM     16  C   UNL     1      -0.122  11.993  19.141  0.00  0.00    +0.000 C 
ENDBRANCH   1   2
BRANCH   1  17
ATOM     17  C   UNL     1       1.779   9.961  18.184  0.00  0.00    +0.000 C 
BRANCH  17  18
ATOM     18  C   UNL     1       1.986   8.526  17.737  0.00  0.00    +0.000 C 
BRANCH  18  19
ATOM     19  O   UNL     1       3.312   8.066  18.014  0.00  0.00    +0.000 OA
BRANCH  19  31
ATOM     20  O   UNL     1       2.246   6.686  20.070  0.00  0.00    +0.000 OA
ATOM     21  C   UNL     1       2.598   6.090  19.055  0.00  0.00    +0.000 C 
ATOM     22  C   UNL     1       2.258   4.634  18.845  0.00  0.00    +0.000 C 
ATOM     23  C   UNL     1       3.387   3.823  18.189  0.00  0.00    +0.000 C 
ATOM     24  C   UNL     1       2.816   2.459  17.716  0.00  0.00    +0.000 C 
ATOM     25  C   UNL     1       3.645   1.386  18.404  0.00  0.00    +0.000 C 
ATOM     26  C   UNL     1       4.132   2.053  19.676  0.00  0.00    +0.000 C 
ATOM     27  C   UNL     1       4.481   3.462  19.218  0.00  0.00    +0.000 C 
ATOM     28  C   UNL     1       3.976   4.589  17.001  0.00  0.00    +0.000 C 
ATOM     29  C   UNL     1       4.273   6.036  17.314  0.00  0.00    +0.000 C 
ATOM     30  O   UNL     1       5.309   6.577  16.937  0.00  0.00    +0.000 OA
ATOM     31  N   UNL     1       3.218   6.653  17.957  0.00  0.00    +0.000 N 
ENDBRANCH  19  31
ENDBRANCH  18  19
ENDBRANCH  17  18
ENDBRANCH   1  17
TORSDOF 5
ENDMDL
MODEL 7
REMARK VINA RESULT:      -7.4      6.302      8.292
REMARK  Name = 
REMARK  5 active torsions:
REMARK  status: ('A' for Active; 'I' for Inactive)
REMARK    1  A    between atoms: N_12  and  O_13
REMARK    2  A    between atoms: O_13  and  C_14
REMARK    3  A    between atoms: C_14  and  C_15
REMARK    4  A    between atoms: C_15  and  C_16
REMARK    5  A    between atoms: C_16  and  N_17
REMARK                            x       y       z     vdW  Elec       q    Type
REMARK                         _______ _______ _______ _____ _____    ______ ____
ROOT
ATOM      1  C   UNL     1       7.763   8.008  17.128  0.00  0.00    +0.000 C 
ENDROOT
BRANCH   1   2
ATOM      2  N   UNL     1       7.623   6.555  16.983  0.00  0.00    +0.000 NA
ATOM      3  C   UNL     1       7.501   5.847  18.282  0.00  0.00    +0.000 C 
ATOM      4  C   UNL     1       6.203   6.151  19.066  0.00  0.00    +0.000 C 
ATOM      5  N   UNL     1       5.038   5.888  18.215  0.00  0.00    +0.000 N 
ATOM      6  C   UNL     1       4.022   5.112  18.683  0.00  0.00    +0.000 A 
ATOM      7  N   UNL     1       4.008   4.604  19.895  0.00  0.00    +0.000 NA
ATOM      8  C   UNL     1       2.863   3.866  20.123  0.00  0.00    +0.000 A 
ATOM      9  C   UNL     1       2.524   3.203  21.320  0.00  0.00    +0.000 A 
ATOM     10  C   UNL     1       1.315   2.511  21.408  0.00  0.00    +0.000 A 
ATOM     11  C   UNL     1       0.447   2.455  20.324  0.00  0.00    +0.000 A 
ATOM     12  C   UNL     1       0.768   3.095  19.119  0.00  0.00    +0.000 A 
ATOM     13  C   UNL     1       1.981   3.797  19.046  0.00  0.00    +0.000 A 
ATOM     14  S   UNL     1       2.634   4.682  17.739  0.00  0.00    +0.000 S 
ATOM     15  C   UNL     1       5.059   6.516  16.894  0.00  0.00    +0.000 C 
ATOM     16  C   UNL     1       6.409   6.237  16.184  0.00  0.00    +0.000 C 
ENDBRANCH   1   2
BRANCH   1  17
ATOM     17  C   UNL     1       8.400   8.467  18.445  0.00  0.00    +0.000 C 
BRANCH  17  18
ATOM     18  C   UNL     1       8.785   9.928  18.299  0.00  0.00    +0.000 C 
BRANCH  18  19
ATOM     19  O   UNL     1       9.787  10.314  19.243  0.00  0.00    +0.000 OA
BRANCH  19  31
ATOM     20  O   UNL     1      11.464  12.098  18.114  0.00  0.00    +0.000 OA
ATOM     21  C   UNL     1      10.487  12.496  18.745  0.00  0.00    +0.000 C 
ATOM     22  C   UNL     1      10.084  13.951  18.728  0.00  0.00    +0.000 C 
ATOM     23  C   UNL     1       9.589  14.472  20.086  0.00  0.00    +0.000 C 
ATOM     24  C   UNL     1       8.892  15.843  19.874  0.00  0.00    +0.000 C 
ATOM     25  C   UNL     1       9.628  16.839  20.757  0.00  0.00    +0.000 C 
ATOM     26  C   UNL     1      11.026  16.262  20.880  0.00  0.00    +0.000 C 
ATOM     27  C   UNL     1      10.774  14.769  21.032  0.00  0.00    +0.000 C 
ATOM     28  C   UNL     1       8.612  13.477  20.718  0.00  0.00    +0.000 C 
ATOM     29  C   UNL     1       9.106  12.050  20.677  0.00  0.00    +0.000 C 
ATOM     30  O   UNL     1       8.988  11.301  21.642  0.00  0.00    +0.000 OA
ATOM     31  N   UNL     1       9.585  11.704  19.429  0.00  0.00    +0.000 N 
ENDBRANCH  19  31
ENDBRANCH  18  19
ENDBRANCH  17  18
ENDBRANCH   1  17
TORSDOF 5
ENDMDL
MODEL 8
REMARK VINA RESULT:      -7.4      4.791      7.369
REMARK  Name = 
REMARK  5 active torsions:
REMARK  status: ('A' for Active; 'I' for Inactive)
REMARK    1  A    between atoms: N_12  and  O_13
REMARK    2  A    between atoms: O_13  and  C_14
REMARK    3  A    between atoms: C_14  and  C_15
REMARK    4  A    between atoms: C_15  and  C_16
REMARK    5  A    between atoms: C_16  and  N_17
REMARK                            x       y       z     vdW  Elec       q    Type
REMARK                         _______ _______ _______ _____ _____    ______ ____
ROOT
ATOM      1  C   UNL     1       0.958  11.300  20.713  0.00  0.00    +0.000 C 
ENDROOT
BRANCH   1   2
ATOM      2  N   UNL     1       0.108  10.256  20.127  0.00  0.00    +0.000 NA
ATOM      3  C   UNL     1       0.636   9.723  18.847  0.00  0.00    +0.000 C 
ATOM      4  C   UNL     1       1.960   8.934  18.970  0.00  0.00    +0.000 C 
ATOM      5  N   UNL     1       1.806   7.862  19.960  0.00  0.00    +0.000 N 
ATOM      6  C   UNL     1       2.172   6.591  19.640  0.00  0.00    +0.000 A 
ATOM      7  N   UNL     1       2.703   6.267  18.482  0.00  0.00    +0.000 NA
ATOM      8  C   UNL     1       2.993   4.919  18.415  0.00  0.00    +0.000 A 
ATOM      9  C   UNL     1       3.583   4.246  17.325  0.00  0.00    +0.000 A 
ATOM     10  C   UNL     1       3.836   2.877  17.413  0.00  0.00    +0.000 A 
ATOM     11  C   UNL     1       3.500   2.163  18.557  0.00  0.00    +0.000 A 
ATOM     12  C   UNL     1       2.900   2.806  19.649  0.00  0.00    +0.000 A 
ATOM     13  C   UNL     1       2.660   4.186  19.552  0.00  0.00    +0.000 A 
ATOM     14  S   UNL     1       1.971   5.240  20.707  0.00  0.00    +0.000 S 
ATOM     15  C   UNL     1       1.267   8.266  21.258  0.00  0.00    +0.000 C 
ATOM     16  C   UNL     1      -0.018   9.113  21.071  0.00  0.00    +0.000 C 
ENDBRANCH   1   2
BRANCH   1  17
ATOM     17  C   UNL     1       0.296  12.677  20.837  0.00  0.00    +0.000 C 
BRANCH  17  18
ATOM     18  C   UNL     1      -0.844  12.564  21.833  0.00  0.00    +0.000 C 
BRANCH  18  19
ATOM     19  O   UNL     1      -1.361  13.845  22.202  0.00  0.00    +0.000 OA
BRANCH  19  31
ATOM     20  O   UNL     1      -3.470  14.170  20.555  0.00  0.00    +0.000 OA
ATOM     21  C   UNL     1      -3.647  13.735  21.690  0.00  0.00    +0.000 C 
ATOM     22  C   UNL     1      -4.984  13.181  22.116  0.00  0.00    +0.000 C 
ATOM     23  C   UNL     1      -5.374  13.544  23.558  0.00  0.00    +0.000 C 
ATOM     24  C   UNL     1      -6.571  12.656  23.994  0.00  0.00    +0.000 C 
ATOM     25  C   UNL     1      -7.688  13.608  24.390  0.00  0.00    +0.000 C 
ATOM     26  C   UNL     1      -7.417  14.858  23.576  0.00  0.00    +0.000 C 
ATOM     27  C   UNL     1      -5.903  14.994  23.640  0.00  0.00    +0.000 C 
ATOM     28  C   UNL     1      -4.189  13.333  24.503  0.00  0.00    +0.000 C 
ATOM     29  C   UNL     1      -2.898  13.918  23.981  0.00  0.00    +0.000 C 
ATOM     30  O   UNL     1      -2.130  14.536  24.711  0.00  0.00    +0.000 OA
ATOM     31  N   UNL     1      -2.675  13.581  22.660  0.00  0.00    +0.000 N 
ENDBRANCH  19  31
ENDBRANCH  18  19
ENDBRANCH  17  18
ENDBRANCH   1  17
TORSDOF 5
ENDMDL
MODEL 9
REMARK VINA RESULT:      -7.4      7.552     10.559
REMARK  Name = 
REMARK  5 active torsions:
REMARK  status: ('A' for Active; 'I' for Inactive)
REMARK    1  A    between atoms: N_12  and  O_13
REMARK    2  A    between atoms: O_13  and  C_14
REMARK    3  A    between atoms: C_14  and  C_15
REMARK    4  A    between atoms: C_15  and  C_16
REMARK    5  A    between atoms: C_16  and  N_17
REMARK                            x       y       z     vdW  Elec       q    Type
REMARK                         _______ _______ _______ _____ _____    ______ ____
ROOT
ATOM      1  C   UNL     1       8.259   9.958  17.968  0.00  0.00    +0.000 C 
ENDROOT
BRANCH   1   2
ATOM      2  N   UNL     1       9.604  10.222  18.491  0.00  0.00    +0.000 NA
ATOM      3  C   UNL     1      10.286  11.349  17.808  0.00  0.00    +0.000 C 
ATOM      4  C   UNL     1       9.644  12.735  18.048  0.00  0.00    +0.000 C 
ATOM      5  N   UNL     1       9.532  12.986  19.489  0.00  0.00    +0.000 N 
ATOM      6  C   UNL     1       9.994  14.157  20.007  0.00  0.00    +0.000 A 
ATOM      7  N   UNL     1      10.514  15.112  19.269  0.00  0.00    +0.000 NA
ATOM      8  C   UNL     1      10.895  16.196  20.036  0.00  0.00    +0.000 A 
ATOM      9  C   UNL     1      11.469  17.393  19.561  0.00  0.00    +0.000 A 
ATOM     10  C   UNL     1      11.783  18.413  20.459  0.00  0.00    +0.000 A 
ATOM     11  C   UNL     1      11.552  18.258  21.820  0.00  0.00    +0.000 A 
ATOM     12  C   UNL     1      10.995  17.073  22.320  0.00  0.00    +0.000 A 
ATOM     13  C   UNL     1      10.673  16.058  21.405  0.00  0.00    +0.000 A 
ATOM     14  S   UNL     1       9.974  14.527  21.700  0.00  0.00    +0.000 S 
ATOM     15  C   UNL     1       8.897  11.928  20.272  0.00  0.00    +0.000 C 
ATOM     16  C   UNL     1       9.532  10.553  19.940  0.00  0.00    +0.000 C 
ENDBRANCH   1   2
BRANCH   1  17
ATOM     17  C   UNL     1       7.674   8.593  18.348  0.00  0.00    +0.000 C 
BRANCH  17  18
ATOM     18  C   UNL     1       7.827   7.665  17.157  0.00  0.00    +0.000 C 
BRANCH  18  19
ATOM     19  O   UNL     1       7.846   6.290  17.548  0.00  0.00    +0.000 OA
BRANCH  19  31
ATOM     20  O   UNL     1       6.911   5.278  19.865  0.00  0.00    +0.000 OA
ATOM     21  C   UNL     1       6.134   5.487  18.935  0.00  0.00    +0.000 C 
ATOM     22  C   UNL     1       4.640   5.390  19.127  0.00  0.00    +0.000 C 
ATOM     23  C   UNL     1       3.903   4.759  17.935  0.00  0.00    +0.000 C 
ATOM     24  C   UNL     1       2.381   5.021  18.089  0.00  0.00    +0.000 C 
ATOM     25  C   UNL     1       1.710   3.657  18.091  0.00  0.00    +0.000 C 
ATOM     26  C   UNL     1       2.777   2.719  18.620  0.00  0.00    +0.000 C 
ATOM     27  C   UNL     1       4.046   3.221  17.945  0.00  0.00    +0.000 C 
ATOM     28  C   UNL     1       4.409   5.353  16.617  0.00  0.00    +0.000 C 
ATOM     29  C   UNL     1       5.916   5.412  16.530  0.00  0.00    +0.000 C 
ATOM     30  O   UNL     1       6.514   5.103  15.504  0.00  0.00    +0.000 OA
ATOM     31  N   UNL     1       6.480   5.937  17.676  0.00  0.00    +0.000 N 
ENDBRANCH  19  31
ENDBRANCH  18  19
ENDBRANCH  17  18
ENDBRANCH   1  17
TORSDOF 5
ENDMDL
