MODEL 1
REMARK VINA RESULT:      -7.3      0.000      0.000
REMARK  Name = 
REMARK  3 active torsions:
REMARK  status: ('A' for Active; 'I' for Inactive)
REMARK    1  A    between atoms: C_1  and  N_2
REMARK    2  A    between atoms: C_11  and  C_13
REMARK    3  A    between atoms: C_15  and  C_16
REMARK                            x       y       z     vdW  Elec       q    Type
REMARK                         _______ _______ _______ _____ _____    ______ ____
ROOT
ATOM      1  C   UNL     1       5.303   3.353  12.871  0.00  0.00    +0.000 C 
ATOM      2  N   UNL     1       6.266   4.289  13.409  0.00  0.00    +0.000 N 
ATOM      3  C   UNL     1       7.351   4.756  12.704  0.00  0.00    +0.000 C 
ATOM      4  O   UNL     1       7.601   4.575  11.524  0.00  0.00    +0.000 OA
ATOM      5  C   UNL     1       8.215   5.480  13.693  0.00  0.00    +0.000 C 
ATOM      6  O   UNL     1       7.374   5.684  14.836  0.00  0.00    +0.000 OA
ATOM      7  C   UNL     1       6.273   4.753  14.776  0.00  0.00    +0.000 C 
ATOM      8  C   UNL     1       5.000   5.541  15.118  0.00  0.00    +0.000 C 
ATOM      9  C   UNL     1       5.040   6.036  16.558  0.00  0.00    +0.000 C 
ATOM     10  N   UNL     1       5.221   4.904  17.458  0.00  0.00    +0.000 N 
ATOM     11  C   UNL     1       4.340   4.497  18.458  0.00  0.00    +0.000 C 
ATOM     12  O   UNL     1       4.568   3.549  19.201  0.00  0.00    +0.000 OA
ATOM     13  C   UNL     1       6.462   4.156  17.235  0.00  0.00    +0.000 C 
ATOM     14  C   UNL     1       6.529   3.631  15.797  0.00  0.00    +0.000 C 
ENDROOT
BRANCH  11  15
ATOM     15  C   UNL     1       3.058   5.253  18.612  0.00  0.00    +0.000 C 
ATOM     16  C   UNL     1       2.138   4.977  19.773  0.00  0.00    +0.000 C 
ATOM     17  C   UNL     1       2.900   6.280  19.727  0.00  0.00    +0.000 C 
BRANCH  17  18
ATOM     18  C   UNL     1       2.225   7.595  19.395  0.00  0.00    +0.000 A 
ATOM     19  C   UNL     1       2.315   8.199  18.128  0.00  0.00    +0.000 A 
ATOM     20  C   UNL     1       1.693   9.423  17.851  0.00  0.00    +0.000 A 
ATOM     21  C   UNL     1       0.952  10.067  18.837  0.00  0.00    +0.000 A 
ATOM     22  C   UNL     1       0.834   9.480  20.092  0.00  0.00    +0.000 A 
ATOM     23 BR   UNL     1      -0.181  10.339  21.435  0.00  0.00    +0.000 Br
ATOM     24  C   UNL     1       1.457   8.260  20.369  0.00  0.00    +0.000 A 
ENDBRANCH  17  18
ENDBRANCH  11  15
TORSDOF 2
ENDMDL
MODEL 2
REMARK VINA RESULT:      -7.2      4.641      6.610
REMARK  Name = 
REMARK  3 active torsions:
REMARK  status: ('A' for Active; 'I' for Inactive)
REMARK    1  A    between atoms: C_1  and  N_2
REMARK    2  A    between atoms: C_11  and  C_13
REMARK    3  A    between atoms: C_15  and  C_16
REMARK                            x       y       z     vdW  Elec       q    Type
REMARK                         _______ _______ _______ _____ _____    ______ ____
ROOT
ATOM      1  C   UNL     1       4.232   2.342  19.750  0.00  0.00    +0.000 C 
ATOM      2  N   UNL     1       3.283   3.113  18.975  0.00  0.00    +0.000 N 
ATOM      3  C   UNL     1       1.964   2.757  18.813  0.00  0.00    +0.000 C 
ATOM      4  O   UNL     1       1.366   1.853  19.372  0.00  0.00    +0.000 OA
ATOM      5  C   UNL     1       1.413   3.660  17.750  0.00  0.00    +0.000 C 
ATOM      6  O   UNL     1       2.373   4.719  17.632  0.00  0.00    +0.000 OA
ATOM      7  C   UNL     1       3.628   4.273  18.188  0.00  0.00    +0.000 C 
ATOM      8  C   UNL     1       4.164   5.416  19.062  0.00  0.00    +0.000 C 
ATOM      9  C   UNL     1       4.501   6.634  18.212  0.00  0.00    +0.000 C 
ATOM     10  N   UNL     1       5.462   6.260  17.182  0.00  0.00    +0.000 N 
ATOM     11  C   UNL     1       6.745   6.780  17.022  0.00  0.00    +0.000 C 
ATOM     12  O   UNL     1       7.494   6.439  16.113  0.00  0.00    +0.000 OA
ATOM     13  C   UNL     1       4.979   5.225  16.263  0.00  0.00    +0.000 C 
ATOM     14  C   UNL     1       4.588   3.957  17.028  0.00  0.00    +0.000 C 
ENDROOT
BRANCH  11  15
ATOM     15  C   UNL     1       7.219   7.790  18.018  0.00  0.00    +0.000 C 
ATOM     16  C   UNL     1       8.349   7.466  18.962  0.00  0.00    +0.000 C 
ATOM     17  C   UNL     1       8.578   8.459  17.848  0.00  0.00    +0.000 C 
BRANCH  17  18
ATOM     18  C   UNL     1       8.676   9.949  18.106  0.00  0.00    +0.000 A 
ATOM     19  C   UNL     1       8.045  10.907  17.292  0.00  0.00    +0.000 A 
ATOM     20  C   UNL     1       8.164  12.279  17.544  0.00  0.00    +0.000 A 
ATOM     21  C   UNL     1       8.910  12.726  18.630  0.00  0.00    +0.000 A 
ATOM     22  C   UNL     1       9.527  11.798  19.460  0.00  0.00    +0.000 A 
ATOM     23 BR   UNL     1      10.531  12.393  20.947  0.00  0.00    +0.000 Br
ATOM     24  C   UNL     1       9.411  10.428  19.206  0.00  0.00    +0.000 A 
ENDBRANCH  17  18
ENDBRANCH  11  15
TORSDOF 2
ENDMDL
MODEL 3
REMARK VINA RESULT:      -7.1      5.423      9.405
REMARK  Name = 
REMARK  3 active torsions:
REMARK  status: ('A' for Active; 'I' for Inactive)
REMARK    1  A    between atoms: C_1  and  N_2
REMARK    2  A    between atoms: C_11  and  C_13
REMARK    3  A    between atoms: C_15  and  C_16
REMARK                            x       y       z     vdW  Elec       q    Type
REMARK                         _______ _______ _______ _____ _____    ______ ____
ROOT
ATOM      1  C   UNL     1      -3.544  11.694  17.535  0.00  0.00    +0.000 C 
ATOM      2  N   UNL     1      -3.037  11.837  18.883  0.00  0.00    +0.000 N 
ATOM      3  C   UNL     1      -3.743  12.431  19.904  0.00  0.00    +0.000 C 
ATOM      4  O   UNL     1      -4.905  12.799  19.884  0.00  0.00    +0.000 OA
ATOM      5  C   UNL     1      -2.777  12.606  21.037  0.00  0.00    +0.000 C 
ATOM      6  O   UNL     1      -1.664  11.764  20.705  0.00  0.00    +0.000 OA
ATOM      7  C   UNL     1      -1.698  11.485  19.289  0.00  0.00    +0.000 C 
ATOM      8  C   UNL     1      -1.427   9.983  19.120  0.00  0.00    +0.000 C 
ATOM      9  C   UNL     1      -0.016   9.633  19.574  0.00  0.00    +0.000 C 
ATOM     10  N   UNL     1       0.949  10.433  18.829  0.00  0.00    +0.000 N 
ATOM     11  C   UNL     1       1.950   9.947  17.990  0.00  0.00    +0.000 C 
ATOM     12  O   UNL     1       2.749  10.676  17.413  0.00  0.00    +0.000 OA
ATOM     13  C   UNL     1       0.794  11.879  19.011  0.00  0.00    +0.000 C 
ATOM     14  C   UNL     1      -0.612  12.331  18.602  0.00  0.00    +0.000 C 
ENDROOT
BRANCH  11  15
ATOM     15  C   UNL     1       2.035   8.467  17.786  0.00  0.00    +0.000 C 
ATOM     16  C   UNL     1       3.269   7.844  17.187  0.00  0.00    +0.000 C 
ATOM     17  C   UNL     1       2.966   7.623  18.649  0.00  0.00    +0.000 C 
BRANCH  17  18
ATOM     18  C   UNL     1       2.448   6.300  19.173  0.00  0.00    +0.000 A 
ATOM     19  C   UNL     1       1.782   6.176  20.405  0.00  0.00    +0.000 A 
ATOM     20  C   UNL     1       1.325   4.937  20.873  0.00  0.00    +0.000 A 
ATOM     21  C   UNL     1       1.514   3.791  20.109  0.00  0.00    +0.000 A 
ATOM     22  C   UNL     1       2.153   3.891  18.878  0.00  0.00    +0.000 A 
ATOM     23 BR   UNL     1       2.403   2.342  17.824  0.00  0.00    +0.000 Br
ATOM     24  C   UNL     1       2.611   5.127  18.413  0.00  0.00    +0.000 A 
ENDBRANCH  17  18
ENDBRANCH  11  15
TORSDOF 2
ENDMDL
MODEL 4
REMARK VINA RESULT:      -7.0      5.672      9.352
REMARK  Name = 
REMARK  3 active torsions:
REMARK  status: ('A' for Active; 'I' for Inactive)
REMARK    1  A    between atoms: C_1  and  N_2
REMARK    2  A    between atoms: C_11  and  C_13
REMARK    3  A    between atoms: C_15  and  C_16
REMARK                            x       y       z     vdW  Elec       q    Type
REMARK                         _______ _______ _______ _____ _____    ______ ____
ROOT
ATOM      1  C   UNL     1      -3.616  11.376  15.812  0.00  0.00    +0.000 C 
ATOM      2  N   UNL     1      -3.610  11.475  17.255  0.00  0.00    +0.000 N 
ATOM      3  C   UNL     1      -4.670  11.953  17.991  0.00  0.00    +0.000 C 
ATOM      4  O   UNL     1      -5.785  12.234  17.586  0.00  0.00    +0.000 OA
ATOM      5  C   UNL     1      -4.163  12.131  19.391  0.00  0.00    +0.000 C 
ATOM      6  O   UNL     1      -2.933  11.396  19.434  0.00  0.00    +0.000 OA
ATOM      7  C   UNL     1      -2.460  11.200  18.085  0.00  0.00    +0.000 C 
ATOM      8  C   UNL     1      -2.014   9.735  17.972  0.00  0.00    +0.000 C 
ATOM      9  C   UNL     1      -0.814   9.465  18.871  0.00  0.00    +0.000 C 
ATOM     10  N   UNL     1       0.269  10.377  18.525  0.00  0.00    +0.000 N 
ATOM     11  C   UNL     1       1.535  10.018  18.065  0.00  0.00    +0.000 C 
ATOM     12  O   UNL     1       2.412  10.838  17.819  0.00  0.00    +0.000 OA
ATOM     13  C   UNL     1      -0.068  11.795  18.687  0.00  0.00    +0.000 C 
ATOM     14  C   UNL     1      -1.287  12.164  17.836  0.00  0.00    +0.000 C 
ENDROOT
BRANCH  11  15
ATOM     15  C   UNL     1       1.817   8.563  17.857  0.00  0.00    +0.000 C 
ATOM     16  C   UNL     1       3.178   8.102  17.402  0.00  0.00    +0.000 C 
ATOM     17  C   UNL     1       2.734   7.813  18.815  0.00  0.00    +0.000 C 
BRANCH  17  18
ATOM     18  C   UNL     1       2.319   6.426  19.260  0.00  0.00    +0.000 A 
ATOM     19  C   UNL     1       1.709   6.175  20.502  0.00  0.00    +0.000 A 
ATOM     20  C   UNL     1       1.347   4.880  20.896  0.00  0.00    +0.000 A 
ATOM     21  C   UNL     1       1.578   3.804  20.045  0.00  0.00    +0.000 A 
ATOM     22  C   UNL     1       2.162   4.029  18.804  0.00  0.00    +0.000 A 
ATOM     23 BR   UNL     1       2.466   2.577  17.634  0.00  0.00    +0.000 Br
ATOM     24  C   UNL     1       2.525   5.322  18.413  0.00  0.00    +0.000 A 
ENDBRANCH  17  18
ENDBRANCH  11  15
TORSDOF 2
ENDMDL
MODEL 5
REMARK VINA RESULT:      -6.9      5.331      9.603
REMARK  Name = 
REMARK  3 active torsions:
REMARK  status: ('A' for Active; 'I' for Inactive)
REMARK    1  A    between atoms: C_1  and  N_2
REMARK    2  A    between atoms: C_11  and  C_13
REMARK    3  A    between atoms: C_15  and  C_16
REMARK                            x       y       z     vdW  Elec       q    Type
REMARK                         _______ _______ _______ _____ _____    ______ ____
ROOT
ATOM      1  C   UNL     1      -3.236  11.999  19.753  0.00  0.00    +0.000 C 
ATOM      2  N   UNL     1      -2.298  12.032  20.855  0.00  0.00    +0.000 N 
ATOM      3  C   UNL     1      -2.585  12.580  22.083  0.00  0.00    +0.000 C 
ATOM      4  O   UNL     1      -3.663  12.992  22.477  0.00  0.00    +0.000 OA
ATOM      5  C   UNL     1      -1.286  12.643  22.829  0.00  0.00    +0.000 C 
ATOM      6  O   UNL     1      -0.400  11.785  22.097  0.00  0.00    +0.000 OA
ATOM      7  C   UNL     1      -0.922  11.605  20.765  0.00  0.00    +0.000 C 
ATOM      8  C   UNL     1      -0.811  10.108  20.437  0.00  0.00    +0.000 C 
ATOM      9  C   UNL     1       0.649   9.678  20.367  0.00  0.00    +0.000 C 
ATOM     10  N   UNL     1       1.351  10.490  19.381  0.00  0.00    +0.000 N 
ATOM     11  C   UNL     1       1.983  10.026  18.229  0.00  0.00    +0.000 C 
ATOM     12  O   UNL     1       2.581  10.763  17.454  0.00  0.00    +0.000 OA
ATOM     13  C   UNL     1       1.349  11.925  19.679  0.00  0.00    +0.000 C 
ATOM     14  C   UNL     1      -0.085  12.455  19.794  0.00  0.00    +0.000 C 
ENDROOT
BRANCH  11  15
ATOM     15  C   UNL     1       1.909   8.561  17.933  0.00  0.00    +0.000 C 
ATOM     16  C   UNL     1       2.947   7.900  17.062  0.00  0.00    +0.000 C 
ATOM     17  C   UNL     1       2.924   7.601  18.541  0.00  0.00    +0.000 C 
BRANCH  17  18
ATOM     18  C   UNL     1       2.420   6.281  19.088  0.00  0.00    +0.000 A 
ATOM     19  C   UNL     1       1.749   6.173  20.319  0.00  0.00    +0.000 A 
ATOM     20  C   UNL     1       1.304   4.938  20.808  0.00  0.00    +0.000 A 
ATOM     21  C   UNL     1       1.511   3.780  20.066  0.00  0.00    +0.000 A 
ATOM     22  C   UNL     1       2.154   3.864  18.837  0.00  0.00    +0.000 A 
ATOM     23 BR   UNL     1       2.427   2.299  17.813  0.00  0.00    +0.000 Br
ATOM     24  C   UNL     1       2.600   5.097  18.350  0.00  0.00    +0.000 A 
ENDBRANCH  17  18
ENDBRANCH  11  15
TORSDOF 2
ENDMDL
MODEL 6
REMARK VINA RESULT:      -6.6      5.212      8.880
REMARK  Name = 
REMARK  3 active torsions:
REMARK  status: ('A' for Active; 'I' for Inactive)
REMARK    1  A    between atoms: C_1  and  N_2
REMARK    2  A    between atoms: C_11  and  C_13
REMARK    3  A    between atoms: C_15  and  C_16
REMARK                            x       y       z     vdW  Elec       q    Type
REMARK                         _______ _______ _______ _____ _____    ______ ____
ROOT
ATOM      1  C   UNL     1       3.124  14.095  19.289  0.00  0.00    +0.000 C 
ATOM      2  N   UNL     1       1.681  13.991  19.316  0.00  0.00    +0.000 N 
ATOM      3  C   UNL     1       0.837  15.077  19.279  0.00  0.00    +0.000 C 
ATOM      4  O   UNL     1       1.140  16.243  19.093  0.00  0.00    +0.000 OA
ATOM      5  C   UNL     1      -0.534  14.555  19.586  0.00  0.00    +0.000 C 
ATOM      6  O   UNL     1      -0.432  13.134  19.423  0.00  0.00    +0.000 OA
ATOM      7  C   UNL     1       0.958  12.755  19.502  0.00  0.00    +0.000 C 
ATOM      8  C   UNL     1       1.220  11.764  18.358  0.00  0.00    +0.000 C 
ATOM      9  C   UNL     1       0.431  10.477  18.567  0.00  0.00    +0.000 C 
ATOM     10  N   UNL     1       0.775   9.898  19.859  0.00  0.00    +0.000 N 
ATOM     11  C   UNL     1       1.349   8.646  20.076  0.00  0.00    +0.000 C 
ATOM     12  O   UNL     1       1.588   8.208  21.195  0.00  0.00    +0.000 OA
ATOM     13  C   UNL     1       0.475  10.766  21.002  0.00  0.00    +0.000 C 
ATOM     14  C   UNL     1       1.207  12.106  20.874  0.00  0.00    +0.000 C 
ENDROOT
BRANCH  11  15
ATOM     15  C   UNL     1       1.694   7.818  18.878  0.00  0.00    +0.000 C 
ATOM     16  C   UNL     1       2.757   8.272  17.911  0.00  0.00    +0.000 C 
ATOM     17  C   UNL     1       3.029   7.088  18.807  0.00  0.00    +0.000 C 
BRANCH  17  18
ATOM     18  C   UNL     1       3.037   5.667  18.281  0.00  0.00    +0.000 A 
ATOM     19  C   UNL     1       3.963   5.213  17.325  0.00  0.00    +0.000 A 
ATOM     20  C   UNL     1       3.940   3.897  16.846  0.00  0.00    +0.000 A 
ATOM     21  C   UNL     1       2.993   2.997  17.325  0.00  0.00    +0.000 A 
ATOM     22  C   UNL     1       2.080   3.417  18.285  0.00  0.00    +0.000 A 
ATOM     23 BR   UNL     1       0.798   2.200  18.954  0.00  0.00    +0.000 Br
ATOM     24  C   UNL     1       2.101   4.732  18.761  0.00  0.00    +0.000 A 
ENDBRANCH  17  18
ENDBRANCH  11  15
TORSDOF 2
ENDMDL
MODEL 7
REMARK VINA RESULT:      -6.5      4.099      8.108
REMARK  Name = 
REMARK  3 active torsions:
REMARK  status: ('A' for Active; 'I' for Inactive)
REMARK    1  A    between atoms: C_1  and  N_2
REMARK    2  A    between atoms: C_11  and  C_13
REMARK    3  A    between atoms: C_15  and  C_16
REMARK                            x       y       z     vdW  Elec       q    Type
REMARK                         _______ _______ _______ _____ _____    ______ ____
ROOT
ATOM      1  C   UNL     1       1.926   5.468  19.174  0.00  0.00    +0.000 C 
ATOM      2  N   UNL     1       2.725   4.283  19.401  0.00  0.00    +0.000 N 
ATOM      3  C   UNL     1       2.416   3.323  20.336  0.00  0.00    +0.000 C 
ATOM      4  O   UNL     1       1.401   3.242  21.007  0.00  0.00    +0.000 OA
ATOM      5  C   UNL     1       3.613   2.424  20.427  0.00  0.00    +0.000 C 
ATOM      6  O   UNL     1       4.392   2.729  19.262  0.00  0.00    +0.000 OA
ATOM      7  C   UNL     1       3.994   4.023  18.763  0.00  0.00    +0.000 C 
ATOM      8  C   UNL     1       3.850   3.892  17.240  0.00  0.00    +0.000 C 
ATOM      9  C   UNL     1       5.197   3.599  16.592  0.00  0.00    +0.000 C 
ATOM     10  N   UNL     1       6.148   4.646  16.947  0.00  0.00    +0.000 N 
ATOM     11  C   UNL     1       6.801   5.501  16.061  0.00  0.00    +0.000 C 
ATOM     12  O   UNL     1       7.613   6.344  16.426  0.00  0.00    +0.000 OA
ATOM     13  C   UNL     1       6.390   4.770  18.387  0.00  0.00    +0.000 C 
ATOM     14  C   UNL     1       5.082   5.044  19.137  0.00  0.00    +0.000 C 
ENDROOT
BRANCH  11  15
ATOM     15  C   UNL     1       6.479   5.380  14.605  0.00  0.00    +0.000 C 
ATOM     16  C   UNL     1       7.526   5.669  13.561  0.00  0.00    +0.000 C 
ATOM     17  C   UNL     1       7.073   4.246  13.778  0.00  0.00    +0.000 C 
BRANCH  17  18
ATOM     18  C   UNL     1       6.168   3.530  12.796  0.00  0.00    +0.000 A 
ATOM     19  C   UNL     1       5.030   4.132  12.230  0.00  0.00    +0.000 A 
ATOM     20  C   UNL     1       4.202   3.444  11.334  0.00  0.00    +0.000 A 
ATOM     21  C   UNL     1       4.504   2.134  10.973  0.00  0.00    +0.000 A 
ATOM     22  C   UNL     1       5.634   1.524  11.505  0.00  0.00    +0.000 A 
ATOM     23 BR   UNL     1       6.061  -0.249  11.011  0.00  0.00    +0.000 Br
ATOM     24  C   UNL     1       6.459   2.211  12.401  0.00  0.00    +0.000 A 
ENDBRANCH  17  18
ENDBRANCH  11  15
TORSDOF 2
ENDMDL
MODEL 8
REMARK VINA RESULT:      -6.5      5.494      9.392
REMARK  Name = 
REMARK  3 active torsions:
REMARK  status: ('A' for Active; 'I' for Inactive)
REMARK    1  A    between atoms: C_1  and  N_2
REMARK    2  A    between atoms: C_11  and  C_13
REMARK    3  A    between atoms: C_15  and  C_16
REMARK                            x       y       z     vdW  Elec       q    Type
REMARK                         _______ _______ _______ _____ _____    ______ ____
ROOT
ATOM      1  C   UNL     1       1.623  14.332  19.352  0.00  0.00    +0.000 C 
ATOM      2  N   UNL     1       0.264  13.914  19.620  0.00  0.00    +0.000 N 
ATOM      3  C   UNL     1      -0.786  14.789  19.775  0.00  0.00    +0.000 C 
ATOM      4  O   UNL     1      -0.779  15.994  19.593  0.00  0.00    +0.000 OA
ATOM      5  C   UNL     1      -1.938  13.977  20.289  0.00  0.00    +0.000 C 
ATOM      6  O   UNL     1      -1.563  12.613  20.048  0.00  0.00    +0.000 OA
ATOM      7  C   UNL     1      -0.132  12.548  19.872  0.00  0.00    +0.000 C 
ATOM      8  C   UNL     1       0.131  11.645  18.658  0.00  0.00    +0.000 C 
ATOM      9  C   UNL     1      -0.314  10.216  18.941  0.00  0.00    +0.000 C 
ATOM     10  N   UNL     1       0.369   9.719  20.129  0.00  0.00    +0.000 N 
ATOM     11  C   UNL     1       1.228   8.622  20.190  0.00  0.00    +0.000 C 
ATOM     12  O   UNL     1       1.748   8.240  21.231  0.00  0.00    +0.000 OA
ATOM     13  C   UNL     1       0.095  10.493  21.344  0.00  0.00    +0.000 C 
ATOM     14  C   UNL     1       0.488  11.962  21.152  0.00  0.00    +0.000 C 
ENDROOT
BRANCH  11  15
ATOM     15  C   UNL     1       1.526   7.897  18.916  0.00  0.00    +0.000 C 
ATOM     16  C   UNL     1       2.384   8.533  17.852  0.00  0.00    +0.000 C 
ATOM     17  C   UNL     1       2.928   7.367  18.642  0.00  0.00    +0.000 C 
BRANCH  17  18
ATOM     18  C   UNL     1       3.062   5.982  18.043  0.00  0.00    +0.000 A 
ATOM     19  C   UNL     1       2.078   4.988  18.191  0.00  0.00    +0.000 A 
ATOM     20  C   UNL     1       2.233   3.711  17.638  0.00  0.00    +0.000 A 
ATOM     21  C   UNL     1       3.378   3.401  16.910  0.00  0.00    +0.000 A 
ATOM     22  C   UNL     1       4.356   4.373  16.734  0.00  0.00    +0.000 A 
ATOM     23 BR   UNL     1       5.908   3.968  15.734  0.00  0.00    +0.000 Br
ATOM     24  C   UNL     1       4.202   5.647  17.288  0.00  0.00    +0.000 A 
ENDBRANCH  17  18
ENDBRANCH  11  15
TORSDOF 2
ENDMDL
MODEL 9
REMARK VINA RESULT:      -6.4      6.394      9.718
REMARK  Name = 
REMARK  3 active torsions:
REMARK  status: ('A' for Active; 'I' for Inactive)
REMARK    1  A    between atoms: C_1  and  N_2
REMARK    2  A    between atoms: C_11  and  C_13
REMARK    3  A    between atoms: C_15  and  C_16
REMARK                            x       y       z     vdW  Elec       q    Type
REMARK                         _______ _______ _______ _____ _____    ______ ____
ROOT
ATOM      1  C   UNL     1       1.433   8.018  20.923  0.00  0.00    +0.000 C 
ATOM      2  N   UNL     1       1.303   8.987  19.855  0.00  0.00    +0.000 N 
ATOM      3  C   UNL     1       1.885   8.839  18.617  0.00  0.00    +0.000 C 
ATOM      4  O   UNL     1       2.468   7.859  18.185  0.00  0.00    +0.000 OA
ATOM      5  C   UNL     1       1.726  10.156  17.918  0.00  0.00    +0.000 C 
ATOM      6  O   UNL     1       0.736  10.860  18.681  0.00  0.00    +0.000 OA
ATOM      7  C   UNL     1       0.653  10.268  19.994  0.00  0.00    +0.000 C 
ATOM      8  C   UNL     1      -0.839  10.116  20.325  0.00  0.00    +0.000 C 
ATOM      9  C   UNL     1      -1.507  11.480  20.447  0.00  0.00    +0.000 C 
ATOM     10  N   UNL     1      -0.818  12.273  21.457  0.00  0.00    +0.000 N 
ATOM     11  C   UNL     1      -1.375  12.777  22.632  0.00  0.00    +0.000 C 
ATOM     12  O   UNL     1      -0.744  13.462  23.427  0.00  0.00    +0.000 OA
ATOM     13  C   UNL     1       0.596  12.521  21.160  0.00  0.00    +0.000 C 
ATOM     14  C   UNL     1       1.356  11.201  20.994  0.00  0.00    +0.000 C 
ENDROOT
BRANCH  11  15
ATOM     15  C   UNL     1      -2.805  12.449  22.924  0.00  0.00    +0.000 C 
ATOM     16  C   UNL     1      -3.567  13.211  23.978  0.00  0.00    +0.000 C 
ATOM     17  C   UNL     1      -3.913  13.416  22.524  0.00  0.00    +0.000 C 
BRANCH  17  18
ATOM     18  C   UNL     1      -5.172  12.841  21.907  0.00  0.00    +0.000 A 
ATOM     19  C   UNL     1      -6.383  12.725  22.614  0.00  0.00    +0.000 A 
ATOM     20  C   UNL     1      -7.529  12.178  22.025  0.00  0.00    +0.000 A 
ATOM     21  C   UNL     1      -7.493  11.743  20.703  0.00  0.00    +0.000 A 
ATOM     22  C   UNL     1      -6.314  11.865  19.978  0.00  0.00    +0.000 A 
ATOM     23 BR   UNL     1      -6.257  11.291  18.178  0.00  0.00    +0.000 Br
ATOM     24  C   UNL     1      -5.168  12.410  20.568  0.00  0.00    +0.000 A 
ENDBRANCH  17  18
ENDBRANCH  11  15
TORSDOF 2
ENDMDL
