MODEL 1
REMARK VINA RESULT:      -7.7      0.000      0.000
REMARK  Name = 
REMARK  16 active torsions:
REMARK  status: ('A' for Active; 'I' for Inactive)
REMARK    1  A    between atoms: C_1  and  O_2
REMARK    2  A    between atoms: O_2  and  C_3
REMARK    3  A    between atoms: C_6  and  N_7
REMARK    4  A    between atoms: C_8  and  O_10
REMARK    5  A    between atoms: O_10  and  C_11
REMARK    6  A    between atoms: C_11  and  C_12
REMARK    7  A    between atoms: C_11  and  C_24
REMARK    8  A    between atoms: C_12  and  N_13
REMARK    9  A    between atoms: C_15  and  C_16
REMARK   10  A    between atoms: C_16  and  C_17
REMARK   11  A    between atoms: C_16  and  C_18
REMARK   12  A    between atoms: C_20  and  C_21
REMARK   13  A    between atoms: C_21  and  C_22
REMARK   14  A    between atoms: C_21  and  C_23
REMARK   15  A    between atoms: C_24  and  C_25
REMARK   16  A    between atoms: C_24  and  C_26
REMARK                            x       y       z     vdW  Elec       q    Type
REMARK                         _______ _______ _______ _____ _____    ______ ____
ROOT
ATOM      1  C   UNL     1       3.363   4.718  18.318  0.00  0.00    +0.000 C 
ENDROOT
BRANCH   1   2
ATOM      2  C   UNL     1       4.109   3.348  18.330  0.00  0.00    +0.000 C 
ATOM      3  C   UNL     1       4.623   2.969  19.717  0.00  0.00    +0.000 C 
ATOM      4  C   UNL     1       3.262   2.203  17.758  0.00  0.00    +0.000 C 
ENDBRANCH   1   2
BRANCH   1   5
ATOM      5  O   UNL     1       3.420   5.320  19.637  0.00  0.00    +0.000 OA
BRANCH   5   7
ATOM      6  N   UNL     1       2.339   7.209  19.937  0.00  0.00    +0.000 N 
ATOM      7  C   UNL     1       2.273   5.862  20.144  0.00  0.00    +0.000 C 
ATOM      8  O   UNL     1       1.335   5.209  20.572  0.00  0.00    +0.000 OA
ATOM      9  H   UNL     1       3.071   7.463  19.288  0.00  0.00    +0.000 HD
BRANCH   6  13
ATOM     10  C   UNL     1       0.160  10.534  21.337  0.00  0.00    +0.000 A 
ATOM     11  C   UNL     1       0.562   9.541  22.237  0.00  0.00    +0.000 A 
ATOM     12  C   UNL     1       1.235   8.387  21.794  0.00  0.00    +0.000 A 
ATOM     13  C   UNL     1       1.530   8.237  20.445  0.00  0.00    +0.000 A 
ATOM     14  C   UNL     1       1.087   9.209  19.538  0.00  0.00    +0.000 A 
ATOM     15  C   UNL     1       0.399  10.348  19.978  0.00  0.00    +0.000 A 
BRANCH  10  17
ATOM     16  C   UNL     1      -1.302  11.346  23.023  0.00  0.00    +0.000 C 
ATOM     17  O   UNL     1      -0.487  11.609  21.883  0.00  0.00    +0.000 OA
ENDBRANCH  10  17
ENDBRANCH   6  13
ENDBRANCH   5   7
ENDBRANCH   1   5
BRANCH   1  18
ATOM     18  C   UNL     1       3.950   5.751  17.325  0.00  0.00    +0.000 C 
BRANCH  18  19
ATOM     19  N   UNL     1       5.133   5.320  16.584  0.00  0.00    +0.000 N 
ATOM     20  N   UNL     1       4.983   4.665  15.424  0.00  0.00    +0.000 NA
ATOM     21  C   UNL     1       6.206   4.508  14.924  0.00  0.00    +0.000 A 
ATOM     22  C   UNL     1       7.168   5.051  15.805  0.00  0.00    +0.000 A 
ATOM     23  C   UNL     1       6.455   5.577  16.872  0.00  0.00    +0.000 A 
BRANCH  21  24
ATOM     24  C   UNL     1       6.392   3.853  13.579  0.00  0.00    +0.000 C 
ATOM     25  C   UNL     1       5.061   3.633  12.850  0.00  0.00    +0.000 C 
ATOM     26  C   UNL     1       7.337   4.652  12.671  0.00  0.00    +0.000 C 
ENDBRANCH  21  24
BRANCH  23  27
ATOM     27  C   UNL     1       6.903   6.362  18.072  0.00  0.00    +0.000 C 
ATOM     28  C   UNL     1       7.729   5.519  19.041  0.00  0.00    +0.000 C 
ATOM     29  C   UNL     1       7.663   7.611  17.628  0.00  0.00    +0.000 C 
ENDBRANCH  23  27
ENDBRANCH  18  19
ENDBRANCH   1  18
TORSDOF 9
ENDMDL
MODEL 2
REMARK VINA RESULT:      -7.6      0.655      1.111
REMARK  Name = 
REMARK  16 active torsions:
REMARK  status: ('A' for Active; 'I' for Inactive)
REMARK    1  A    between atoms: C_1  and  O_2
REMARK    2  A    between atoms: O_2  and  C_3
REMARK    3  A    between atoms: C_6  and  N_7
REMARK    4  A    between atoms: C_8  and  O_10
REMARK    5  A    between atoms: O_10  and  C_11
REMARK    6  A    between atoms: C_11  and  C_12
REMARK    7  A    between atoms: C_11  and  C_24
REMARK    8  A    between atoms: C_12  and  N_13
REMARK    9  A    between atoms: C_15  and  C_16
REMARK   10  A    between atoms: C_16  and  C_17
REMARK   11  A    between atoms: C_16  and  C_18
REMARK   12  A    between atoms: C_20  and  C_21
REMARK   13  A    between atoms: C_21  and  C_22
REMARK   14  A    between atoms: C_21  and  C_23
REMARK   15  A    between atoms: C_24  and  C_25
REMARK   16  A    between atoms: C_24  and  C_26
REMARK                            x       y       z     vdW  Elec       q    Type
REMARK                         _______ _______ _______ _____ _____    ______ ____
ROOT
ATOM      1  C   UNL     1       3.308   5.377  17.879  0.00  0.00    +0.000 C 
ENDROOT
BRANCH   1   2
ATOM      2  C   UNL     1       3.708   3.871  17.812  0.00  0.00    +0.000 C 
ATOM      3  C   UNL     1       4.461   3.405  19.056  0.00  0.00    +0.000 C 
ATOM      4  C   UNL     1       2.511   2.947  17.552  0.00  0.00    +0.000 C 
ENDBRANCH   1   2
BRANCH   1   5
ATOM      5  O   UNL     1       3.494   5.876  19.229  0.00  0.00    +0.000 OA
BRANCH   5   7
ATOM      6  N   UNL     1       2.293   7.660  19.671  0.00  0.00    +0.000 N 
ATOM      7  C   UNL     1       2.394   6.320  19.905  0.00  0.00    +0.000 C 
ATOM      8  O   UNL     1       1.604   5.594  20.486  0.00  0.00    +0.000 OA
ATOM      9  H   UNL     1       2.884   7.964  18.910  0.00  0.00    +0.000 HD
BRANCH   6  13
ATOM     10  C   UNL     1      -0.358  10.266  21.660  0.00  0.00    +0.000 A 
ATOM     11  C   UNL     1      -0.193  10.372  20.274  0.00  0.00    +0.000 A 
ATOM     12  C   UNL     1       0.731   9.561  19.588  0.00  0.00    +0.000 A 
ATOM     13  C   UNL     1       1.476   8.621  20.288  0.00  0.00    +0.000 A 
ATOM     14  C   UNL     1       1.344   8.547  21.682  0.00  0.00    +0.000 A 
ATOM     15  C   UNL     1       0.439   9.369  22.366  0.00  0.00    +0.000 A 
BRANCH  10  17
ATOM     16  C   UNL     1      -1.804  12.126  21.368  0.00  0.00    +0.000 C 
ATOM     17  O   UNL     1      -1.283  11.106  22.217  0.00  0.00    +0.000 OA
ENDBRANCH  10  17
ENDBRANCH   6  13
ENDBRANCH   5   7
ENDBRANCH   1   5
BRANCH   1  18
ATOM     18  C   UNL     1       4.132   6.294  16.942  0.00  0.00    +0.000 C 
BRANCH  18  19
ATOM     19  N   UNL     1       5.311   5.685  16.331  0.00  0.00    +0.000 N 
ATOM     20  N   UNL     1       5.191   5.051  15.155  0.00  0.00    +0.000 NA
ATOM     21  C   UNL     1       6.424   4.708  14.790  0.00  0.00    +0.000 A 
ATOM     22  C   UNL     1       7.354   5.106  15.776  0.00  0.00    +0.000 A 
ATOM     23  C   UNL     1       6.616   5.742  16.764  0.00  0.00    +0.000 A 
BRANCH  21  24
ATOM     24  C   UNL     1       6.655   4.023  13.467  0.00  0.00    +0.000 C 
ATOM     25  C   UNL     1       5.342   3.635  12.775  0.00  0.00    +0.000 C 
ATOM     26  C   UNL     1       7.494   4.879  12.509  0.00  0.00    +0.000 C 
ENDBRANCH  21  24
BRANCH  23  27
ATOM     27  C   UNL     1       7.044   6.459  18.013  0.00  0.00    +0.000 C 
ATOM     28  C   UNL     1       7.879   5.573  18.933  0.00  0.00    +0.000 C 
ATOM     29  C   UNL     1       7.785   7.746  17.651  0.00  0.00    +0.000 C 
ENDBRANCH  23  27
ENDBRANCH  18  19
ENDBRANCH   1  18
TORSDOF 9
ENDMDL
MODEL 3
REMARK VINA RESULT:      -7.6      4.004      7.518
REMARK  Name = 
REMARK  16 active torsions:
REMARK  status: ('A' for Active; 'I' for Inactive)
REMARK    1  A    between atoms: C_1  and  O_2
REMARK    2  A    between atoms: O_2  and  C_3
REMARK    3  A    between atoms: C_6  and  N_7
REMARK    4  A    between atoms: C_8  and  O_10
REMARK    5  A    between atoms: O_10  and  C_11
REMARK    6  A    between atoms: C_11  and  C_12
REMARK    7  A    between atoms: C_11  and  C_24
REMARK    8  A    between atoms: C_12  and  N_13
REMARK    9  A    between atoms: C_15  and  C_16
REMARK   10  A    between atoms: C_16  and  C_17
REMARK   11  A    between atoms: C_16  and  C_18
REMARK   12  A    between atoms: C_20  and  C_21
REMARK   13  A    between atoms: C_21  and  C_22
REMARK   14  A    between atoms: C_21  and  C_23
REMARK   15  A    between atoms: C_24  and  C_25
REMARK   16  A    between atoms: C_24  and  C_26
REMARK                            x       y       z     vdW  Elec       q    Type
REMARK                         _______ _______ _______ _____ _____    ______ ____
ROOT
ATOM      1  C   UNL     1       6.410   6.547  17.104  0.00  0.00    +0.000 C 
ENDROOT
BRANCH   1   2
ATOM      2  C   UNL     1       7.199   5.330  16.531  0.00  0.00    +0.000 C 
ATOM      3  C   UNL     1       7.735   4.407  17.624  0.00  0.00    +0.000 C 
ATOM      4  C   UNL     1       6.386   4.516  15.515  0.00  0.00    +0.000 C 
ENDBRANCH   1   2
BRANCH   1   5
ATOM      5  O   UNL     1       7.152   7.771  16.866  0.00  0.00    +0.000 OA
BRANCH   5   7
ATOM      6  N   UNL     1       8.056   9.576  17.730  0.00  0.00    +0.000 N 
ATOM      7  C   UNL     1       7.982   8.219  17.853  0.00  0.00    +0.000 C 
ATOM      8  O   UNL     1       8.443   7.515  18.737  0.00  0.00    +0.000 OA
ATOM      9  H   UNL     1       7.341   9.947  17.119  0.00  0.00    +0.000 HD
BRANCH   6  13
ATOM     10  C   UNL     1      10.395  12.374  19.845  0.00  0.00    +0.000 A 
ATOM     11  C   UNL     1      10.111  12.591  18.492  0.00  0.00    +0.000 A 
ATOM     12  C   UNL     1       9.388  11.646  17.740  0.00  0.00    +0.000 A 
ATOM     13  C   UNL     1       8.923  10.488  18.351  0.00  0.00    +0.000 A 
ATOM     14  C   UNL     1       9.247  10.250  19.694  0.00  0.00    +0.000 A 
ATOM     15  C   UNL     1       9.984  11.182  20.436  0.00  0.00    +0.000 A 
BRANCH  10  17
ATOM     16  C   UNL     1      11.554  14.437  19.652  0.00  0.00    +0.000 C 
ATOM     17  O   UNL     1      11.106  13.360  20.472  0.00  0.00    +0.000 OA
ENDBRANCH  10  17
ENDBRANCH   6  13
ENDBRANCH   5   7
ENDBRANCH   1   5
BRANCH   1  18
ATOM     18  C   UNL     1       5.006   6.741  16.483  0.00  0.00    +0.000 C 
BRANCH  18  19
ATOM     19  N   UNL     1       3.903   6.880  17.431  0.00  0.00    +0.000 N 
ATOM     20  N   UNL     1       3.465   8.103  17.760  0.00  0.00    +0.000 NA
ATOM     21  C   UNL     1       2.397   7.921  18.533  0.00  0.00    +0.000 A 
ATOM     22  C   UNL     1       2.166   6.542  18.729  0.00  0.00    +0.000 A 
ATOM     23  C   UNL     1       3.147   5.882  18.004  0.00  0.00    +0.000 A 
BRANCH  21  24
ATOM     24  C   UNL     1       1.618   9.111  19.033  0.00  0.00    +0.000 C 
ATOM     25  C   UNL     1       0.557   9.576  18.029  0.00  0.00    +0.000 C 
ATOM     26  C   UNL     1       0.944   8.836  20.385  0.00  0.00    +0.000 C 
ENDBRANCH  21  24
BRANCH  23  27
ATOM     27  C   UNL     1       3.372   4.420  17.744  0.00  0.00    +0.000 C 
ATOM     28  C   UNL     1       4.262   3.772  18.802  0.00  0.00    +0.000 C 
ATOM     29  C   UNL     1       2.031   3.696  17.622  0.00  0.00    +0.000 C 
ENDBRANCH  23  27
ENDBRANCH  18  19
ENDBRANCH   1  18
TORSDOF 9
ENDMDL
MODEL 4
REMARK VINA RESULT:      -7.5      1.283      1.953
REMARK  Name = 
REMARK  16 active torsions:
REMARK  status: ('A' for Active; 'I' for Inactive)
REMARK    1  A    between atoms: C_1  and  O_2
REMARK    2  A    between atoms: O_2  and  C_3
REMARK    3  A    between atoms: C_6  and  N_7
REMARK    4  A    between atoms: C_8  and  O_10
REMARK    5  A    between atoms: O_10  and  C_11
REMARK    6  A    between atoms: C_11  and  C_12
REMARK    7  A    between atoms: C_11  and  C_24
REMARK    8  A    between atoms: C_12  and  N_13
REMARK    9  A    between atoms: C_15  and  C_16
REMARK   10  A    between atoms: C_16  and  C_17
REMARK   11  A    between atoms: C_16  and  C_18
REMARK   12  A    between atoms: C_20  and  C_21
REMARK   13  A    between atoms: C_21  and  C_22
REMARK   14  A    between atoms: C_21  and  C_23
REMARK   15  A    between atoms: C_24  and  C_25
REMARK   16  A    between atoms: C_24  and  C_26
REMARK                            x       y       z     vdW  Elec       q    Type
REMARK                         _______ _______ _______ _____ _____    ______ ____
ROOT
ATOM      1  C   UNL     1       3.602   4.414  18.237  0.00  0.00    +0.000 C 
ENDROOT
BRANCH   1   2
ATOM      2  C   UNL     1       2.589   3.282  18.589  0.00  0.00    +0.000 C 
ATOM      3  C   UNL     1       1.154   3.632  18.199  0.00  0.00    +0.000 C 
ATOM      4  C   UNL     1       2.976   1.926  17.984  0.00  0.00    +0.000 C 
ENDBRANCH   1   2
BRANCH   1   5
ATOM      5  O   UNL     1       3.496   5.489  19.206  0.00  0.00    +0.000 OA
BRANCH   5   7
ATOM      6  N   UNL     1       2.367   7.294  19.745  0.00  0.00    +0.000 N 
ATOM      7  C   UNL     1       3.115   6.721  18.758  0.00  0.00    +0.000 C 
ATOM      8  O   UNL     1       3.506   7.226  17.718  0.00  0.00    +0.000 OA
ATOM      9  H   UNL     1       2.450   6.803  20.625  0.00  0.00    +0.000 HD
BRANCH   6  13
ATOM     10  C   UNL     1      -0.305  10.553  19.741  0.00  0.00    +0.000 A 
ATOM     11  C   UNL     1       0.426  10.257  18.585  0.00  0.00    +0.000 A 
ATOM     12  C   UNL     1       1.374   9.216  18.572  0.00  0.00    +0.000 A 
ATOM     13  C   UNL     1       1.573   8.450  19.713  0.00  0.00    +0.000 A 
ATOM     14  C   UNL     1       0.873   8.777  20.884  0.00  0.00    +0.000 A 
ATOM     15  C   UNL     1      -0.055   9.826  20.902  0.00  0.00    +0.000 A 
BRANCH  10  17
ATOM     16  C   UNL     1      -1.862  11.724  18.382  0.00  0.00    +0.000 C 
ATOM     17  O   UNL     1      -1.196  11.587  19.635  0.00  0.00    +0.000 OA
ENDBRANCH  10  17
ENDBRANCH   6  13
ENDBRANCH   5   7
ENDBRANCH   1   5
BRANCH   1  18
ATOM     18  C   UNL     1       5.082   3.960  18.226  0.00  0.00    +0.000 C 
BRANCH  18  19
ATOM     19  N   UNL     1       5.863   4.362  17.058  0.00  0.00    +0.000 N 
ATOM     20  N   UNL     1       5.744   3.670  15.916  0.00  0.00    +0.000 NA
ATOM     21  C   UNL     1       6.468   4.323  15.009  0.00  0.00    +0.000 A 
ATOM     22  C   UNL     1       7.091   5.446  15.597  0.00  0.00    +0.000 A 
ATOM     23  C   UNL     1       6.684   5.458  16.923  0.00  0.00    +0.000 A 
BRANCH  21  24
ATOM     24  C   UNL     1       6.501   3.839  13.582  0.00  0.00    +0.000 C 
ATOM     25  C   UNL     1       5.097   3.689  12.984  0.00  0.00    +0.000 C 
ATOM     26  C   UNL     1       7.337   4.755  12.678  0.00  0.00    +0.000 C 
ENDBRANCH  21  24
BRANCH  23  27
ATOM     27  C   UNL     1       6.933   6.448  18.026  0.00  0.00    +0.000 C 
ATOM     28  C   UNL     1       7.833   5.881  19.121  0.00  0.00    +0.000 C 
ATOM     29  C   UNL     1       7.500   7.744  17.450  0.00  0.00    +0.000 C 
ENDBRANCH  23  27
ENDBRANCH  18  19
ENDBRANCH   1  18
TORSDOF 9
ENDMDL
MODEL 5
REMARK VINA RESULT:      -7.4      1.232      1.754
REMARK  Name = 
REMARK  16 active torsions:
REMARK  status: ('A' for Active; 'I' for Inactive)
REMARK    1  A    between atoms: C_1  and  O_2
REMARK    2  A    between atoms: O_2  and  C_3
REMARK    3  A    between atoms: C_6  and  N_7
REMARK    4  A    between atoms: C_8  and  O_10
REMARK    5  A    between atoms: O_10  and  C_11
REMARK    6  A    between atoms: C_11  and  C_12
REMARK    7  A    between atoms: C_11  and  C_24
REMARK    8  A    between atoms: C_12  and  N_13
REMARK    9  A    between atoms: C_15  and  C_16
REMARK   10  A    between atoms: C_16  and  C_17
REMARK   11  A    between atoms: C_16  and  C_18
REMARK   12  A    between atoms: C_20  and  C_21
REMARK   13  A    between atoms: C_21  and  C_22
REMARK   14  A    between atoms: C_21  and  C_23
REMARK   15  A    between atoms: C_24  and  C_25
REMARK   16  A    between atoms: C_24  and  C_26
REMARK                            x       y       z     vdW  Elec       q    Type
REMARK                         _______ _______ _______ _____ _____    ______ ____
ROOT
ATOM      1  C   UNL     1       3.757   4.329  18.356  0.00  0.00    +0.000 C 
ENDROOT
BRANCH   1   2
ATOM      2  C   UNL     1       2.730   3.252  17.889  0.00  0.00    +0.000 C 
ATOM      3  C   UNL     1       2.540   2.134  18.913  0.00  0.00    +0.000 C 
ATOM      4  C   UNL     1       1.367   3.850  17.514  0.00  0.00    +0.000 C 
ENDBRANCH   1   2
BRANCH   1   5
ATOM      5  O   UNL     1       3.505   4.682  19.740  0.00  0.00    +0.000 OA
BRANCH   5   7
ATOM      6  N   UNL     1       2.706   6.646  19.169  0.00  0.00    +0.000 N 
ATOM      7  C   UNL     1       2.512   5.582  20.001  0.00  0.00    +0.000 C 
ATOM      8  O   UNL     1       1.574   5.372  20.752  0.00  0.00    +0.000 OA
ATOM      9  H   UNL     1       3.364   6.442  18.430  0.00  0.00    +0.000 HD
BRANCH   6  13
ATOM     10  C   UNL     1       0.582  10.285  19.301  0.00  0.00    +0.000 A 
ATOM     11  C   UNL     1       1.176   9.873  18.102  0.00  0.00    +0.000 A 
ATOM     12  C   UNL     1       1.946   8.696  18.040  0.00  0.00    +0.000 A 
ATOM     13  C   UNL     1       2.102   7.912  19.176  0.00  0.00    +0.000 A 
ATOM     14  C   UNL     1       1.546   8.349  20.386  0.00  0.00    +0.000 A 
ATOM     15  C   UNL     1       0.797   9.532  20.452  0.00  0.00    +0.000 A 
BRANCH  10  17
ATOM     16  C   UNL     1       0.115  12.404  20.265  0.00  0.00    +0.000 C 
ATOM     17  O   UNL     1      -0.141  11.445  19.241  0.00  0.00    +0.000 OA
ENDBRANCH  10  17
ENDBRANCH   6  13
ENDBRANCH   5   7
ENDBRANCH   1   5
BRANCH   1  18
ATOM     18  C   UNL     1       5.234   3.875  18.267  0.00  0.00    +0.000 C 
BRANCH  18  19
ATOM     19  N   UNL     1       5.967   4.318  17.082  0.00  0.00    +0.000 N 
ATOM     20  N   UNL     1       5.820   3.651  15.929  0.00  0.00    +0.000 NA
ATOM     21  C   UNL     1       6.499   4.338  15.013  0.00  0.00    +0.000 A 
ATOM     22  C   UNL     1       7.123   5.458  15.606  0.00  0.00    +0.000 A 
ATOM     23  C   UNL     1       6.763   5.433  16.945  0.00  0.00    +0.000 A 
BRANCH  21  24
ATOM     24  C   UNL     1       6.491   3.887  13.574  0.00  0.00    +0.000 C 
ATOM     25  C   UNL     1       5.073   3.819  12.993  0.00  0.00    +0.000 C 
ATOM     26  C   UNL     1       7.357   4.785  12.680  0.00  0.00    +0.000 C 
ENDBRANCH  21  24
BRANCH  23  27
ATOM     27  C   UNL     1       7.033   6.400  18.062  0.00  0.00    +0.000 C 
ATOM     28  C   UNL     1       7.940   5.807  19.137  0.00  0.00    +0.000 C 
ATOM     29  C   UNL     1       7.606   7.701  17.501  0.00  0.00    +0.000 C 
ENDBRANCH  23  27
ENDBRANCH  18  19
ENDBRANCH   1  18
TORSDOF 9
ENDMDL
MODEL 6
REMARK VINA RESULT:      -7.4      1.141      1.458
REMARK  Name = 
REMARK  16 active torsions:
REMARK  status: ('A' for Active; 'I' for Inactive)
REMARK    1  A    between atoms: C_1  and  O_2
REMARK    2  A    between atoms: O_2  and  C_3
REMARK    3  A    between atoms: C_6  and  N_7
REMARK    4  A    between atoms: C_8  and  O_10
REMARK    5  A    between atoms: O_10  and  C_11
REMARK    6  A    between atoms: C_11  and  C_12
REMARK    7  A    between atoms: C_11  and  C_24
REMARK    8  A    between atoms: C_12  and  N_13
REMARK    9  A    between atoms: C_15  and  C_16
REMARK   10  A    between atoms: C_16  and  C_17
REMARK   11  A    between atoms: C_16  and  C_18
REMARK   12  A    between atoms: C_20  and  C_21
REMARK   13  A    between atoms: C_21  and  C_22
REMARK   14  A    between atoms: C_21  and  C_23
REMARK   15  A    between atoms: C_24  and  C_25
REMARK   16  A    between atoms: C_24  and  C_26
REMARK                            x       y       z     vdW  Elec       q    Type
REMARK                         _______ _______ _______ _____ _____    ______ ____
ROOT
ATOM      1  C   UNL     1       3.885   4.313  18.558  0.00  0.00    +0.000 C 
ENDROOT
BRANCH   1   2
ATOM      2  C   UNL     1       2.873   3.166  18.256  0.00  0.00    +0.000 C 
ATOM      3  C   UNL     1       2.160   3.346  16.917  0.00  0.00    +0.000 C 
ATOM      4  C   UNL     1       3.514   1.772  18.320  0.00  0.00    +0.000 C 
ENDBRANCH   1   2
BRANCH   1   5
ATOM      5  O   UNL     1       3.690   4.797  19.912  0.00  0.00    +0.000 OA
BRANCH   5   7
ATOM      6  N   UNL     1       2.714   6.697  19.402  0.00  0.00    +0.000 N 
ATOM      7  C   UNL     1       2.595   5.571  20.165  0.00  0.00    +0.000 C 
ATOM      8  O   UNL     1       1.648   5.222  20.850  0.00  0.00    +0.000 OA
ATOM      9  H   UNL     1       3.427   6.605  18.691  0.00  0.00    +0.000 HD
BRANCH   6  13
ATOM     10  C   UNL     1       0.815  10.459  19.428  0.00  0.00    +0.000 A 
ATOM     11  C   UNL     1       0.794   9.666  20.581  0.00  0.00    +0.000 A 
ATOM     12  C   UNL     1       1.363   8.378  20.587  0.00  0.00    +0.000 A 
ATOM     13  C   UNL     1       1.978   7.891  19.441  0.00  0.00    +0.000 A 
ATOM     14  C   UNL     1       1.958   8.667  18.273  0.00  0.00    +0.000 A 
ATOM     15  C   UNL     1       1.373   9.940  18.263  0.00  0.00    +0.000 A 
BRANCH  10  17
ATOM     16  C   UNL     1      -0.111  12.112  20.860  0.00  0.00    +0.000 C 
ATOM     17  O   UNL     1       0.230  11.691  19.541  0.00  0.00    +0.000 OA
ENDBRANCH  10  17
ENDBRANCH   6  13
ENDBRANCH   5   7
ENDBRANCH   1   5
BRANCH   1  18
ATOM     18  C   UNL     1       5.371   3.897  18.437  0.00  0.00    +0.000 C 
BRANCH  18  19
ATOM     19  N   UNL     1       6.061   4.344  17.229  0.00  0.00    +0.000 N 
ATOM     20  N   UNL     1       5.893   3.667  16.084  0.00  0.00    +0.000 NA
ATOM     21  C   UNL     1       6.534   4.359  15.145  0.00  0.00    +0.000 A 
ATOM     22  C   UNL     1       7.155   5.494  15.713  0.00  0.00    +0.000 A 
ATOM     23  C   UNL     1       6.834   5.471  17.062  0.00  0.00    +0.000 A 
BRANCH  21  24
ATOM     24  C   UNL     1       6.492   3.899  13.710  0.00  0.00    +0.000 C 
ATOM     25  C   UNL     1       5.058   3.764  13.183  0.00  0.00    +0.000 C 
ATOM     26  C   UNL     1       7.284   4.828  12.780  0.00  0.00    +0.000 C 
ENDBRANCH  21  24
BRANCH  23  27
ATOM     27  C   UNL     1       7.118   6.451  18.165  0.00  0.00    +0.000 C 
ATOM     28  C   UNL     1       8.052   5.874  19.226  0.00  0.00    +0.000 C 
ATOM     29  C   UNL     1       7.669   7.751  17.581  0.00  0.00    +0.000 C 
ENDBRANCH  23  27
ENDBRANCH  18  19
ENDBRANCH   1  18
TORSDOF 9
ENDMDL
MODEL 7
REMARK VINA RESULT:      -7.4      3.937      7.314
REMARK  Name = 
REMARK  16 active torsions:
REMARK  status: ('A' for Active; 'I' for Inactive)
REMARK    1  A    between atoms: C_1  and  O_2
REMARK    2  A    between atoms: O_2  and  C_3
REMARK    3  A    between atoms: C_6  and  N_7
REMARK    4  A    between atoms: C_8  and  O_10
REMARK    5  A    between atoms: O_10  and  C_11
REMARK    6  A    between atoms: C_11  and  C_12
REMARK    7  A    between atoms: C_11  and  C_24
REMARK    8  A    between atoms: C_12  and  N_13
REMARK    9  A    between atoms: C_15  and  C_16
REMARK   10  A    between atoms: C_16  and  C_17
REMARK   11  A    between atoms: C_16  and  C_18
REMARK   12  A    between atoms: C_20  and  C_21
REMARK   13  A    between atoms: C_21  and  C_22
REMARK   14  A    between atoms: C_21  and  C_23
REMARK   15  A    between atoms: C_24  and  C_25
REMARK   16  A    between atoms: C_24  and  C_26
REMARK                            x       y       z     vdW  Elec       q    Type
REMARK                         _______ _______ _______ _____ _____    ______ ____
ROOT
ATOM      1  C   UNL     1       6.453   6.121  17.320  0.00  0.00    +0.000 C 
ENDROOT
BRANCH   1   2
ATOM      2  C   UNL     1       5.770   5.660  15.996  0.00  0.00    +0.000 C 
ATOM      3  C   UNL     1       5.075   6.805  15.261  0.00  0.00    +0.000 C 
ATOM      4  C   UNL     1       6.736   4.942  15.044  0.00  0.00    +0.000 C 
ENDBRANCH   1   2
BRANCH   1   5
ATOM      5  O   UNL     1       6.909   7.492  17.188  0.00  0.00    +0.000 OA
BRANCH   5   7
ATOM      6  N   UNL     1       7.939   9.282  17.935  0.00  0.00    +0.000 N 
ATOM      7  C   UNL     1       7.902   7.920  18.020  0.00  0.00    +0.000 C 
ATOM      8  O   UNL     1       8.525   7.195  18.779  0.00  0.00    +0.000 OA
ATOM      9  H   UNL     1       7.120   9.661  17.480  0.00  0.00    +0.000 HD
BRANCH   6  13
ATOM     10  C   UNL     1      11.069  11.802  19.208  0.00  0.00    +0.000 A 
ATOM     11  C   UNL     1      10.261  11.168  20.158  0.00  0.00    +0.000 A 
ATOM     12  C   UNL     1       9.168  10.372  19.768  0.00  0.00    +0.000 A 
ATOM     13  C   UNL     1       8.896  10.186  18.419  0.00  0.00    +0.000 A 
ATOM     14  C   UNL     1       9.678  10.858  17.468  0.00  0.00    +0.000 A 
ATOM     15  C   UNL     1      10.753  11.667  17.858  0.00  0.00    +0.000 A 
BRANCH  10  17
ATOM     16  C   UNL     1      11.878  13.957  19.789  0.00  0.00    +0.000 C 
ATOM     17  O   UNL     1      12.100  12.551  19.705  0.00  0.00    +0.000 OA
ENDBRANCH  10  17
ENDBRANCH   6  13
ENDBRANCH   5   7
ENDBRANCH   1   5
BRANCH   1  18
ATOM     18  C   UNL     1       5.529   6.070  18.561  0.00  0.00    +0.000 C 
BRANCH  18  19
ATOM     19  N   UNL     1       4.212   5.472  18.350  0.00  0.00    +0.000 N 
ATOM     20  N   UNL     1       4.114   4.153  18.132  0.00  0.00    +0.000 NA
ATOM     21  C   UNL     1       2.813   3.877  18.095  0.00  0.00    +0.000 A 
ATOM     22  C   UNL     1       2.058   5.060  18.262  0.00  0.00    +0.000 A 
ATOM     23  C   UNL     1       2.980   6.082  18.431  0.00  0.00    +0.000 A 
BRANCH  21  24
ATOM     24  C   UNL     1       2.349   2.453  17.925  0.00  0.00    +0.000 C 
ATOM     25  C   UNL     1       3.412   1.438  18.361  0.00  0.00    +0.000 C 
ATOM     26  C   UNL     1       1.045   2.173  18.684  0.00  0.00    +0.000 C 
ENDBRANCH  21  24
BRANCH  23  27
ATOM     27  C   UNL     1       2.798   7.540  18.742  0.00  0.00    +0.000 C 
ATOM     28  C   UNL     1       2.224   8.318  17.560  0.00  0.00    +0.000 C 
ATOM     29  C   UNL     1       1.935   7.705  19.993  0.00  0.00    +0.000 C 
ENDBRANCH  23  27
ENDBRANCH  18  19
ENDBRANCH   1  18
TORSDOF 9
ENDMDL
MODEL 8
REMARK VINA RESULT:      -7.4      1.082      1.749
REMARK  Name = 
REMARK  16 active torsions:
REMARK  status: ('A' for Active; 'I' for Inactive)
REMARK    1  A    between atoms: C_1  and  O_2
REMARK    2  A    between atoms: O_2  and  C_3
REMARK    3  A    between atoms: C_6  and  N_7
REMARK    4  A    between atoms: C_8  and  O_10
REMARK    5  A    between atoms: O_10  and  C_11
REMARK    6  A    between atoms: C_11  and  C_12
REMARK    7  A    between atoms: C_11  and  C_24
REMARK    8  A    between atoms: C_12  and  N_13
REMARK    9  A    between atoms: C_15  and  C_16
REMARK   10  A    between atoms: C_16  and  C_17
REMARK   11  A    between atoms: C_16  and  C_18
REMARK   12  A    between atoms: C_20  and  C_21
REMARK   13  A    between atoms: C_21  and  C_22
REMARK   14  A    between atoms: C_21  and  C_23
REMARK   15  A    between atoms: C_24  and  C_25
REMARK   16  A    between atoms: C_24  and  C_26
REMARK                            x       y       z     vdW  Elec       q    Type
REMARK                         _______ _______ _______ _____ _____    ______ ____
ROOT
ATOM      1  C   UNL     1       3.601   4.658  17.576  0.00  0.00    +0.000 C 
ENDROOT
BRANCH   1   2
ATOM      2  C   UNL     1       2.576   3.496  17.403  0.00  0.00    +0.000 C 
ATOM      3  C   UNL     1       3.145   2.140  17.819  0.00  0.00    +0.000 C 
ATOM      4  C   UNL     1       1.253   3.752  18.138  0.00  0.00    +0.000 C 
ENDBRANCH   1   2
BRANCH   1   5
ATOM      5  O   UNL     1       3.314   5.390  18.796  0.00  0.00    +0.000 OA
BRANCH   5   7
ATOM      6  N   UNL     1       2.389   7.048  19.900  0.00  0.00    +0.000 N 
ATOM      7  C   UNL     1       2.883   6.680  18.682  0.00  0.00    +0.000 C 
ATOM      8  O   UNL     1       3.049   7.377  17.694  0.00  0.00    +0.000 OA
ATOM      9  H   UNL     1       2.649   6.400  20.632  0.00  0.00    +0.000 HD
BRANCH   6  13
ATOM     10  C   UNL     1      -0.118  10.219  21.093  0.00  0.00    +0.000 A 
ATOM     11  C   UNL     1       0.356  10.169  19.778  0.00  0.00    +0.000 A 
ATOM     12  C   UNL     1       1.246   9.160  19.364  0.00  0.00    +0.000 A 
ATOM     13  C   UNL     1       1.644   8.180  20.263  0.00  0.00    +0.000 A 
ATOM     14  C   UNL     1       1.206   8.257  21.593  0.00  0.00    +0.000 A 
ATOM     15  C   UNL     1       0.336   9.273  22.009  0.00  0.00    +0.000 A 
BRANCH  10  17
ATOM     16  C   UNL     1      -1.181  11.532  22.762  0.00  0.00    +0.000 C 
ATOM     17  O   UNL     1      -0.976  11.245  21.380  0.00  0.00    +0.000 OA
ENDBRANCH  10  17
ENDBRANCH   6  13
ENDBRANCH   5   7
ENDBRANCH   1   5
BRANCH   1  18
ATOM     18  C   UNL     1       5.075   4.195  17.664  0.00  0.00    +0.000 C 
BRANCH  18  19
ATOM     19  N   UNL     1       5.865   4.349  16.444  0.00  0.00    +0.000 N 
ATOM     20  N   UNL     1       5.553   3.625  15.360  0.00  0.00    +0.000 NA
ATOM     21  C   UNL     1       6.350   4.054  14.384  0.00  0.00    +0.000 A 
ATOM     22  C   UNL     1       7.217   5.059  14.867  0.00  0.00    +0.000 A 
ATOM     23  C   UNL     1       6.886   5.241  16.202  0.00  0.00    +0.000 A 
BRANCH  21  24
ATOM     24  C   UNL     1       6.215   3.482  12.995  0.00  0.00    +0.000 C 
ATOM     25  C   UNL     1       4.782   3.584  12.460  0.00  0.00    +0.000 C 
ATOM     26  C   UNL     1       7.173   4.149  11.998  0.00  0.00    +0.000 C 
ENDBRANCH  21  24
BRANCH  23  27
ATOM     27  C   UNL     1       7.384   6.226  17.221  0.00  0.00    +0.000 C 
ATOM     28  C   UNL     1       6.422   7.396  17.414  0.00  0.00    +0.000 C 
ATOM     29  C   UNL     1       7.671   5.514  18.542  0.00  0.00    +0.000 C 
ENDBRANCH  23  27
ENDBRANCH  18  19
ENDBRANCH   1  18
TORSDOF 9
ENDMDL
MODEL 9
REMARK VINA RESULT:      -7.1      1.282      1.789
REMARK  Name = 
REMARK  16 active torsions:
REMARK  status: ('A' for Active; 'I' for Inactive)
REMARK    1  A    between atoms: C_1  and  O_2
REMARK    2  A    between atoms: O_2  and  C_3
REMARK    3  A    between atoms: C_6  and  N_7
REMARK    4  A    between atoms: C_8  and  O_10
REMARK    5  A    between atoms: O_10  and  C_11
REMARK    6  A    between atoms: C_11  and  C_12
REMARK    7  A    between atoms: C_11  and  C_24
REMARK    8  A    between atoms: C_12  and  N_13
REMARK    9  A    between atoms: C_15  and  C_16
REMARK   10  A    between atoms: C_16  and  C_17
REMARK   11  A    between atoms: C_16  and  C_18
REMARK   12  A    between atoms: C_20  and  C_21
REMARK   13  A    between atoms: C_21  and  C_22
REMARK   14  A    between atoms: C_21  and  C_23
REMARK   15  A    between atoms: C_24  and  C_25
REMARK   16  A    between atoms: C_24  and  C_26
REMARK                            x       y       z     vdW  Elec       q    Type
REMARK                         _______ _______ _______ _____ _____    ______ ____
ROOT
ATOM      1  C   UNL     1       3.475   4.335  17.679  0.00  0.00    +0.000 C 
ENDROOT
BRANCH   1   2
ATOM      2  C   UNL     1       2.492   3.124  17.667  0.00  0.00    +0.000 C 
ATOM      3  C   UNL     1       3.170   1.810  18.053  0.00  0.00    +0.000 C 
ATOM      4  C   UNL     1       1.255   3.349  18.547  0.00  0.00    +0.000 C 
ENDBRANCH   1   2
BRANCH   1   5
ATOM      5  O   UNL     1       3.214   5.168  18.838  0.00  0.00    +0.000 OA
BRANCH   5   7
ATOM      6  N   UNL     1       2.229   6.979  19.597  0.00  0.00    +0.000 N 
ATOM      7  C   UNL     1       3.087   6.514  18.643  0.00  0.00    +0.000 C 
ATOM      8  O   UNL     1       3.740   7.157  17.838  0.00  0.00    +0.000 OA
ATOM      9  H   UNL     1       2.070   6.304  20.333  0.00  0.00    +0.000 HD
BRANCH   6  13
ATOM     10  C   UNL     1       0.668  10.888  19.811  0.00  0.00    +0.000 A 
ATOM     11  C   UNL     1       0.725  10.101  20.967  0.00  0.00    +0.000 A 
ATOM     12  C   UNL     1       1.181   8.770  20.919  0.00  0.00    +0.000 A 
ATOM     13  C   UNL     1       1.606   8.230  19.712  0.00  0.00    +0.000 A 
ATOM     14  C   UNL     1       1.504   9.003  18.546  0.00  0.00    +0.000 A 
ATOM     15  C   UNL     1       1.031  10.321  18.592  0.00  0.00    +0.000 A 
BRANCH  10  17
ATOM     16  C   UNL     1      -0.863  12.570  19.129  0.00  0.00    +0.000 C 
ATOM     17  O   UNL     1       0.206  12.165  19.980  0.00  0.00    +0.000 OA
ENDBRANCH  10  17
ENDBRANCH   6  13
ENDBRANCH   5   7
ENDBRANCH   1   5
BRANCH   1  18
ATOM     18  C   UNL     1       4.970   3.937  17.737  0.00  0.00    +0.000 C 
BRANCH  18  19
ATOM     19  N   UNL     1       5.818   4.493  16.685  0.00  0.00    +0.000 N 
ATOM     20  N   UNL     1       5.660   4.076  15.421  0.00  0.00    +0.000 NA
ATOM     21  C   UNL     1       6.470   4.826  14.678  0.00  0.00    +0.000 A 
ATOM     22  C   UNL     1       7.188   5.728  15.495  0.00  0.00    +0.000 A 
ATOM     23  C   UNL     1       6.750   5.501  16.791  0.00  0.00    +0.000 A 
BRANCH  21  24
ATOM     24  C   UNL     1       6.492   4.655  13.180  0.00  0.00    +0.000 C 
ATOM     25  C   UNL     1       7.829   5.084  12.564  0.00  0.00    +0.000 C 
ATOM     26  C   UNL     1       6.183   3.213  12.757  0.00  0.00    +0.000 C 
ENDBRANCH  21  24
BRANCH  23  27
ATOM     27  C   UNL     1       7.067   6.203  18.081  0.00  0.00    +0.000 C 
ATOM     28  C   UNL     1       7.969   5.368  18.988  0.00  0.00    +0.000 C 
ATOM     29  C   UNL     1       7.677   7.575  17.796  0.00  0.00    +0.000 C 
ENDBRANCH  23  27
ENDBRANCH  18  19
ENDBRANCH   1  18
TORSDOF 9
ENDMDL
