MODEL 1
REMARK VINA RESULT:      -6.4      0.000      0.000
REMARK  Name = 
REMARK  13 active torsions:
REMARK  status: ('A' for Active; 'I' for Inactive)
REMARK    1  A    between atoms: C_1  and  C_2
REMARK    2  A    between atoms: C_2  and  C_3
REMARK    3  A    between atoms: C_3  and  C_4
REMARK    4  A    between atoms: C_4  and  C_5
REMARK    5  A    between atoms: C_5  and  C_6
REMARK    6  A    between atoms: C_6  and  C_7
REMARK    7  A    between atoms: C_7  and  C_8
REMARK    8  A    between atoms: C_8  and  S_9
REMARK    9  A    between atoms: S_9  and  C_10
REMARK   10  A    between atoms: C_10  and  C_11
REMARK   11  A    between atoms: C_10  and  C_13
REMARK   12  A    between atoms: C_11  and  C_12
REMARK   13  A    between atoms: C_13  and  C_15
REMARK                            x       y       z     vdW  Elec       q    Type
REMARK                         _______ _______ _______ _____ _____    ______ ____
ROOT
ATOM      1  S   UNL     1       4.907   6.183  17.580  0.00  0.00    +0.000 S 
ENDROOT
BRANCH   1   2
ATOM      2  C   UNL     1       5.239   5.215  19.098  0.00  0.00    +0.000 C 
BRANCH   2   3
ATOM      3  C   UNL     1       4.796   3.760  18.977  0.00  0.00    +0.000 C 
BRANCH   3   4
ATOM      4  C   UNL     1       3.743   3.580  17.881  0.00  0.00    +0.000 C 
BRANCH   4   5
ATOM      5  C   UNL     1       3.133   2.181  17.955  0.00  0.00    +0.000 C 
BRANCH   5   6
ATOM      6  C   UNL     1       1.866   2.163  18.809  0.00  0.00    +0.000 C 
BRANCH   6   7
ATOM      7  C   UNL     1       1.261   3.562  18.906  0.00  0.00    +0.000 C 
BRANCH   7   9
ATOM      8  C   UNL     1       1.351   2.823  21.306  0.00  0.00    +0.000 C 
ATOM      9  C   UNL     1       0.970   3.946  20.355  0.00  0.00    +0.000 C 
ENDBRANCH   7   9
ENDBRANCH   6   7
ENDBRANCH   5   6
ENDBRANCH   4   5
ENDBRANCH   3   4
ENDBRANCH   2   3
ENDBRANCH   1   2
BRANCH   1  10
ATOM     10  C   UNL     1       6.607   6.451  16.913  0.00  0.00    +0.000 C 
BRANCH  10  11
ATOM     11  C   UNL     1       7.608   7.024  17.933  0.00  0.00    +0.000 C 
ATOM     12  C   UNL     1       7.933   8.509  17.816  0.00  0.00    +0.000 C 
ENDBRANCH  10  11
BRANCH  10  13
ATOM     13  C   UNL     1       7.080   5.132  16.295  0.00  0.00    +0.000 C 
ATOM     14  O   UNL     1       7.882   4.389  16.866  0.00  0.00    +0.000 OA
BRANCH  13  15
ATOM     15  C   UNL     1       6.498   4.781  14.937  0.00  0.00    +0.000 C 
ATOM     16  F   UNL     1       7.283   5.161  13.889  0.00  0.00    +0.000 F 
ATOM     17  F   UNL     1       6.326   3.437  14.796  0.00  0.00    +0.000 F 
ATOM     18  F   UNL     1       5.278   5.348  14.725  0.00  0.00    +0.000 F 
ENDBRANCH  13  15
ENDBRANCH  10  13
ENDBRANCH   1  10
TORSDOF 11
ENDMDL
MODEL 2
REMARK VINA RESULT:      -6.3      0.918      1.347
REMARK  Name = 
REMARK  13 active torsions:
REMARK  status: ('A' for Active; 'I' for Inactive)
REMARK    1  A    between atoms: C_1  and  C_2
REMARK    2  A    between atoms: C_2  and  C_3
REMARK    3  A    between atoms: C_3  and  C_4
REMARK    4  A    between atoms: C_4  and  C_5
REMARK    5  A    between atoms: C_5  and  C_6
REMARK    6  A    between atoms: C_6  and  C_7
REMARK    7  A    between atoms: C_7  and  C_8
REMARK    8  A    between atoms: C_8  and  S_9
REMARK    9  A    between atoms: S_9  and  C_10
REMARK   10  A    between atoms: C_10  and  C_11
REMARK   11  A    between atoms: C_10  and  C_13
REMARK   12  A    between atoms: C_11  and  C_12
REMARK   13  A    between atoms: C_13  and  C_15
REMARK                            x       y       z     vdW  Elec       q    Type
REMARK                         _______ _______ _______ _____ _____    ______ ____
ROOT
ATOM      1  S   UNL     1       6.570   5.505  19.167  0.00  0.00    +0.000 S 
ENDROOT
BRANCH   1   2
ATOM      2  C   UNL     1       4.767   5.334  19.436  0.00  0.00    +0.000 C 
BRANCH   2   3
ATOM      3  C   UNL     1       3.947   5.790  18.233  0.00  0.00    +0.000 C 
BRANCH   3   4
ATOM      4  C   UNL     1       2.980   4.701  17.763  0.00  0.00    +0.000 C 
BRANCH   4   5
ATOM      5  C   UNL     1       3.568   3.316  18.033  0.00  0.00    +0.000 C 
BRANCH   5   6
ATOM      6  C   UNL     1       2.633   2.465  18.890  0.00  0.00    +0.000 C 
BRANCH   6   7
ATOM      7  C   UNL     1       1.295   3.173  19.097  0.00  0.00    +0.000 C 
BRANCH   7   9
ATOM      8  C   UNL     1       2.059   2.770  21.456  0.00  0.00    +0.000 C 
ATOM      9  C   UNL     1       1.048   3.482  20.571  0.00  0.00    +0.000 C 
ENDBRANCH   7   9
ENDBRANCH   6   7
ENDBRANCH   5   6
ENDBRANCH   4   5
ENDBRANCH   3   4
ENDBRANCH   2   3
ENDBRANCH   1   2
BRANCH   1  10
ATOM     10  C   UNL     1       6.647   6.052  17.406  0.00  0.00    +0.000 C 
BRANCH  10  11
ATOM     11  C   UNL     1       7.448   7.347  17.176  0.00  0.00    +0.000 C 
ATOM     12  C   UNL     1       8.261   7.871  18.355  0.00  0.00    +0.000 C 
ENDBRANCH  10  11
BRANCH  10  13
ATOM     13  C   UNL     1       7.167   4.877  16.573  0.00  0.00    +0.000 C 
ATOM     14  O   UNL     1       8.101   4.166  16.952  0.00  0.00    +0.000 OA
BRANCH  13  15
ATOM     15  C   UNL     1       6.462   4.627  15.253  0.00  0.00    +0.000 C 
ATOM     16  F   UNL     1       5.314   5.348  15.098  0.00  0.00    +0.000 F 
ATOM     17  F   UNL     1       7.248   4.961  14.191  0.00  0.00    +0.000 F 
ATOM     18  F   UNL     1       6.117   3.321  15.078  0.00  0.00    +0.000 F 
ENDBRANCH  13  15
ENDBRANCH  10  13
ENDBRANCH   1  10
TORSDOF 11
ENDMDL
MODEL 3
REMARK VINA RESULT:      -6.2      0.915      1.412
REMARK  Name = 
REMARK  13 active torsions:
REMARK  status: ('A' for Active; 'I' for Inactive)
REMARK    1  A    between atoms: C_1  and  C_2
REMARK    2  A    between atoms: C_2  and  C_3
REMARK    3  A    between atoms: C_3  and  C_4
REMARK    4  A    between atoms: C_4  and  C_5
REMARK    5  A    between atoms: C_5  and  C_6
REMARK    6  A    between atoms: C_6  and  C_7
REMARK    7  A    between atoms: C_7  and  C_8
REMARK    8  A    between atoms: C_8  and  S_9
REMARK    9  A    between atoms: S_9  and  C_10
REMARK   10  A    between atoms: C_10  and  C_11
REMARK   11  A    between atoms: C_10  and  C_13
REMARK   12  A    between atoms: C_11  and  C_12
REMARK   13  A    between atoms: C_13  and  C_15
REMARK                            x       y       z     vdW  Elec       q    Type
REMARK                         _______ _______ _______ _____ _____    ______ ____
ROOT
ATOM      1  S   UNL     1       5.967   5.240  19.179  0.00  0.00    +0.000 S 
ENDROOT
BRANCH   1   2
ATOM      2  C   UNL     1       4.496   4.480  18.399  0.00  0.00    +0.000 C 
BRANCH   2   3
ATOM      3  C   UNL     1       4.618   2.965  18.266  0.00  0.00    +0.000 C 
BRANCH   3   4
ATOM      4  C   UNL     1       3.258   2.309  18.011  0.00  0.00    +0.000 C 
BRANCH   4   5
ATOM      5  C   UNL     1       2.351   3.257  17.227  0.00  0.00    +0.000 C 
BRANCH   5   6
ATOM      6  C   UNL     1       1.252   3.844  18.110  0.00  0.00    +0.000 C 
BRANCH   6   7
ATOM      7  C   UNL     1       1.031   2.976  19.347  0.00  0.00    +0.000 C 
BRANCH   7   9
ATOM      8  C   UNL     1       2.150   3.270  21.578  0.00  0.00    +0.000 C 
ATOM      9  C   UNL     1       1.088   3.803  20.629  0.00  0.00    +0.000 C 
ENDBRANCH   7   9
ENDBRANCH   6   7
ENDBRANCH   5   6
ENDBRANCH   4   5
ENDBRANCH   3   4
ENDBRANCH   2   3
ENDBRANCH   1   2
BRANCH   1  10
ATOM     10  C   UNL     1       6.762   6.097  17.751  0.00  0.00    +0.000 C 
BRANCH  10  11
ATOM     11  C   UNL     1       7.897   7.063  18.138  0.00  0.00    +0.000 C 
ATOM     12  C   UNL     1       7.796   8.489  17.611  0.00  0.00    +0.000 C 
ENDBRANCH  10  11
BRANCH  10  13
ATOM     13  C   UNL     1       7.211   5.025  16.753  0.00  0.00    +0.000 C 
ATOM     14  O   UNL     1       8.133   4.244  16.999  0.00  0.00    +0.000 OA
BRANCH  13  15
ATOM     15  C   UNL     1       6.449   4.969  15.441  0.00  0.00    +0.000 C 
ATOM     16  F   UNL     1       5.768   3.803  15.251  0.00  0.00    +0.000 F 
ATOM     17  F   UNL     1       5.514   5.956  15.360  0.00  0.00    +0.000 F 
ATOM     18  F   UNL     1       7.259   5.118  14.355  0.00  0.00    +0.000 F 
ENDBRANCH  13  15
ENDBRANCH  10  13
ENDBRANCH   1  10
TORSDOF 11
ENDMDL
MODEL 4
REMARK VINA RESULT:      -6.0      1.225      1.487
REMARK  Name = 
REMARK  13 active torsions:
REMARK  status: ('A' for Active; 'I' for Inactive)
REMARK    1  A    between atoms: C_1  and  C_2
REMARK    2  A    between atoms: C_2  and  C_3
REMARK    3  A    between atoms: C_3  and  C_4
REMARK    4  A    between atoms: C_4  and  C_5
REMARK    5  A    between atoms: C_5  and  C_6
REMARK    6  A    between atoms: C_6  and  C_7
REMARK    7  A    between atoms: C_7  and  C_8
REMARK    8  A    between atoms: C_8  and  S_9
REMARK    9  A    between atoms: S_9  and  C_10
REMARK   10  A    between atoms: C_10  and  C_11
REMARK   11  A    between atoms: C_10  and  C_13
REMARK   12  A    between atoms: C_11  and  C_12
REMARK   13  A    between atoms: C_13  and  C_15
REMARK                            x       y       z     vdW  Elec       q    Type
REMARK                         _______ _______ _______ _____ _____    ______ ____
ROOT
ATOM      1  S   UNL     1       6.270   5.335  19.123  0.00  0.00    +0.000 S 
ENDROOT
BRANCH   1   2
ATOM      2  C   UNL     1       4.471   5.548  19.385  0.00  0.00    +0.000 C 
BRANCH   2   3
ATOM      3  C   UNL     1       3.812   6.382  18.290  0.00  0.00    +0.000 C 
BRANCH   3   4
ATOM      4  C   UNL     1       2.450   5.811  17.888  0.00  0.00    +0.000 C 
BRANCH   4   5
ATOM      5  C   UNL     1       2.036   4.698  18.850  0.00  0.00    +0.000 C 
BRANCH   5   6
ATOM      6  C   UNL     1       1.337   3.553  18.119  0.00  0.00    +0.000 C 
BRANCH   6   7
ATOM      7  C   UNL     1       1.066   2.390  19.071  0.00  0.00    +0.000 C 
BRANCH   7   9
ATOM      8  C   UNL     1       1.302   2.702  21.553  0.00  0.00    +0.000 C 
ATOM      9  C   UNL     1       2.031   2.399  20.254  0.00  0.00    +0.000 C 
ENDBRANCH   7   9
ENDBRANCH   6   7
ENDBRANCH   5   6
ENDBRANCH   4   5
ENDBRANCH   3   4
ENDBRANCH   2   3
ENDBRANCH   1   2
BRANCH   1  10
ATOM     10  C   UNL     1       6.492   5.993  17.413  0.00  0.00    +0.000 C 
BRANCH  10  11
ATOM     11  C   UNL     1       7.232   7.342  17.340  0.00  0.00    +0.000 C 
ATOM     12  C   UNL     1       8.238   7.635  18.447  0.00  0.00    +0.000 C 
ENDBRANCH  10  11
BRANCH  10  13
ATOM     13  C   UNL     1       7.166   4.901  16.576  0.00  0.00    +0.000 C 
ATOM     14  O   UNL     1       8.053   4.177  17.033  0.00  0.00    +0.000 OA
BRANCH  13  15
ATOM     15  C   UNL     1       6.673   4.752  15.147  0.00  0.00    +0.000 C 
ATOM     16  F   UNL     1       7.611   5.065  14.208  0.00  0.00    +0.000 F 
ATOM     17  F   UNL     1       6.298   3.471  14.877  0.00  0.00    +0.000 F 
ATOM     18  F   UNL     1       5.590   5.534  14.879  0.00  0.00    +0.000 F 
ENDBRANCH  13  15
ENDBRANCH  10  13
ENDBRANCH   1  10
TORSDOF 11
ENDMDL
MODEL 5
REMARK VINA RESULT:      -5.9      2.497      3.433
REMARK  Name = 
REMARK  13 active torsions:
REMARK  status: ('A' for Active; 'I' for Inactive)
REMARK    1  A    between atoms: C_1  and  C_2
REMARK    2  A    between atoms: C_2  and  C_3
REMARK    3  A    between atoms: C_3  and  C_4
REMARK    4  A    between atoms: C_4  and  C_5
REMARK    5  A    between atoms: C_5  and  C_6
REMARK    6  A    between atoms: C_6  and  C_7
REMARK    7  A    between atoms: C_7  and  C_8
REMARK    8  A    between atoms: C_8  and  S_9
REMARK    9  A    between atoms: S_9  and  C_10
REMARK   10  A    between atoms: C_10  and  C_11
REMARK   11  A    between atoms: C_10  and  C_13
REMARK   12  A    between atoms: C_11  and  C_12
REMARK   13  A    between atoms: C_13  and  C_15
REMARK                            x       y       z     vdW  Elec       q    Type
REMARK                         _______ _______ _______ _____ _____    ______ ____
ROOT
ATOM      1  S   UNL     1       4.366   4.791  17.020  0.00  0.00    +0.000 S 
ENDROOT
BRANCH   1   2
ATOM      2  C   UNL     1       3.910   3.303  17.983  0.00  0.00    +0.000 C 
BRANCH   2   3
ATOM      3  C   UNL     1       4.558   3.275  19.364  0.00  0.00    +0.000 C 
BRANCH   3   4
ATOM      4  C   UNL     1       3.747   2.432  20.351  0.00  0.00    +0.000 C 
BRANCH   4   5
ATOM      5  C   UNL     1       2.306   2.284  19.864  0.00  0.00    +0.000 C 
BRANCH   5   6
ATOM      6  C   UNL     1       1.327   3.038  20.763  0.00  0.00    +0.000 C 
BRANCH   6   7
ATOM      7  C   UNL     1       1.001   4.410  20.176  0.00  0.00    +0.000 C 
BRANCH   7   9
ATOM      8  C   UNL     1       2.297   6.518  19.742  0.00  0.00    +0.000 C 
ATOM      9  C   UNL     1       1.872   5.503  20.791  0.00  0.00    +0.000 C 
ENDBRANCH   7   9
ENDBRANCH   6   7
ENDBRANCH   5   6
ENDBRANCH   4   5
ENDBRANCH   3   4
ENDBRANCH   2   3
ENDBRANCH   1   2
BRANCH   1  10
ATOM     10  C   UNL     1       6.189   4.580  16.822  0.00  0.00    +0.000 C 
BRANCH  10  11
ATOM     11  C   UNL     1       6.630   4.133  15.417  0.00  0.00    +0.000 C 
ATOM     12  C   UNL     1       5.649   4.382  14.277  0.00  0.00    +0.000 C 
ENDBRANCH  10  11
BRANCH  10  13
ATOM     13  C   UNL     1       6.862   5.881  17.270  0.00  0.00    +0.000 C 
ATOM     14  O   UNL     1       6.816   6.910  16.593  0.00  0.00    +0.000 OA
BRANCH  13  15
ATOM     15  C   UNL     1       7.587   5.837  18.603  0.00  0.00    +0.000 C 
ATOM     16  F   UNL     1       8.454   4.791  18.722  0.00  0.00    +0.000 F 
ATOM     17  F   UNL     1       8.335   6.957  18.805  0.00  0.00    +0.000 F 
ATOM     18  F   UNL     1       6.735   5.747  19.662  0.00  0.00    +0.000 F 
ENDBRANCH  13  15
ENDBRANCH  10  13
ENDBRANCH   1  10
TORSDOF 11
ENDMDL
MODEL 6
REMARK VINA RESULT:      -5.9      4.126      6.904
REMARK  Name = 
REMARK  13 active torsions:
REMARK  status: ('A' for Active; 'I' for Inactive)
REMARK    1  A    between atoms: C_1  and  C_2
REMARK    2  A    between atoms: C_2  and  C_3
REMARK    3  A    between atoms: C_3  and  C_4
REMARK    4  A    between atoms: C_4  and  C_5
REMARK    5  A    between atoms: C_5  and  C_6
REMARK    6  A    between atoms: C_6  and  C_7
REMARK    7  A    between atoms: C_7  and  C_8
REMARK    8  A    between atoms: C_8  and  S_9
REMARK    9  A    between atoms: S_9  and  C_10
REMARK   10  A    between atoms: C_10  and  C_11
REMARK   11  A    between atoms: C_10  and  C_13
REMARK   12  A    between atoms: C_11  and  C_12
REMARK   13  A    between atoms: C_13  and  C_15
REMARK                            x       y       z     vdW  Elec       q    Type
REMARK                         _______ _______ _______ _____ _____    ______ ____
ROOT
ATOM      1  S   UNL     1       4.949   4.357  18.242  0.00  0.00    +0.000 S 
ENDROOT
BRANCH   1   2
ATOM      2  C   UNL     1       4.789   5.818  17.150  0.00  0.00    +0.000 C 
BRANCH   2   3
ATOM      3  C   UNL     1       5.858   5.860  16.063  0.00  0.00    +0.000 C 
BRANCH   3   4
ATOM      4  C   UNL     1       5.527   4.912  14.908  0.00  0.00    +0.000 C 
BRANCH   4   5
ATOM      5  C   UNL     1       6.795   4.558  14.132  0.00  0.00    +0.000 C 
BRANCH   5   6
ATOM      6  C   UNL     1       6.469   3.929  12.778  0.00  0.00    +0.000 C 
BRANCH   6   7
ATOM      7  C   UNL     1       5.005   3.499  12.721  0.00  0.00    +0.000 C 
BRANCH   7   9
ATOM      8  C   UNL     1       3.593   3.515  10.643  0.00  0.00    +0.000 C 
ATOM      9  C   UNL     1       4.682   2.783  11.412  0.00  0.00    +0.000 C 
ENDBRANCH   7   9
ENDBRANCH   6   7
ENDBRANCH   5   6
ENDBRANCH   4   5
ENDBRANCH   3   4
ENDBRANCH   2   3
ENDBRANCH   1   2
BRANCH   1  10
ATOM     10  C   UNL     1       3.458   4.513  19.317  0.00  0.00    +0.000 C 
BRANCH  10  11
ATOM     11  C   UNL     1       2.211   5.064  18.602  0.00  0.00    +0.000 C 
ATOM     12  C   UNL     1       1.508   4.128  17.626  0.00  0.00    +0.000 C 
ENDBRANCH  10  11
BRANCH  10  13
ATOM     13  C   UNL     1       3.211   3.152  19.975  0.00  0.00    +0.000 C 
ATOM     14  O   UNL     1       3.737   2.117  19.559  0.00  0.00    +0.000 OA
BRANCH  13  15
ATOM     15  C   UNL     1       2.285   3.146  21.178  0.00  0.00    +0.000 C 
ATOM     16  F   UNL     1       2.514   2.116  22.042  0.00  0.00    +0.000 F 
ATOM     17  F   UNL     1       2.417   4.281  21.919  0.00  0.00    +0.000 F 
ATOM     18  F   UNL     1       0.970   3.065  20.830  0.00  0.00    +0.000 F 
ENDBRANCH  13  15
ENDBRANCH  10  13
ENDBRANCH   1  10
TORSDOF 11
ENDMDL
MODEL 7
REMARK VINA RESULT:      -5.9      2.384      3.380
REMARK  Name = 
REMARK  13 active torsions:
REMARK  status: ('A' for Active; 'I' for Inactive)
REMARK    1  A    between atoms: C_1  and  C_2
REMARK    2  A    between atoms: C_2  and  C_3
REMARK    3  A    between atoms: C_3  and  C_4
REMARK    4  A    between atoms: C_4  and  C_5
REMARK    5  A    between atoms: C_5  and  C_6
REMARK    6  A    between atoms: C_6  and  C_7
REMARK    7  A    between atoms: C_7  and  C_8
REMARK    8  A    between atoms: C_8  and  S_9
REMARK    9  A    between atoms: S_9  and  C_10
REMARK   10  A    between atoms: C_10  and  C_11
REMARK   11  A    between atoms: C_10  and  C_13
REMARK   12  A    between atoms: C_11  and  C_12
REMARK   13  A    between atoms: C_13  and  C_15
REMARK                            x       y       z     vdW  Elec       q    Type
REMARK                         _______ _______ _______ _____ _____    ______ ____
ROOT
ATOM      1  S   UNL     1       4.257   6.538  17.128  0.00  0.00    +0.000 S 
ENDROOT
BRANCH   1   2
ATOM      2  C   UNL     1       3.190   5.154  17.671  0.00  0.00    +0.000 C 
BRANCH   2   3
ATOM      3  C   UNL     1       3.990   3.918  18.073  0.00  0.00    +0.000 C 
BRANCH   3   4
ATOM      4  C   UNL     1       4.070   3.768  19.594  0.00  0.00    +0.000 C 
BRANCH   4   5
ATOM      5  C   UNL     1       3.099   4.732  20.275  0.00  0.00    +0.000 C 
BRANCH   5   6
ATOM      6  C   UNL     1       2.361   4.063  21.433  0.00  0.00    +0.000 C 
BRANCH   6   7
ATOM      7  C   UNL     1       1.655   2.794  20.962  0.00  0.00    +0.000 C 
BRANCH   7   9
ATOM      8  C   UNL     1       0.758   2.236  18.683  0.00  0.00    +0.000 C 
ATOM      9  C   UNL     1       0.583   3.103  19.919  0.00  0.00    +0.000 C 
ENDBRANCH   7   9
ENDBRANCH   6   7
ENDBRANCH   5   6
ENDBRANCH   4   5
ENDBRANCH   3   4
ENDBRANCH   2   3
ENDBRANCH   1   2
BRANCH   1  10
ATOM     10  C   UNL     1       5.801   5.662  16.624  0.00  0.00    +0.000 C 
BRANCH  10  11
ATOM     11  C   UNL     1       5.945   5.447  15.106  0.00  0.00    +0.000 C 
ATOM     12  C   UNL     1       5.434   4.124  14.547  0.00  0.00    +0.000 C 
ENDBRANCH  10  11
BRANCH  10  13
ATOM     13  C   UNL     1       6.987   6.417  17.232  0.00  0.00    +0.000 C 
ATOM     14  O   UNL     1       7.445   7.441  16.720  0.00  0.00    +0.000 OA
BRANCH  13  15
ATOM     15  C   UNL     1       7.566   5.838  18.510  0.00  0.00    +0.000 C 
ATOM     16  F   UNL     1       6.639   5.637  19.491  0.00  0.00    +0.000 F 
ATOM     17  F   UNL     1       8.140   4.622  18.296  0.00  0.00    +0.000 F 
ATOM     18  F   UNL     1       8.532   6.628  19.056  0.00  0.00    +0.000 F 
ENDBRANCH  13  15
ENDBRANCH  10  13
ENDBRANCH   1  10
TORSDOF 11
ENDMDL
MODEL 8
REMARK VINA RESULT:      -5.9      0.910      1.594
REMARK  Name = 
REMARK  13 active torsions:
REMARK  status: ('A' for Active; 'I' for Inactive)
REMARK    1  A    between atoms: C_1  and  C_2
REMARK    2  A    between atoms: C_2  and  C_3
REMARK    3  A    between atoms: C_3  and  C_4
REMARK    4  A    between atoms: C_4  and  C_5
REMARK    5  A    between atoms: C_5  and  C_6
REMARK    6  A    between atoms: C_6  and  C_7
REMARK    7  A    between atoms: C_7  and  C_8
REMARK    8  A    between atoms: C_8  and  S_9
REMARK    9  A    between atoms: S_9  and  C_10
REMARK   10  A    between atoms: C_10  and  C_11
REMARK   11  A    between atoms: C_10  and  C_13
REMARK   12  A    between atoms: C_11  and  C_12
REMARK   13  A    between atoms: C_13  and  C_15
REMARK                            x       y       z     vdW  Elec       q    Type
REMARK                         _______ _______ _______ _____ _____    ______ ____
ROOT
ATOM      1  S   UNL     1       5.157   5.908  18.048  0.00  0.00    +0.000 S 
ENDROOT
BRANCH   1   2
ATOM      2  C   UNL     1       5.411   4.110  18.277  0.00  0.00    +0.000 C 
BRANCH   2   3
ATOM      3  C   UNL     1       4.183   3.289  17.892  0.00  0.00    +0.000 C 
BRANCH   3   4
ATOM      4  C   UNL     1       3.077   4.169  17.305  0.00  0.00    +0.000 C 
BRANCH   4   5
ATOM      5  C   UNL     1       1.827   4.106  18.181  0.00  0.00    +0.000 C 
BRANCH   5   6
ATOM      6  C   UNL     1       1.760   5.282  19.153  0.00  0.00    +0.000 C 
BRANCH   6   7
ATOM      7  C   UNL     1       1.419   4.799  20.562  0.00  0.00    +0.000 C 
BRANCH   7   9
ATOM      8  C   UNL     1       2.059   2.617  21.629  0.00  0.00    +0.000 C 
ATOM      9  C   UNL     1       1.174   3.293  20.594  0.00  0.00    +0.000 C 
ENDBRANCH   7   9
ENDBRANCH   6   7
ENDBRANCH   5   6
ENDBRANCH   4   5
ENDBRANCH   3   4
ENDBRANCH   2   3
ENDBRANCH   1   2
BRANCH   1  10
ATOM     10  C   UNL     1       6.506   6.341  16.866  0.00  0.00    +0.000 C 
BRANCH  10  11
ATOM     11  C   UNL     1       7.627   7.208  17.467  0.00  0.00    +0.000 C 
ATOM     12  C   UNL     1       8.111   6.835  18.864  0.00  0.00    +0.000 C 
ENDBRANCH  10  11
BRANCH  10  13
ATOM     13  C   UNL     1       7.028   5.037  16.254  0.00  0.00    +0.000 C 
ATOM     14  O   UNL     1       7.921   4.373  16.787  0.00  0.00    +0.000 OA
BRANCH  13  15
ATOM     15  C   UNL     1       6.379   4.599  14.954  0.00  0.00    +0.000 C 
ATOM     16  F   UNL     1       6.027   3.282  14.933  0.00  0.00    +0.000 F 
ATOM     17  F   UNL     1       5.230   5.289  14.709  0.00  0.00    +0.000 F 
ATOM     18  F   UNL     1       7.182   4.796  13.872  0.00  0.00    +0.000 F 
ENDBRANCH  13  15
ENDBRANCH  10  13
ENDBRANCH   1  10
TORSDOF 11
ENDMDL
MODEL 9
REMARK VINA RESULT:      -5.8      1.426      2.156
REMARK  Name = 
REMARK  13 active torsions:
REMARK  status: ('A' for Active; 'I' for Inactive)
REMARK    1  A    between atoms: C_1  and  C_2
REMARK    2  A    between atoms: C_2  and  C_3
REMARK    3  A    between atoms: C_3  and  C_4
REMARK    4  A    between atoms: C_4  and  C_5
REMARK    5  A    between atoms: C_5  and  C_6
REMARK    6  A    between atoms: C_6  and  C_7
REMARK    7  A    between atoms: C_7  and  C_8
REMARK    8  A    between atoms: C_8  and  S_9
REMARK    9  A    between atoms: S_9  and  C_10
REMARK   10  A    between atoms: C_10  and  C_11
REMARK   11  A    between atoms: C_10  and  C_13
REMARK   12  A    between atoms: C_11  and  C_12
REMARK   13  A    between atoms: C_13  and  C_15
REMARK                            x       y       z     vdW  Elec       q    Type
REMARK                         _______ _______ _______ _____ _____    ______ ____
ROOT
ATOM      1  S   UNL     1       5.681   5.217  18.917  0.00  0.00    +0.000 S 
ENDROOT
BRANCH   1   2
ATOM      2  C   UNL     1       4.617   3.758  19.219  0.00  0.00    +0.000 C 
BRANCH   2   3
ATOM      3  C   UNL     1       4.374   2.936  17.956  0.00  0.00    +0.000 C 
BRANCH   3   4
ATOM      4  C   UNL     1       2.924   2.455  17.867  0.00  0.00    +0.000 C 
BRANCH   4   5
ATOM      5  C   UNL     1       1.968   3.647  17.864  0.00  0.00    +0.000 C 
BRANCH   5   6
ATOM      6  C   UNL     1       0.748   3.393  18.748  0.00  0.00    +0.000 C 
BRANCH   6   7
ATOM      7  C   UNL     1       0.992   3.911  20.165  0.00  0.00    +0.000 C 
BRANCH   7   9
ATOM      8  C   UNL     1       2.501   2.779  21.824  0.00  0.00    +0.000 C 
ATOM      9  C   UNL     1       1.132   2.764  21.163  0.00  0.00    +0.000 C 
ENDBRANCH   7   9
ENDBRANCH   6   7
ENDBRANCH   5   6
ENDBRANCH   4   5
ENDBRANCH   3   4
ENDBRANCH   2   3
ENDBRANCH   1   2
BRANCH   1  10
ATOM     10  C   UNL     1       5.166   5.726  17.219  0.00  0.00    +0.000 C 
BRANCH  10  11
ATOM     11  C   UNL     1       4.377   7.047  17.162  0.00  0.00    +0.000 C 
ATOM     12  C   UNL     1       3.091   7.116  17.978  0.00  0.00    +0.000 C 
ENDBRANCH  10  11
BRANCH  10  13
ATOM     13  C   UNL     1       6.418   5.744  16.337  0.00  0.00    +0.000 C 
ATOM     14  O   UNL     1       7.319   6.571  16.492  0.00  0.00    +0.000 OA
BRANCH  13  15
ATOM     15  C   UNL     1       6.494   4.676  15.260  0.00  0.00    +0.000 C 
ATOM     16  F   UNL     1       6.221   3.419  15.713  0.00  0.00    +0.000 F 
ATOM     17  F   UNL     1       5.598   4.906  14.260  0.00  0.00    +0.000 F 
ATOM     18  F   UNL     1       7.720   4.610  14.670  0.00  0.00    +0.000 F 
ENDBRANCH  13  15
ENDBRANCH  10  13
ENDBRANCH   1  10
TORSDOF 11
ENDMDL
