MODEL 1
REMARK VINA RESULT:      -7.6      0.000      0.000
REMARK  Name = 
REMARK  6 active torsions:
REMARK  status: ('A' for Active; 'I' for Inactive)
REMARK    1  A    between atoms: N_1  and  C_2
REMARK    2  A    between atoms: C_2  and  C_3
REMARK    3  A    between atoms: N_5  and  C_6
REMARK    4  A    between atoms: C_6  and  C_7
REMARK    5  A    between atoms: N_14  and  C_15
REMARK    6  A    between atoms: C_15  and  C_16
REMARK                            x       y       z     vdW  Elec       q    Type
REMARK                         _______ _______ _______ _____ _____    ______ ____
ROOT
ATOM      1  C   UNL     1       1.511   5.142  19.433  0.00  0.00    +0.000 C 
ATOM      2  C   UNL     1       0.946   4.401  20.656  0.00  0.00    +0.000 C 
ATOM      3  C   UNL     1       1.888   3.364  21.277  0.00  0.00    +0.000 C 
ATOM      4  C   UNL     1       2.760   2.582  20.286  0.00  0.00    +0.000 C 
ATOM      5  N   UNL     1       3.197   3.377  19.141  0.00  0.00    +0.000 N 
ATOM      6  C   UNL     1       4.532   3.354  18.765  0.00  0.00    +0.000 C 
ATOM      7  O   UNL     1       5.412   2.789  19.406  0.00  0.00    +0.000 OA
ATOM      8  N   UNL     1       4.815   4.065  17.620  0.00  0.00    +0.000 N 
ATOM      9  C   UNL     1       2.123   4.119  18.476  0.00  0.00    +0.000 C 
ATOM     10  H   UNL     1       4.108   4.030  16.908  0.00  0.00    +0.000 HD
ENDROOT
BRANCH   1  11
ATOM     11  C   UNL     1       2.549   6.236  19.745  0.00  0.00    +0.000 C 
BRANCH  11  14
ATOM     12  C   UNL     1       1.562   9.483  18.636  0.00  0.00    +0.000 A 
ATOM     13  C   UNL     1       1.606   8.554  19.652  0.00  0.00    +0.000 A 
ATOM     14  N   UNL     1       2.267   7.496  19.109  0.00  0.00    +0.000 N 
ATOM     15  N   UNL     1       2.653   7.757  17.841  0.00  0.00    +0.000 NA
ATOM     16  N   UNL     1       2.218   8.977  17.542  0.00  0.00    +0.000 NA
BRANCH  12  17
ATOM     17  C   UNL     1       0.897  10.807  18.639  0.00  0.00    +0.000 C 
BRANCH  17  18
ATOM     18  N   UNL     1       1.799  11.799  18.055  0.00  0.00    +0.000 NA
ATOM     19  H   UNL     1       2.131  11.462  17.156  0.00  0.00    +0.000 HD
ATOM     20  H   UNL     1       2.617  11.879  18.658  0.00  0.00    +0.000 HD
ENDBRANCH  17  18
ENDBRANCH  12  17
ENDBRANCH  11  14
ENDBRANCH   1  11
BRANCH   8  21
ATOM     21  C   UNL     1       6.160   4.179  17.087  0.00  0.00    +0.000 C 
BRANCH  21  22
ATOM     22  C   UNL     1       6.781   5.489  17.519  0.00  0.00    +0.000 A 
ATOM     23  C   UNL     1       6.486   6.668  16.814  0.00  0.00    +0.000 A 
ATOM     24  C   UNL     1       7.101   7.877  17.153  0.00  0.00    +0.000 A 
ATOM     25  C   UNL     1       8.009   7.919  18.208  0.00  0.00    +0.000 A 
ATOM     26 CL   UNL     1       8.806   9.395  18.594  0.00  0.00    +0.000 Cl
ATOM     27  C   UNL     1       8.285   6.768  18.943  0.00  0.00    +0.000 A 
ATOM     28  C   UNL     1       7.672   5.556  18.601  0.00  0.00    +0.000 A 
ENDBRANCH  21  22
ENDBRANCH   8  21
TORSDOF 6
ENDMDL
MODEL 2
REMARK VINA RESULT:      -7.6      0.561      1.115
REMARK  Name = 
REMARK  6 active torsions:
REMARK  status: ('A' for Active; 'I' for Inactive)
REMARK    1  A    between atoms: N_1  and  C_2
REMARK    2  A    between atoms: C_2  and  C_3
REMARK    3  A    between atoms: N_5  and  C_6
REMARK    4  A    between atoms: C_6  and  C_7
REMARK    5  A    between atoms: N_14  and  C_15
REMARK    6  A    between atoms: C_15  and  C_16
REMARK                            x       y       z     vdW  Elec       q    Type
REMARK                         _______ _______ _______ _____ _____    ______ ____
ROOT
ATOM      1  C   UNL     1       1.550   5.261  19.290  0.00  0.00    +0.000 C 
ATOM      2  C   UNL     1       0.940   4.647  20.562  0.00  0.00    +0.000 C 
ATOM      3  C   UNL     1       1.833   3.634  21.286  0.00  0.00    +0.000 C 
ATOM      4  C   UNL     1       2.692   2.740  20.381  0.00  0.00    +0.000 C 
ATOM      5  N   UNL     1       3.175   3.419  19.181  0.00  0.00    +0.000 N 
ATOM      6  C   UNL     1       4.514   3.317  18.833  0.00  0.00    +0.000 C 
ATOM      7  O   UNL     1       5.362   2.779  19.536  0.00  0.00    +0.000 OA
ATOM      8  N   UNL     1       4.840   3.917  17.637  0.00  0.00    +0.000 N 
ATOM      9  C   UNL     1       2.139   4.139  18.436  0.00  0.00    +0.000 C 
ATOM     10  H   UNL     1       4.144   3.847  16.918  0.00  0.00    +0.000 HD
ENDROOT
BRANCH   1  11
ATOM     11  C   UNL     1       2.622   6.341  19.528  0.00  0.00    +0.000 C 
BRANCH  11  14
ATOM     12  C   UNL     1       1.435   9.593  18.659  0.00  0.00    +0.000 A 
ATOM     13  C   UNL     1       1.506   8.582  19.590  0.00  0.00    +0.000 A 
ATOM     14  N   UNL     1       2.271   7.629  18.991  0.00  0.00    +0.000 N 
ATOM     15  N   UNL     1       2.691   8.032  17.772  0.00  0.00    +0.000 NA
ATOM     16  N   UNL     1       2.175   9.239  17.559  0.00  0.00    +0.000 NA
BRANCH  12  17
ATOM     17  C   UNL     1       0.668  10.858  18.744  0.00  0.00    +0.000 C 
BRANCH  17  18
ATOM     18  N   UNL     1      -0.562  10.728  17.963  0.00  0.00    +0.000 NA
ATOM     19  H   UNL     1      -1.319  11.199  18.450  0.00  0.00    +0.000 HD
ATOM     20  H   UNL     1      -0.810   9.739  17.922  0.00  0.00    +0.000 HD
ENDBRANCH  17  18
ENDBRANCH  12  17
ENDBRANCH  11  14
ENDBRANCH   1  11
BRANCH   8  21
ATOM     21  C   UNL     1       6.196   3.939  17.121  0.00  0.00    +0.000 C 
BRANCH  21  22
ATOM     22  C   UNL     1       6.854   5.263  17.440  0.00  0.00    +0.000 A 
ATOM     23  C   UNL     1       7.656   5.386  18.587  0.00  0.00    +0.000 A 
ATOM     24  C   UNL     1       8.218   6.616  18.939  0.00  0.00    +0.000 A 
ATOM     25  C   UNL     1       7.991   7.734  18.139  0.00  0.00    +0.000 A 
ATOM     26 CL   UNL     1       8.639   9.261  18.598  0.00  0.00    +0.000 Cl
ATOM     27  C   UNL     1       7.230   7.623  16.978  0.00  0.00    +0.000 A 
ATOM     28  C   UNL     1       6.663   6.391  16.628  0.00  0.00    +0.000 A 
ENDBRANCH  21  22
ENDBRANCH   8  21
TORSDOF 6
ENDMDL
MODEL 3
REMARK VINA RESULT:      -7.6      1.368      1.530
REMARK  Name = 
REMARK  6 active torsions:
REMARK  status: ('A' for Active; 'I' for Inactive)
REMARK    1  A    between atoms: N_1  and  C_2
REMARK    2  A    between atoms: C_2  and  C_3
REMARK    3  A    between atoms: N_5  and  C_6
REMARK    4  A    between atoms: C_6  and  C_7
REMARK    5  A    between atoms: N_14  and  C_15
REMARK    6  A    between atoms: C_15  and  C_16
REMARK                            x       y       z     vdW  Elec       q    Type
REMARK                         _______ _______ _______ _____ _____    ______ ____
ROOT
ATOM      1  C   UNL     1       1.483   5.156  19.408  0.00  0.00    +0.000 C 
ATOM      2  C   UNL     1       0.955   4.436  20.661  0.00  0.00    +0.000 C 
ATOM      3  C   UNL     1       1.931   3.440  21.296  0.00  0.00    +0.000 C 
ATOM      4  C   UNL     1       2.807   2.651  20.313  0.00  0.00    +0.000 C 
ATOM      5  N   UNL     1       3.207   3.424  19.140  0.00  0.00    +0.000 N 
ATOM      6  C   UNL     1       4.537   3.422  18.743  0.00  0.00    +0.000 C 
ATOM      7  O   UNL     1       5.439   2.897  19.386  0.00  0.00    +0.000 OA
ATOM      8  N   UNL     1       4.785   4.107  17.575  0.00  0.00    +0.000 N 
ATOM      9  C   UNL     1       2.106   4.121  18.471  0.00  0.00    +0.000 C 
ATOM     10  H   UNL     1       4.069   4.035  16.875  0.00  0.00    +0.000 HD
ENDROOT
BRANCH   1  11
ATOM     11  C   UNL     1       2.498   6.283  19.673  0.00  0.00    +0.000 C 
BRANCH  11  14
ATOM     12  C   UNL     1       0.845   9.223  20.841  0.00  0.00    +0.000 A 
ATOM     13  C   UNL     1       1.315   7.957  21.110  0.00  0.00    +0.000 A 
ATOM     14  N   UNL     1       1.887   7.557  19.942  0.00  0.00    +0.000 N 
ATOM     15  N   UNL     1       1.818   8.528  19.005  0.00  0.00    +0.000 NA
ATOM     16  N   UNL     1       1.174   9.555  19.551  0.00  0.00    +0.000 NA
BRANCH  12  17
ATOM     17  C   UNL     1       0.067  10.116  21.732  0.00  0.00    +0.000 C 
BRANCH  17  18
ATOM     18  N   UNL     1       0.516   9.927  23.111  0.00  0.00    +0.000 NA
ATOM     19  H   UNL     1       0.399  10.797  23.624  0.00  0.00    +0.000 HD
ATOM     20  H   UNL     1       1.516   9.729  23.097  0.00  0.00    +0.000 HD
ENDBRANCH  17  18
ENDBRANCH  12  17
ENDBRANCH  11  14
ENDBRANCH   1  11
BRANCH   8  21
ATOM     21  C   UNL     1       6.118   4.239  17.017  0.00  0.00    +0.000 C 
BRANCH  21  22
ATOM     22  C   UNL     1       6.747   5.536  17.474  0.00  0.00    +0.000 A 
ATOM     23  C   UNL     1       6.443   6.734  16.805  0.00  0.00    +0.000 A 
ATOM     24  C   UNL     1       7.064   7.933  17.166  0.00  0.00    +0.000 A 
ATOM     25  C   UNL     1       7.988   7.946  18.208  0.00  0.00    +0.000 A 
ATOM     26 CL   UNL     1       8.792   9.411  18.620  0.00  0.00    +0.000 Cl
ATOM     27  C   UNL     1       8.274   6.776  18.908  0.00  0.00    +0.000 A 
ATOM     28  C   UNL     1       7.655   5.575  18.544  0.00  0.00    +0.000 A 
ENDBRANCH  21  22
ENDBRANCH   8  21
TORSDOF 6
ENDMDL
MODEL 4
REMARK VINA RESULT:      -7.5      2.367      2.970
REMARK  Name = 
REMARK  6 active torsions:
REMARK  status: ('A' for Active; 'I' for Inactive)
REMARK    1  A    between atoms: N_1  and  C_2
REMARK    2  A    between atoms: C_2  and  C_3
REMARK    3  A    between atoms: N_5  and  C_6
REMARK    4  A    between atoms: C_6  and  C_7
REMARK    5  A    between atoms: N_14  and  C_15
REMARK    6  A    between atoms: C_15  and  C_16
REMARK                            x       y       z     vdW  Elec       q    Type
REMARK                         _______ _______ _______ _____ _____    ______ ____
ROOT
ATOM      1  C   UNL     1       1.421   4.715  20.120  0.00  0.00    +0.000 C 
ATOM      2  C   UNL     1       1.231   3.589  21.152  0.00  0.00    +0.000 C 
ATOM      3  C   UNL     1       2.485   2.759  21.444  0.00  0.00    +0.000 C 
ATOM      4  C   UNL     1       3.407   2.504  20.244  0.00  0.00    +0.000 C 
ATOM      5  N   UNL     1       3.469   3.625  19.309  0.00  0.00    +0.000 N 
ATOM      6  C   UNL     1       4.705   4.074  18.866  0.00  0.00    +0.000 C 
ATOM      7  O   UNL     1       5.776   3.661  19.298  0.00  0.00    +0.000 OA
ATOM      8  N   UNL     1       4.644   5.072  17.919  0.00  0.00    +0.000 N 
ATOM      9  C   UNL     1       2.163   4.152  18.909  0.00  0.00    +0.000 C 
ATOM     10  H   UNL     1       3.891   4.993  17.261  0.00  0.00    +0.000 HD
ENDROOT
BRANCH   1  11
ATOM     11  C   UNL     1       2.157   5.965  20.636  0.00  0.00    +0.000 C 
BRANCH  11  14
ATOM     12  C   UNL     1       1.653   9.009  18.842  0.00  0.00    +0.000 A 
ATOM     13  C   UNL     1       1.527   8.309  20.021  0.00  0.00    +0.000 A 
ATOM     14  N   UNL     1       2.072   7.092  19.746  0.00  0.00    +0.000 N 
ATOM     15  N   UNL     1       2.549   7.042  18.484  0.00  0.00    +0.000 NA
ATOM     16  N   UNL     1       2.290   8.218  17.919  0.00  0.00    +0.000 NA
BRANCH  12  17
ATOM     17  C   UNL     1       1.164  10.375  18.536  0.00  0.00    +0.000 C 
BRANCH  17  18
ATOM     18  N   UNL     1       2.111  11.033  17.636  0.00  0.00    +0.000 NA
ATOM     19  H   UNL     1       2.840  10.374  17.376  0.00  0.00    +0.000 HD
ATOM     20  H   UNL     1       2.568  11.786  18.150  0.00  0.00    +0.000 HD
ENDBRANCH  17  18
ENDBRANCH  12  17
ENDBRANCH  11  14
ENDBRANCH   1  11
BRANCH   8  21
ATOM     21  C   UNL     1       5.833   5.687  17.358  0.00  0.00    +0.000 C 
BRANCH  21  22
ATOM     22  C   UNL     1       6.107   5.126  15.980  0.00  0.00    +0.000 A 
ATOM     23  C   UNL     1       7.324   5.414  15.339  0.00  0.00    +0.000 A 
ATOM     24  C   UNL     1       7.572   4.963  14.039  0.00  0.00    +0.000 A 
ATOM     25  C   UNL     1       6.608   4.210  13.373  0.00  0.00    +0.000 A 
ATOM     26 CL   UNL     1       6.890   3.698  11.754  0.00  0.00    +0.000 Cl
ATOM     27  C   UNL     1       5.412   3.882  14.007  0.00  0.00    +0.000 A 
ATOM     28  C   UNL     1       5.162   4.337  15.307  0.00  0.00    +0.000 A 
ENDBRANCH  21  22
ENDBRANCH   8  21
TORSDOF 6
ENDMDL
MODEL 5
REMARK VINA RESULT:      -7.4      0.748      1.372
REMARK  Name = 
REMARK  6 active torsions:
REMARK  status: ('A' for Active; 'I' for Inactive)
REMARK    1  A    between atoms: N_1  and  C_2
REMARK    2  A    between atoms: C_2  and  C_3
REMARK    3  A    between atoms: N_5  and  C_6
REMARK    4  A    between atoms: C_6  and  C_7
REMARK    5  A    between atoms: N_14  and  C_15
REMARK    6  A    between atoms: C_15  and  C_16
REMARK                            x       y       z     vdW  Elec       q    Type
REMARK                         _______ _______ _______ _____ _____    ______ ____
ROOT
ATOM      1  C   UNL     1       1.511   5.110  19.316  0.00  0.00    +0.000 C 
ATOM      2  C   UNL     1       0.934   4.491  20.601  0.00  0.00    +0.000 C 
ATOM      3  C   UNL     1       1.855   3.494  21.311  0.00  0.00    +0.000 C 
ATOM      4  C   UNL     1       2.709   2.610  20.393  0.00  0.00    +0.000 C 
ATOM      5  N   UNL     1       3.160   3.291  19.182  0.00  0.00    +0.000 N 
ATOM      6  C   UNL     1       4.494   3.207  18.809  0.00  0.00    +0.000 C 
ATOM      7  O   UNL     1       5.363   2.684  19.498  0.00  0.00    +0.000 OA
ATOM      8  N   UNL     1       4.789   3.808  17.606  0.00  0.00    +0.000 N 
ATOM      9  C   UNL     1       2.100   3.993  18.454  0.00  0.00    +0.000 C 
ATOM     10  H   UNL     1       4.080   3.725  16.900  0.00  0.00    +0.000 HD
ENDROOT
BRANCH   1  11
ATOM     11  C   UNL     1       2.572   6.206  19.530  0.00  0.00    +0.000 C 
BRANCH  11  14
ATOM     12  C   UNL     1       1.410   9.563  19.185  0.00  0.00    +0.000 A 
ATOM     13  C   UNL     1       1.991   8.459  18.604  0.00  0.00    +0.000 A 
ATOM     14  N   UNL     1       2.022   7.533  19.602  0.00  0.00    +0.000 N 
ATOM     15  N   UNL     1       1.456   8.011  20.731  0.00  0.00    +0.000 NA
ATOM     16  N   UNL     1       1.081   9.262  20.483  0.00  0.00    +0.000 NA
BRANCH  12  17
ATOM     17  C   UNL     1       1.186  10.899  18.584  0.00  0.00    +0.000 C 
BRANCH  17  18
ATOM     18  N   UNL     1       2.222  11.155  17.584  0.00  0.00    +0.000 NA
ATOM     19  H   UNL     1       2.596  10.269  17.254  0.00  0.00    +0.000 HD
ATOM     20  H   UNL     1       2.991  11.645  18.041  0.00  0.00    +0.000 HD
ENDBRANCH  17  18
ENDBRANCH  12  17
ENDBRANCH  11  14
ENDBRANCH   1  11
BRANCH   8  21
ATOM     21  C   UNL     1       6.134   3.847  17.064  0.00  0.00    +0.000 C 
BRANCH  21  22
ATOM     22  C   UNL     1       6.783   5.177  17.378  0.00  0.00    +0.000 A 
ATOM     23  C   UNL     1       7.572   5.313  18.533  0.00  0.00    +0.000 A 
ATOM     24  C   UNL     1       8.126   6.549  18.880  0.00  0.00    +0.000 A 
ATOM     25  C   UNL     1       7.903   7.658  18.067  0.00  0.00    +0.000 A 
ATOM     26 CL   UNL     1       8.541   9.192  18.519  0.00  0.00    +0.000 Cl
ATOM     27  C   UNL     1       7.156   7.534  16.899  0.00  0.00    +0.000 A 
ATOM     28  C   UNL     1       6.598   6.297  16.554  0.00  0.00    +0.000 A 
ENDBRANCH  21  22
ENDBRANCH   8  21
TORSDOF 6
ENDMDL
MODEL 6
REMARK VINA RESULT:      -7.4      1.042      1.484
REMARK  Name = 
REMARK  6 active torsions:
REMARK  status: ('A' for Active; 'I' for Inactive)
REMARK    1  A    between atoms: N_1  and  C_2
REMARK    2  A    between atoms: C_2  and  C_3
REMARK    3  A    between atoms: N_5  and  C_6
REMARK    4  A    between atoms: C_6  and  C_7
REMARK    5  A    between atoms: N_14  and  C_15
REMARK    6  A    between atoms: C_15  and  C_16
REMARK                            x       y       z     vdW  Elec       q    Type
REMARK                         _______ _______ _______ _____ _____    ______ ____
ROOT
ATOM      1  C   UNL     1       1.216   4.578  19.841  0.00  0.00    +0.000 C 
ATOM      2  C   UNL     1       0.913   3.556  20.949  0.00  0.00    +0.000 C 
ATOM      3  C   UNL     1       1.833   2.332  20.972  0.00  0.00    +0.000 C 
ATOM      4  C   UNL     1       2.280   1.812  19.598  0.00  0.00    +0.000 C 
ATOM      5  N   UNL     1       2.490   2.871  18.615  0.00  0.00    +0.000 N 
ATOM      6  C   UNL     1       3.653   2.876  17.858  0.00  0.00    +0.000 C 
ATOM      7  O   UNL     1       4.587   2.102  18.037  0.00  0.00    +0.000 OA
ATOM      8  N   UNL     1       3.706   3.864  16.900  0.00  0.00    +0.000 N 
ATOM      9  C   UNL     1       1.390   3.833  18.518  0.00  0.00    +0.000 C 
ATOM     10  H   UNL     1       2.833   4.074  16.452  0.00  0.00    +0.000 HD
ENDROOT
BRANCH   1  11
ATOM     11  C   UNL     1       2.442   5.476  20.089  0.00  0.00    +0.000 C 
BRANCH  11  14
ATOM     12  C   UNL     1       1.960   8.767  18.794  0.00  0.00    +0.000 A 
ATOM     13  C   UNL     1       1.767   7.872  19.822  0.00  0.00    +0.000 A 
ATOM     14  N   UNL     1       2.384   6.736  19.397  0.00  0.00    +0.000 N 
ATOM     15  N   UNL     1       2.967   6.916  18.192  0.00  0.00    +0.000 NA
ATOM     16  N   UNL     1       2.706   8.164  17.812  0.00  0.00    +0.000 NA
BRANCH  12  17
ATOM     17  C   UNL     1       1.441  10.150  18.679  0.00  0.00    +0.000 C 
BRANCH  17  18
ATOM     18  N   UNL     1       2.103  10.820  17.560  0.00  0.00    +0.000 NA
ATOM     19  H   UNL     1       2.931  11.302  17.900  0.00  0.00    +0.000 HD
ATOM     20  H   UNL     1       1.474  11.538  17.200  0.00  0.00    +0.000 HD
ENDBRANCH  17  18
ENDBRANCH  12  17
ENDBRANCH  11  14
ENDBRANCH   1  11
BRANCH   8  21
ATOM     21  C   UNL     1       4.854   4.045  16.030  0.00  0.00    +0.000 C 
BRANCH  21  22
ATOM     22  C   UNL     1       5.799   5.065  16.622  0.00  0.00    +0.000 A 
ATOM     23  C   UNL     1       6.831   4.647  17.481  0.00  0.00    +0.000 A 
ATOM     24  C   UNL     1       7.674   5.578  18.093  0.00  0.00    +0.000 A 
ATOM     25  C   UNL     1       7.500   6.937  17.844  0.00  0.00    +0.000 A 
ATOM     26 CL   UNL     1       8.504   8.088  18.637  0.00  0.00    +0.000 Cl
ATOM     27  C   UNL     1       6.508   7.369  16.966  0.00  0.00    +0.000 A 
ATOM     28  C   UNL     1       5.661   6.436  16.356  0.00  0.00    +0.000 A 
ENDBRANCH  21  22
ENDBRANCH   8  21
TORSDOF 6
ENDMDL
MODEL 7
REMARK VINA RESULT:      -7.4      2.470      3.133
REMARK  Name = 
REMARK  6 active torsions:
REMARK  status: ('A' for Active; 'I' for Inactive)
REMARK    1  A    between atoms: N_1  and  C_2
REMARK    2  A    between atoms: C_2  and  C_3
REMARK    3  A    between atoms: N_5  and  C_6
REMARK    4  A    between atoms: C_6  and  C_7
REMARK    5  A    between atoms: N_14  and  C_15
REMARK    6  A    between atoms: C_15  and  C_16
REMARK                            x       y       z     vdW  Elec       q    Type
REMARK                         _______ _______ _______ _____ _____    ______ ____
ROOT
ATOM      1  C   UNL     1       1.428   4.650  20.363  0.00  0.00    +0.000 C 
ATOM      2  C   UNL     1       1.272   3.445  21.307  0.00  0.00    +0.000 C 
ATOM      3  C   UNL     1       2.523   2.575  21.459  0.00  0.00    +0.000 C 
ATOM      4  C   UNL     1       3.374   2.407  20.193  0.00  0.00    +0.000 C 
ATOM      5  N   UNL     1       3.409   3.601  19.352  0.00  0.00    +0.000 N 
ATOM      6  C   UNL     1       4.627   4.068  18.881  0.00  0.00    +0.000 C 
ATOM      7  O   UNL     1       5.711   3.604  19.217  0.00  0.00    +0.000 OA
ATOM      8  N   UNL     1       4.535   5.142  18.024  0.00  0.00    +0.000 N 
ATOM      9  C   UNL     1       2.093   4.179  19.070  0.00  0.00    +0.000 C 
ATOM     10  H   UNL     1       3.746   5.130  17.404  0.00  0.00    +0.000 HD
ENDROOT
BRANCH   1  11
ATOM     11  C   UNL     1       2.215   5.842  20.939  0.00  0.00    +0.000 C 
BRANCH  11  14
ATOM     12  C   UNL     1       1.580   8.844  19.117  0.00  0.00    +0.000 A 
ATOM     13  C   UNL     1       2.140   7.588  19.146  0.00  0.00    +0.000 A 
ATOM     14  N   UNL     1       1.829   7.111  20.382  0.00  0.00    +0.000 N 
ATOM     15  N   UNL     1       1.083   7.997  21.075  0.00  0.00    +0.000 NA
ATOM     16  N   UNL     1       0.929   9.069  20.304  0.00  0.00    +0.000 NA
BRANCH  12  17
ATOM     17  C   UNL     1       1.664   9.856  18.037  0.00  0.00    +0.000 C 
BRANCH  17  18
ATOM     18  N   UNL     1       0.328  10.392  17.777  0.00  0.00    +0.000 NA
ATOM     19  H   UNL     1       0.413  11.286  17.299  0.00  0.00    +0.000 HD
ATOM     20  H   UNL     1      -0.120  10.581  18.673  0.00  0.00    +0.000 HD
ENDBRANCH  17  18
ENDBRANCH  12  17
ENDBRANCH  11  14
ENDBRANCH   1  11
BRANCH   8  21
ATOM     21  C   UNL     1       5.703   5.784  17.451  0.00  0.00    +0.000 C 
BRANCH  21  22
ATOM     22  C   UNL     1       6.004   5.197  16.090  0.00  0.00    +0.000 A 
ATOM     23  C   UNL     1       7.252   5.432  15.489  0.00  0.00    +0.000 A 
ATOM     24  C   UNL     1       7.528   4.956  14.203  0.00  0.00    +0.000 A 
ATOM     25  C   UNL     1       6.559   4.233  13.512  0.00  0.00    +0.000 A 
ATOM     26 CL   UNL     1       6.878   3.691  11.909  0.00  0.00    +0.000 Cl
ATOM     27  C   UNL     1       5.330   3.958  14.106  0.00  0.00    +0.000 A 
ATOM     28  C   UNL     1       5.053   4.437  15.392  0.00  0.00    +0.000 A 
ENDBRANCH  21  22
ENDBRANCH   8  21
TORSDOF 6
ENDMDL
MODEL 8
REMARK VINA RESULT:      -7.3      2.464      3.081
REMARK  Name = 
REMARK  6 active torsions:
REMARK  status: ('A' for Active; 'I' for Inactive)
REMARK    1  A    between atoms: N_1  and  C_2
REMARK    2  A    between atoms: C_2  and  C_3
REMARK    3  A    between atoms: N_5  and  C_6
REMARK    4  A    between atoms: C_6  and  C_7
REMARK    5  A    between atoms: N_14  and  C_15
REMARK    6  A    between atoms: C_15  and  C_16
REMARK                            x       y       z     vdW  Elec       q    Type
REMARK                         _______ _______ _______ _____ _____    ______ ____
ROOT
ATOM      1  C   UNL     1       1.410   4.668  20.290  0.00  0.00    +0.000 C 
ATOM      2  C   UNL     1       1.226   3.469  21.236  0.00  0.00    +0.000 C 
ATOM      3  C   UNL     1       2.466   2.588  21.415  0.00  0.00    +0.000 C 
ATOM      4  C   UNL     1       3.338   2.408  20.165  0.00  0.00    +0.000 C 
ATOM      5  N   UNL     1       3.399   3.597  19.320  0.00  0.00    +0.000 N 
ATOM      6  C   UNL     1       4.630   4.051  18.868  0.00  0.00    +0.000 C 
ATOM      7  O   UNL     1       5.703   3.579  19.227  0.00  0.00    +0.000 OA
ATOM      8  N   UNL     1       4.562   5.122  18.006  0.00  0.00    +0.000 N 
ATOM      9  C   UNL     1       2.094   4.186  19.011  0.00  0.00    +0.000 C 
ATOM     10  H   UNL     1       3.785   5.114  17.371  0.00  0.00    +0.000 HD
ENDROOT
BRANCH   1  11
ATOM     11  C   UNL     1       2.197   5.856  20.875  0.00  0.00    +0.000 C 
BRANCH  11  14
ATOM     12  C   UNL     1       1.717   8.823  18.951  0.00  0.00    +0.000 A 
ATOM     13  C   UNL     1       2.240   7.553  19.035  0.00  0.00    +0.000 A 
ATOM     14  N   UNL     1       1.869   7.119  20.270  0.00  0.00    +0.000 N 
ATOM     15  N   UNL     1       1.122   8.044  20.910  0.00  0.00    +0.000 NA
ATOM     16  N   UNL     1       1.029   9.099  20.106  0.00  0.00    +0.000 NA
BRANCH  12  17
ATOM     17  C   UNL     1       1.871   9.802  17.849  0.00  0.00    +0.000 C 
BRANCH  17  18
ATOM     18  N   UNL     1       1.183  11.042  18.208  0.00  0.00    +0.000 NA
ATOM     19  H   UNL     1       0.303  11.095  17.703  0.00  0.00    +0.000 HD
ATOM     20  H   UNL     1       1.752  11.826  17.889  0.00  0.00    +0.000 HD
ENDBRANCH  17  18
ENDBRANCH  12  17
ENDBRANCH  11  14
ENDBRANCH   1  11
BRANCH   8  21
ATOM     21  C   UNL     1       5.747   5.751  17.451  0.00  0.00    +0.000 C 
BRANCH  21  22
ATOM     22  C   UNL     1       5.997   5.243  16.049  0.00  0.00    +0.000 A 
ATOM     23  C   UNL     1       4.971   4.582  15.352  0.00  0.00    +0.000 A 
ATOM     24  C   UNL     1       5.199   4.045  14.082  0.00  0.00    +0.000 A 
ATOM     25  C   UNL     1       6.455   4.174  13.493  0.00  0.00    +0.000 A 
ATOM     26 CL   UNL     1       6.753   3.468  11.951  0.00  0.00    +0.000 Cl
ATOM     27  C   UNL     1       7.473   4.859  14.152  0.00  0.00    +0.000 A 
ATOM     28  C   UNL     1       7.245   5.393  15.425  0.00  0.00    +0.000 A 
ENDBRANCH  21  22
ENDBRANCH   8  21
TORSDOF 6
ENDMDL
MODEL 9
REMARK VINA RESULT:      -7.2      2.418      3.005
REMARK  Name = 
REMARK  6 active torsions:
REMARK  status: ('A' for Active; 'I' for Inactive)
REMARK    1  A    between atoms: N_1  and  C_2
REMARK    2  A    between atoms: C_2  and  C_3
REMARK    3  A    between atoms: N_5  and  C_6
REMARK    4  A    between atoms: C_6  and  C_7
REMARK    5  A    between atoms: N_14  and  C_15
REMARK    6  A    between atoms: C_15  and  C_16
REMARK                            x       y       z     vdW  Elec       q    Type
REMARK                         _______ _______ _______ _____ _____    ______ ____
ROOT
ATOM      1  C   UNL     1       1.528   5.046  19.910  0.00  0.00    +0.000 C 
ATOM      2  C   UNL     1       1.258   3.978  20.983  0.00  0.00    +0.000 C 
ATOM      3  C   UNL     1       2.459   3.094  21.335  0.00  0.00    +0.000 C 
ATOM      4  C   UNL     1       3.387   2.738  20.165  0.00  0.00    +0.000 C 
ATOM      5  N   UNL     1       3.527   3.812  19.185  0.00  0.00    +0.000 N 
ATOM      6  C   UNL     1       4.794   4.174  18.748  0.00  0.00    +0.000 C 
ATOM      7  O   UNL     1       5.832   3.723  19.219  0.00  0.00    +0.000 OA
ATOM      8  N   UNL     1       4.804   5.133  17.760  0.00  0.00    +0.000 N 
ATOM      9  C   UNL     1       2.259   4.392  18.738  0.00  0.00    +0.000 C 
ATOM     10  H   UNL     1       4.059   5.066  17.090  0.00  0.00    +0.000 HD
ENDROOT
BRANCH   1  11
ATOM     11  C   UNL     1       2.324   6.276  20.387  0.00  0.00    +0.000 C 
BRANCH  11  14
ATOM     12  C   UNL     1       1.530   9.324  18.709  0.00  0.00    +0.000 A 
ATOM     13  C   UNL     1       1.404   8.537  19.831  0.00  0.00    +0.000 A 
ATOM     14  N   UNL     1       2.150   7.434  19.552  0.00  0.00    +0.000 N 
ATOM     15  N   UNL     1       2.745   7.537  18.344  0.00  0.00    +0.000 NA
ATOM     16  N   UNL     1       2.363   8.697  17.817  0.00  0.00    +0.000 NA
BRANCH  12  17
ATOM     17  C   UNL     1       0.870  10.620  18.425  0.00  0.00    +0.000 C 
BRANCH  17  18
ATOM     18  N   UNL     1       1.893  11.638  18.186  0.00  0.00    +0.000 NA
ATOM     19  H   UNL     1       2.202  11.583  17.219  0.00  0.00    +0.000 HD
ATOM     20  H   UNL     1       2.703  11.417  18.765  0.00  0.00    +0.000 HD
ENDBRANCH  17  18
ENDBRANCH  12  17
ENDBRANCH  11  14
ENDBRANCH   1  11
BRANCH   8  21
ATOM     21  C   UNL     1       6.035   5.657  17.197  0.00  0.00    +0.000 C 
BRANCH  21  22
ATOM     22  C   UNL     1       6.225   5.139  15.789  0.00  0.00    +0.000 A 
ATOM     23  C   UNL     1       5.293   4.239  15.244  0.00  0.00    +0.000 A 
ATOM     24  C   UNL     1       5.484   3.695  13.970  0.00  0.00    +0.000 A 
ATOM     25  C   UNL     1       6.605   4.054  13.226  0.00  0.00    +0.000 A 
ATOM     26 CL   UNL     1       6.868   3.346  11.680  0.00  0.00    +0.000 Cl
ATOM     27  C   UNL     1       7.520   4.974  13.734  0.00  0.00    +0.000 A 
ATOM     28  C   UNL     1       7.330   5.516  15.011  0.00  0.00    +0.000 A 
ENDBRANCH  21  22
ENDBRANCH   8  21
TORSDOF 6
ENDMDL
