MODEL 1
REMARK VINA RESULT:      -6.8      0.000      0.000
REMARK  Name = 
REMARK  12 active torsions:
REMARK  status: ('A' for Active; 'I' for Inactive)
REMARK    1  A    between atoms: C_2  and  C_3
REMARK    2  A    between atoms: C_2  and  C_13
REMARK    3  A    between atoms: C_6  and  O_7
REMARK    4  A    between atoms: O_7  and  C_8
REMARK    5  A    between atoms: C_9  and  O_10
REMARK    6  A    between atoms: O_10  and  C_11
REMARK    7  A    between atoms: C_15  and  O_16
REMARK    8  A    between atoms: O_16  and  C_17
REMARK    9  A    between atoms: C_18  and  O_19
REMARK   10  A    between atoms: O_19  and  C_20
REMARK   11  A    between atoms: C_21  and  SE_22
REMARK   12  A    between atoms: SE_22  and  C_23
REMARK                            x       y       z     vdW  Elec       q    Type
REMARK                         _______ _______ _______ _____ _____    ______ ____
ROOT
ATOM      1  C   UNL     1       3.247   8.085  17.119  0.00  0.00    +0.000 C 
ATOM      2  C   UNL     1       2.857   7.444  18.236  0.00  0.00    +0.000 C 
ENDROOT
BRANCH   2   3
ATOM      3  C   UNL     1       1.926   8.160  19.145  0.00  0.00    +0.000 A 
ATOM      4  C   UNL     1       1.791   7.759  20.476  0.00  0.00    +0.000 A 
ATOM      5  C   UNL     1       0.954   8.467  21.340  0.00  0.00    +0.000 A 
ATOM      6  C   UNL     1       0.241   9.592  20.900  0.00  0.00    +0.000 A 
ATOM      7  C   UNL     1       0.372  10.010  19.548  0.00  0.00    +0.000 A 
ATOM      8  C   UNL     1       1.221   9.281  18.685  0.00  0.00    +0.000 A 
BRANCH   6   9
ATOM      9  O   UNL     1      -0.535  10.225  21.823  0.00  0.00    +0.000 OA
ATOM     10  C   UNL     1      -0.599   9.989  23.181  0.00  0.00    +0.000 C 
ENDBRANCH   6   9
BRANCH   7  11
ATOM     11  O   UNL     1      -0.317  11.098  19.103  0.00  0.00    +0.000 OA
ATOM     12  C   UNL     1      -1.580  11.090  18.549  0.00  0.00    +0.000 C 
ENDBRANCH   7  11
ENDBRANCH   2   3
BRANCH   2  13
ATOM     13  C   UNL     1       3.337   6.062  18.611  0.00  0.00    +0.000 A 
ATOM     14  C   UNL     1       4.717   5.796  18.600  0.00  0.00    +0.000 A 
ATOM     15  C   UNL     1       5.240   4.532  18.915  0.00  0.00    +0.000 A 
ATOM     16  C   UNL     1       4.351   3.478  19.258  0.00  0.00    +0.000 A 
ATOM     17  C   UNL     1       2.963   3.730  19.264  0.00  0.00    +0.000 A 
ATOM     18  C   UNL     1       2.469   5.006  18.951  0.00  0.00    +0.000 A 
BRANCH  15  19
ATOM     19  O   UNL     1       6.583   4.312  18.874  0.00  0.00    +0.000 OA
ATOM     20  C   UNL     1       7.434   4.634  17.832  0.00  0.00    +0.000 C 
ENDBRANCH  15  19
BRANCH  16  21
ATOM     21  O   UNL     1       4.765   2.217  19.569  0.00  0.00    +0.000 OA
ATOM     22  C   UNL     1       4.958   1.683  20.827  0.00  0.00    +0.000 C 
ENDBRANCH  16  21
BRANCH  17  23
ATOM     23 SE   UNL     1       1.677   2.313  19.603  0.00  0.00    +0.000 Se
ATOM     24  C   UNL     1       1.389   2.658  21.500  0.00  0.00    +0.000 C 
ENDBRANCH  17  23
ENDBRANCH   2  13
TORSDOF 7
ENDMDL
MODEL 2
REMARK VINA RESULT:      -6.4      3.500      8.234
REMARK  Name = 
REMARK  12 active torsions:
REMARK  status: ('A' for Active; 'I' for Inactive)
REMARK    1  A    between atoms: C_2  and  C_3
REMARK    2  A    between atoms: C_2  and  C_13
REMARK    3  A    between atoms: C_6  and  O_7
REMARK    4  A    between atoms: O_7  and  C_8
REMARK    5  A    between atoms: C_9  and  O_10
REMARK    6  A    between atoms: O_10  and  C_11
REMARK    7  A    between atoms: C_15  and  O_16
REMARK    8  A    between atoms: O_16  and  C_17
REMARK    9  A    between atoms: C_18  and  O_19
REMARK   10  A    between atoms: O_19  and  C_20
REMARK   11  A    between atoms: C_21  and  SE_22
REMARK   12  A    between atoms: SE_22  and  C_23
REMARK                            x       y       z     vdW  Elec       q    Type
REMARK                         _______ _______ _______ _____ _____    ______ ____
ROOT
ATOM      1  C   UNL     1       2.068  11.158  18.179  0.00  0.00    +0.000 C 
ATOM      2  C   UNL     1       1.095  10.307  18.555  0.00  0.00    +0.000 C 
ENDROOT
BRANCH   2   3
ATOM      3  C   UNL     1       1.512   8.972  19.055  0.00  0.00    +0.000 A 
ATOM      4  C   UNL     1       1.212   8.583  20.362  0.00  0.00    +0.000 A 
ATOM      5  C   UNL     1       1.560   7.308  20.812  0.00  0.00    +0.000 A 
ATOM      6  C   UNL     1       2.207   6.394  19.968  0.00  0.00    +0.000 A 
ATOM      7  C   UNL     1       2.517   6.777  18.636  0.00  0.00    +0.000 A 
ATOM      8  C   UNL     1       2.161   8.073  18.197  0.00  0.00    +0.000 A 
BRANCH   6   9
ATOM      9  O   UNL     1       2.490   5.169  20.495  0.00  0.00    +0.000 OA
ATOM     10  C   UNL     1       1.645   4.085  20.619  0.00  0.00    +0.000 C 
ENDBRANCH   6   9
BRANCH   7  11
ATOM     11  O   UNL     1       3.149   5.903  17.805  0.00  0.00    +0.000 OA
ATOM     12  C   UNL     1       4.509   5.830  17.582  0.00  0.00    +0.000 C 
ENDBRANCH   7  11
ENDBRANCH   2   3
BRANCH   2  13
ATOM     13  C   UNL     1      -0.376  10.635  18.467  0.00  0.00    +0.000 A 
ATOM     14  C   UNL     1      -1.128  10.101  17.407  0.00  0.00    +0.000 A 
ATOM     15  C   UNL     1      -2.495  10.376  17.243  0.00  0.00    +0.000 A 
ATOM     16  C   UNL     1      -3.149  11.224  18.177  0.00  0.00    +0.000 A 
ATOM     17  C   UNL     1      -2.403  11.774  19.241  0.00  0.00    +0.000 A 
ATOM     18  C   UNL     1      -1.039  11.476  19.382  0.00  0.00    +0.000 A 
BRANCH  15  19
ATOM     19  O   UNL     1      -3.182   9.853  16.191  0.00  0.00    +0.000 OA
ATOM     20  C   UNL     1      -3.198  10.343  14.898  0.00  0.00    +0.000 C 
ENDBRANCH  15  19
BRANCH  16  21
ATOM     21  O   UNL     1      -4.469  11.555  18.095  0.00  0.00    +0.000 OA
ATOM     22  C   UNL     1      -5.553  10.783  18.461  0.00  0.00    +0.000 C 
ENDBRANCH  16  21
BRANCH  17  23
ATOM     23 SE   UNL     1      -3.194  13.037  20.488  0.00  0.00    +0.000 Se
ATOM     24  C   UNL     1      -1.578  13.482  21.482  0.00  0.00    +0.000 C 
ENDBRANCH  17  23
ENDBRANCH   2  13
TORSDOF 7
ENDMDL
MODEL 3
REMARK VINA RESULT:      -6.3      1.725      2.973
REMARK  Name = 
REMARK  12 active torsions:
REMARK  status: ('A' for Active; 'I' for Inactive)
REMARK    1  A    between atoms: C_2  and  C_3
REMARK    2  A    between atoms: C_2  and  C_13
REMARK    3  A    between atoms: C_6  and  O_7
REMARK    4  A    between atoms: O_7  and  C_8
REMARK    5  A    between atoms: C_9  and  O_10
REMARK    6  A    between atoms: O_10  and  C_11
REMARK    7  A    between atoms: C_15  and  O_16
REMARK    8  A    between atoms: O_16  and  C_17
REMARK    9  A    between atoms: C_18  and  O_19
REMARK   10  A    between atoms: O_19  and  C_20
REMARK   11  A    between atoms: C_21  and  SE_22
REMARK   12  A    between atoms: SE_22  and  C_23
REMARK                            x       y       z     vdW  Elec       q    Type
REMARK                         _______ _______ _______ _____ _____    ______ ____
ROOT
ATOM      1  C   UNL     1       2.051   8.633  17.421  0.00  0.00    +0.000 C 
ATOM      2  C   UNL     1       2.096   8.068  18.641  0.00  0.00    +0.000 C 
ENDROOT
BRANCH   2   3
ATOM      3  C   UNL     1       1.438   8.798  19.756  0.00  0.00    +0.000 A 
ATOM      4  C   UNL     1       1.449   8.270  21.049  0.00  0.00    +0.000 A 
ATOM      5  C   UNL     1       0.873   8.983  22.102  0.00  0.00    +0.000 A 
ATOM      6  C   UNL     1       0.283  10.238  21.891  0.00  0.00    +0.000 A 
ATOM      7  C   UNL     1       0.268  10.785  20.581  0.00  0.00    +0.000 A 
ATOM      8  C   UNL     1       0.851  10.049  19.524  0.00  0.00    +0.000 A 
BRANCH   6   9
ATOM      9  O   UNL     1      -0.235  10.862  22.986  0.00  0.00    +0.000 OA
ATOM     10  C   UNL     1      -1.560  11.142  23.253  0.00  0.00    +0.000 C 
ENDBRANCH   6   9
BRANCH   7  11
ATOM     11  O   UNL     1      -0.305  12.001  20.358  0.00  0.00    +0.000 OA
ATOM     12  C   UNL     1      -1.465  12.236  19.649  0.00  0.00    +0.000 C 
ENDBRANCH   7  11
ENDBRANCH   2   3
BRANCH   2  13
ATOM     13  C   UNL     1       2.798   6.762  18.928  0.00  0.00    +0.000 A 
ATOM     14  C   UNL     1       2.279   5.918  19.925  0.00  0.00    +0.000 A 
ATOM     15  C   UNL     1       2.885   4.698  20.265  0.00  0.00    +0.000 A 
ATOM     16  C   UNL     1       4.065   4.295  19.583  0.00  0.00    +0.000 A 
ATOM     17  C   UNL     1       4.600   5.137  18.587  0.00  0.00    +0.000 A 
ATOM     18  C   UNL     1       3.969   6.349  18.263  0.00  0.00    +0.000 A 
BRANCH  15  19
ATOM     19  O   UNL     1       2.361   3.919  21.250  0.00  0.00    +0.000 OA
ATOM     20  C   UNL     1       1.264   3.083  21.138  0.00  0.00    +0.000 C 
ENDBRANCH  15  19
BRANCH  16  21
ATOM     21  O   UNL     1       4.727   3.134  19.851  0.00  0.00    +0.000 OA
ATOM     22  C   UNL     1       4.347   1.852  19.509  0.00  0.00    +0.000 C 
ENDBRANCH  16  21
BRANCH  17  23
ATOM     23 SE   UNL     1       6.275   4.716  17.695  0.00  0.00    +0.000 Se
ATOM     24  C   UNL     1       7.308   6.242  18.329  0.00  0.00    +0.000 C 
ENDBRANCH  17  23
ENDBRANCH   2  13
TORSDOF 7
ENDMDL
MODEL 4
REMARK VINA RESULT:      -6.3      3.415      4.933
REMARK  Name = 
REMARK  12 active torsions:
REMARK  status: ('A' for Active; 'I' for Inactive)
REMARK    1  A    between atoms: C_2  and  C_3
REMARK    2  A    between atoms: C_2  and  C_13
REMARK    3  A    between atoms: C_6  and  O_7
REMARK    4  A    between atoms: O_7  and  C_8
REMARK    5  A    between atoms: C_9  and  O_10
REMARK    6  A    between atoms: O_10  and  C_11
REMARK    7  A    between atoms: C_15  and  O_16
REMARK    8  A    between atoms: O_16  and  C_17
REMARK    9  A    between atoms: C_18  and  O_19
REMARK   10  A    between atoms: O_19  and  C_20
REMARK   11  A    between atoms: C_21  and  SE_22
REMARK   12  A    between atoms: SE_22  and  C_23
REMARK                            x       y       z     vdW  Elec       q    Type
REMARK                         _______ _______ _______ _____ _____    ______ ____
ROOT
ATOM      1  C   UNL     1       2.794   3.041  17.132  0.00  0.00    +0.000 C 
ATOM      2  C   UNL     1       3.492   4.189  17.204  0.00  0.00    +0.000 C 
ENDROOT
BRANCH   2   3
ATOM      3  C   UNL     1       2.985   5.240  18.124  0.00  0.00    +0.000 A 
ATOM      4  C   UNL     1       2.629   4.919  19.435  0.00  0.00    +0.000 A 
ATOM      5  C   UNL     1       2.202   5.918  20.311  0.00  0.00    +0.000 A 
ATOM      6  C   UNL     1       2.128   7.257  19.902  0.00  0.00    +0.000 A 
ATOM      7  C   UNL     1       2.490   7.597  18.571  0.00  0.00    +0.000 A 
ATOM      8  C   UNL     1       2.917   6.573  17.695  0.00  0.00    +0.000 A 
BRANCH   6   9
ATOM      9  O   UNL     1       1.717   8.161  20.835  0.00  0.00    +0.000 OA
ATOM     10  C   UNL     1       0.448   8.328  21.350  0.00  0.00    +0.000 C 
ENDBRANCH   6   9
BRANCH   7  11
ATOM     11  O   UNL     1       2.420   8.893  18.156  0.00  0.00    +0.000 OA
ATOM     12  C   UNL     1       1.266   9.606  17.905  0.00  0.00    +0.000 C 
ENDBRANCH   7  11
ENDBRANCH   2   3
BRANCH   2  13
ATOM     13  C   UNL     1       4.731   4.462  16.385  0.00  0.00    +0.000 A 
ATOM     14  C   UNL     1       5.676   5.381  16.871  0.00  0.00    +0.000 A 
ATOM     15  C   UNL     1       6.843   5.704  16.159  0.00  0.00    +0.000 A 
ATOM     16  C   UNL     1       7.083   5.086  14.902  0.00  0.00    +0.000 A 
ATOM     17  C   UNL     1       6.138   4.168  14.400  0.00  0.00    +0.000 A 
ATOM     18  C   UNL     1       4.983   3.860  15.137  0.00  0.00    +0.000 A 
BRANCH  15  19
ATOM     19  O   UNL     1       7.724   6.614  16.657  0.00  0.00    +0.000 OA
ATOM     20  C   UNL     1       7.439   7.621  17.562  0.00  0.00    +0.000 C 
ENDBRANCH  15  19
BRANCH  16  21
ATOM     21  O   UNL     1       8.181   5.344  14.137  0.00  0.00    +0.000 OA
ATOM     22  C   UNL     1       8.208   5.757  12.820  0.00  0.00    +0.000 C 
ENDBRANCH  16  21
BRANCH  17  23
ATOM     23 SE   UNL     1       6.332   3.374  12.637  0.00  0.00    +0.000 Se
ATOM     24  C   UNL     1       4.461   3.452  12.098  0.00  0.00    +0.000 C 
ENDBRANCH  17  23
ENDBRANCH   2  13
TORSDOF 7
ENDMDL
MODEL 5
REMARK VINA RESULT:      -6.3      2.201      3.948
REMARK  Name = 
REMARK  12 active torsions:
REMARK  status: ('A' for Active; 'I' for Inactive)
REMARK    1  A    between atoms: C_2  and  C_3
REMARK    2  A    between atoms: C_2  and  C_13
REMARK    3  A    between atoms: C_6  and  O_7
REMARK    4  A    between atoms: O_7  and  C_8
REMARK    5  A    between atoms: C_9  and  O_10
REMARK    6  A    between atoms: O_10  and  C_11
REMARK    7  A    between atoms: C_15  and  O_16
REMARK    8  A    between atoms: O_16  and  C_17
REMARK    9  A    between atoms: C_18  and  O_19
REMARK   10  A    between atoms: O_19  and  C_20
REMARK   11  A    between atoms: C_21  and  SE_22
REMARK   12  A    between atoms: SE_22  and  C_23
REMARK                            x       y       z     vdW  Elec       q    Type
REMARK                         _______ _______ _______ _____ _____    ______ ____
ROOT
ATOM      1  C   UNL     1       1.548   5.528  20.773  0.00  0.00    +0.000 C 
ATOM      2  C   UNL     1       2.197   6.276  19.862  0.00  0.00    +0.000 C 
ENDROOT
BRANCH   2   3
ATOM      3  C   UNL     1       1.814   7.707  19.756  0.00  0.00    +0.000 A 
ATOM      4  C   UNL     1       1.949   8.386  18.544  0.00  0.00    +0.000 A 
ATOM      5  C   UNL     1       1.541   9.716  18.436  0.00  0.00    +0.000 A 
ATOM      6  C   UNL     1       0.982  10.394  19.529  0.00  0.00    +0.000 A 
ATOM      7  C   UNL     1       0.837   9.713  20.767  0.00  0.00    +0.000 A 
ATOM      8  C   UNL     1       1.260   8.368  20.862  0.00  0.00    +0.000 A 
BRANCH   6   9
ATOM      9  O   UNL     1       0.598  11.685  19.318  0.00  0.00    +0.000 OA
ATOM     10  C   UNL     1       1.240  12.647  18.566  0.00  0.00    +0.000 C 
ENDBRANCH   6   9
BRANCH   7  11
ATOM     11  O   UNL     1       0.300  10.359  21.840  0.00  0.00    +0.000 OA
ATOM     12  C   UNL     1      -0.145   9.769  23.005  0.00  0.00    +0.000 C 
ENDBRANCH   7  11
ENDBRANCH   2   3
BRANCH   2  13
ATOM     13  C   UNL     1       3.261   5.727  18.942  0.00  0.00    +0.000 A 
ATOM     14  C   UNL     1       3.197   4.377  18.558  0.00  0.00    +0.000 A 
ATOM     15  C   UNL     1       4.159   3.787  17.723  0.00  0.00    +0.000 A 
ATOM     16  C   UNL     1       5.241   4.576  17.245  0.00  0.00    +0.000 A 
ATOM     17  C   UNL     1       5.322   5.930  17.630  0.00  0.00    +0.000 A 
ATOM     18  C   UNL     1       4.341   6.494  18.462  0.00  0.00    +0.000 A 
BRANCH  15  19
ATOM     19  O   UNL     1       4.069   2.471  17.391  0.00  0.00    +0.000 OA
ATOM     20  C   UNL     1       3.479   1.473  18.146  0.00  0.00    +0.000 C 
ENDBRANCH  15  19
BRANCH  16  21
ATOM     21  O   UNL     1       6.226   4.089  16.439  0.00  0.00    +0.000 OA
ATOM     22  C   UNL     1       6.164   3.864  15.079  0.00  0.00    +0.000 C 
ENDBRANCH  16  21
BRANCH  17  23
ATOM     23 SE   UNL     1       6.832   7.041  17.119  0.00  0.00    +0.000 Se
ATOM     24  C   UNL     1       7.993   6.628  18.629  0.00  0.00    +0.000 C 
ENDBRANCH  17  23
ENDBRANCH   2  13
TORSDOF 7
ENDMDL
MODEL 6
REMARK VINA RESULT:      -6.3      3.031      7.583
REMARK  Name = 
REMARK  12 active torsions:
REMARK  status: ('A' for Active; 'I' for Inactive)
REMARK    1  A    between atoms: C_2  and  C_3
REMARK    2  A    between atoms: C_2  and  C_13
REMARK    3  A    between atoms: C_6  and  O_7
REMARK    4  A    between atoms: O_7  and  C_8
REMARK    5  A    between atoms: C_9  and  O_10
REMARK    6  A    between atoms: O_10  and  C_11
REMARK    7  A    between atoms: C_15  and  O_16
REMARK    8  A    between atoms: O_16  and  C_17
REMARK    9  A    between atoms: C_18  and  O_19
REMARK   10  A    between atoms: O_19  and  C_20
REMARK   11  A    between atoms: C_21  and  SE_22
REMARK   12  A    between atoms: SE_22  and  C_23
REMARK                            x       y       z     vdW  Elec       q    Type
REMARK                         _______ _______ _______ _____ _____    ______ ____
ROOT
ATOM      1  C   UNL     1       3.147   8.223  17.596  0.00  0.00    +0.000 C 
ATOM      2  C   UNL     1       2.168   7.968  18.482  0.00  0.00    +0.000 C 
ENDROOT
BRANCH   2   3
ATOM      3  C   UNL     1       2.054   6.577  18.991  0.00  0.00    +0.000 A 
ATOM      4  C   UNL     1       1.948   6.333  20.362  0.00  0.00    +0.000 A 
ATOM      5  C   UNL     1       1.790   5.028  20.832  0.00  0.00    +0.000 A 
ATOM      6  C   UNL     1       1.727   3.942  19.948  0.00  0.00    +0.000 A 
ATOM      7  C   UNL     1       1.832   4.177  18.551  0.00  0.00    +0.000 A 
ATOM      8  C   UNL     1       1.996   5.504  18.091  0.00  0.00    +0.000 A 
BRANCH   6   9
ATOM      9  O   UNL     1       1.554   2.710  20.504  0.00  0.00    +0.000 OA
ATOM     10  C   UNL     1       2.068   2.237  21.694  0.00  0.00    +0.000 C 
ENDBRANCH   6   9
BRANCH   7  11
ATOM     11  O   UNL     1       1.777   3.132  17.679  0.00  0.00    +0.000 OA
ATOM     12  C   UNL     1       2.772   2.202  17.459  0.00  0.00    +0.000 C 
ENDBRANCH   7  11
ENDBRANCH   2   3
BRANCH   2  13
ATOM     13  C   UNL     1       1.180   9.008  18.954  0.00  0.00    +0.000 A 
ATOM     14  C   UNL     1       1.155   9.352  20.316  0.00  0.00    +0.000 A 
ATOM     15  C   UNL     1       0.253  10.293  20.836  0.00  0.00    +0.000 A 
ATOM     16  C   UNL     1      -0.672  10.925  19.961  0.00  0.00    +0.000 A 
ATOM     17  C   UNL     1      -0.663  10.582  18.593  0.00  0.00    +0.000 A 
ATOM     18  C   UNL     1       0.255   9.641  18.100  0.00  0.00    +0.000 A 
BRANCH  15  19
ATOM     19  O   UNL     1       0.250  10.584  22.165  0.00  0.00    +0.000 OA
ATOM     20  C   UNL     1      -0.232   9.776  23.179  0.00  0.00    +0.000 C 
ENDBRANCH  15  19
BRANCH  16  21
ATOM     21  O   UNL     1      -1.591  11.843  20.376  0.00  0.00    +0.000 OA
ATOM     22  C   UNL     1      -1.406  13.200  20.540  0.00  0.00    +0.000 C 
ENDBRANCH  16  21
BRANCH  17  23
ATOM     23 SE   UNL     1      -1.974  11.309  17.356  0.00  0.00    +0.000 Se
ATOM     24  C   UNL     1      -3.331   9.924  17.557  0.00  0.00    +0.000 C 
ENDBRANCH  17  23
ENDBRANCH   2  13
TORSDOF 7
ENDMDL
MODEL 7
REMARK VINA RESULT:      -6.3      3.602      5.749
REMARK  Name = 
REMARK  12 active torsions:
REMARK  status: ('A' for Active; 'I' for Inactive)
REMARK    1  A    between atoms: C_2  and  C_3
REMARK    2  A    between atoms: C_2  and  C_13
REMARK    3  A    between atoms: C_6  and  O_7
REMARK    4  A    between atoms: O_7  and  C_8
REMARK    5  A    between atoms: C_9  and  O_10
REMARK    6  A    between atoms: O_10  and  C_11
REMARK    7  A    between atoms: C_15  and  O_16
REMARK    8  A    between atoms: O_16  and  C_17
REMARK    9  A    between atoms: C_18  and  O_19
REMARK   10  A    between atoms: O_19  and  C_20
REMARK   11  A    between atoms: C_21  and  SE_22
REMARK   12  A    between atoms: SE_22  and  C_23
REMARK                            x       y       z     vdW  Elec       q    Type
REMARK                         _______ _______ _______ _____ _____    ______ ____
ROOT
ATOM      1  C   UNL     1       2.903   2.811  16.673  0.00  0.00    +0.000 C 
ATOM      2  C   UNL     1       3.639   3.913  16.907  0.00  0.00    +0.000 C 
ENDROOT
BRANCH   2   3
ATOM      3  C   UNL     1       3.192   4.813  18.001  0.00  0.00    +0.000 A 
ATOM      4  C   UNL     1       2.981   6.171  17.755  0.00  0.00    +0.000 A 
ATOM      5  C   UNL     1       2.512   7.003  18.773  0.00  0.00    +0.000 A 
ATOM      6  C   UNL     1       2.236   6.499  20.052  0.00  0.00    +0.000 A 
ATOM      7  C   UNL     1       2.445   5.119  20.314  0.00  0.00    +0.000 A 
ATOM      8  C   UNL     1       2.925   4.290  19.274  0.00  0.00    +0.000 A 
BRANCH   6   9
ATOM      9  O   UNL     1       1.766   7.388  20.972  0.00  0.00    +0.000 OA
ATOM     10  C   UNL     1       1.163   8.607  20.741  0.00  0.00    +0.000 C 
ENDBRANCH   6   9
BRANCH   7  11
ATOM     11  O   UNL     1       2.187   4.614  21.552  0.00  0.00    +0.000 OA
ATOM     12  C   UNL     1       2.048   3.280  21.875  0.00  0.00    +0.000 C 
ENDBRANCH   7  11
ENDBRANCH   2   3
BRANCH   2  13
ATOM     13  C   UNL     1       4.864   4.281  16.104  0.00  0.00    +0.000 A 
ATOM     14  C   UNL     1       5.754   5.235  16.623  0.00  0.00    +0.000 A 
ATOM     15  C   UNL     1       6.903   5.646  15.928  0.00  0.00    +0.000 A 
ATOM     16  C   UNL     1       7.181   5.084  14.653  0.00  0.00    +0.000 A 
ATOM     17  C   UNL     1       6.290   4.132  14.116  0.00  0.00    +0.000 A 
ATOM     18  C   UNL     1       5.152   3.735  14.837  0.00  0.00    +0.000 A 
BRANCH  15  19
ATOM     19  O   UNL     1       7.730   6.587  16.460  0.00  0.00    +0.000 OA
ATOM     20  C   UNL     1       7.583   7.208  17.687  0.00  0.00    +0.000 C 
ENDBRANCH  15  19
BRANCH  16  21
ATOM     21  O   UNL     1       8.265   5.428  13.901  0.00  0.00    +0.000 OA
ATOM     22  C   UNL     1       8.269   5.989  12.641  0.00  0.00    +0.000 C 
ENDBRANCH  16  21
BRANCH  17  23
ATOM     23 SE   UNL     1       6.534   3.407  12.329  0.00  0.00    +0.000 Se
ATOM     24  C   UNL     1       4.654   3.282  11.831  0.00  0.00    +0.000 C 
ENDBRANCH  17  23
ENDBRANCH   2  13
TORSDOF 7
ENDMDL
MODEL 8
REMARK VINA RESULT:      -6.3      1.342      1.379
REMARK  Name = 
REMARK  12 active torsions:
REMARK  status: ('A' for Active; 'I' for Inactive)
REMARK    1  A    between atoms: C_2  and  C_3
REMARK    2  A    between atoms: C_2  and  C_13
REMARK    3  A    between atoms: C_6  and  O_7
REMARK    4  A    between atoms: O_7  and  C_8
REMARK    5  A    between atoms: C_9  and  O_10
REMARK    6  A    between atoms: O_10  and  C_11
REMARK    7  A    between atoms: C_15  and  O_16
REMARK    8  A    between atoms: O_16  and  C_17
REMARK    9  A    between atoms: C_18  and  O_19
REMARK   10  A    between atoms: O_19  and  C_20
REMARK   11  A    between atoms: C_21  and  SE_22
REMARK   12  A    between atoms: SE_22  and  C_23
REMARK                            x       y       z     vdW  Elec       q    Type
REMARK                         _______ _______ _______ _____ _____    ______ ____
ROOT
ATOM      1  C   UNL     1       2.379   8.727  17.430  0.00  0.00    +0.000 C 
ATOM      2  C   UNL     1       2.207   8.052  18.581  0.00  0.00    +0.000 C 
ENDROOT
BRANCH   2   3
ATOM      3  C   UNL     1       1.544   8.768  19.701  0.00  0.00    +0.000 A 
ATOM      4  C   UNL     1       1.483   8.191  20.970  0.00  0.00    +0.000 A 
ATOM      5  C   UNL     1       0.904   8.889  22.031  0.00  0.00    +0.000 A 
ATOM      6  C   UNL     1       0.382  10.179  21.852  0.00  0.00    +0.000 A 
ATOM      7  C   UNL     1       0.441  10.778  20.565  0.00  0.00    +0.000 A 
ATOM      8  C   UNL     1       1.027  10.056  19.500  0.00  0.00    +0.000 A 
BRANCH   6   9
ATOM      9  O   UNL     1      -0.145  10.784  22.952  0.00  0.00    +0.000 OA
ATOM     10  C   UNL     1      -1.470  11.076  23.205  0.00  0.00    +0.000 C 
ENDBRANCH   6   9
BRANCH   7  11
ATOM     11  O   UNL     1      -0.065  12.028  20.373  0.00  0.00    +0.000 OA
ATOM     12  C   UNL     1       0.406  12.968  19.479  0.00  0.00    +0.000 C 
ENDBRANCH   7  11
ENDBRANCH   2   3
BRANCH   2  13
ATOM     13  C   UNL     1       2.675   6.631  18.789  0.00  0.00    +0.000 A 
ATOM     14  C   UNL     1       3.917   6.241  18.260  0.00  0.00    +0.000 A 
ATOM     15  C   UNL     1       4.411   4.933  18.392  0.00  0.00    +0.000 A 
ATOM     16  C   UNL     1       3.635   3.964  19.082  0.00  0.00    +0.000 A 
ATOM     17  C   UNL     1       2.382   4.341  19.610  0.00  0.00    +0.000 A 
ATOM     18  C   UNL     1       1.916   5.657  19.468  0.00  0.00    +0.000 A 
BRANCH  15  19
ATOM     19  O   UNL     1       5.612   4.593  17.848  0.00  0.00    +0.000 OA
ATOM     20  C   UNL     1       5.837   4.200  16.541  0.00  0.00    +0.000 C 
ENDBRANCH  15  19
BRANCH  16  21
ATOM     21  O   UNL     1       4.028   2.670  19.252  0.00  0.00    +0.000 OA
ATOM     22  C   UNL     1       4.709   2.133  20.325  0.00  0.00    +0.000 C 
ENDBRANCH  16  21
BRANCH  17  23
ATOM     23 SE   UNL     1       1.208   3.045  20.459  0.00  0.00    +0.000 Se
ATOM     24  C   UNL     1       0.618   2.120  18.848  0.00  0.00    +0.000 C 
ENDBRANCH  17  23
ENDBRANCH   2  13
TORSDOF 7
ENDMDL
MODEL 9
REMARK VINA RESULT:      -6.3      1.113      1.142
REMARK  Name = 
REMARK  12 active torsions:
REMARK  status: ('A' for Active; 'I' for Inactive)
REMARK    1  A    between atoms: C_2  and  C_3
REMARK    2  A    between atoms: C_2  and  C_13
REMARK    3  A    between atoms: C_6  and  O_7
REMARK    4  A    between atoms: O_7  and  C_8
REMARK    5  A    between atoms: C_9  and  O_10
REMARK    6  A    between atoms: O_10  and  C_11
REMARK    7  A    between atoms: C_15  and  O_16
REMARK    8  A    between atoms: O_16  and  C_17
REMARK    9  A    between atoms: C_18  and  O_19
REMARK   10  A    between atoms: O_19  and  C_20
REMARK   11  A    between atoms: C_21  and  SE_22
REMARK   12  A    between atoms: SE_22  and  C_23
REMARK                            x       y       z     vdW  Elec       q    Type
REMARK                         _______ _______ _______ _____ _____    ______ ____
ROOT
ATOM      1  C   UNL     1       2.662   8.819  17.460  0.00  0.00    +0.000 C 
ATOM      2  C   UNL     1       2.253   8.051  18.486  0.00  0.00    +0.000 C 
ENDROOT
BRANCH   2   3
ATOM      3  C   UNL     1       1.353   8.674  19.490  0.00  0.00    +0.000 A 
ATOM      4  C   UNL     1       1.469   8.347  20.842  0.00  0.00    +0.000 A 
ATOM      5  C   UNL     1       0.656   8.973  21.788  0.00  0.00    +0.000 A 
ATOM      6  C   UNL     1      -0.283   9.943  21.408  0.00  0.00    +0.000 A 
ATOM      7  C   UNL     1      -0.409  10.286  20.035  0.00  0.00    +0.000 A 
ATOM      8  C   UNL     1       0.419   9.640  19.089  0.00  0.00    +0.000 A 
BRANCH   6   9
ATOM      9  O   UNL     1      -1.017  10.509  22.407  0.00  0.00    +0.000 OA
ATOM     10  C   UNL     1      -0.948  11.803  22.879  0.00  0.00    +0.000 C 
ENDBRANCH   6   9
BRANCH   7  11
ATOM     11  O   UNL     1      -1.320  11.223  19.649  0.00  0.00    +0.000 OA
ATOM     12  C   UNL     1      -1.101  12.251  18.755  0.00  0.00    +0.000 C 
ENDBRANCH   7  11
ENDBRANCH   2   3
BRANCH   2  13
ATOM     13  C   UNL     1       2.683   6.615  18.672  0.00  0.00    +0.000 A 
ATOM     14  C   UNL     1       3.996   6.250  18.331  0.00  0.00    +0.000 A 
ATOM     15  C   UNL     1       4.465   4.932  18.455  0.00  0.00    +0.000 A 
ATOM     16  C   UNL     1       3.586   3.926  18.939  0.00  0.00    +0.000 A 
ATOM     17  C   UNL     1       2.263   4.277  19.276  0.00  0.00    +0.000 A 
ATOM     18  C   UNL     1       1.824   5.605  19.148  0.00  0.00    +0.000 A 
BRANCH  15  19
ATOM     19  O   UNL     1       5.739   4.618  18.096  0.00  0.00    +0.000 OA
ATOM     20  C   UNL     1       6.893   5.234  18.545  0.00  0.00    +0.000 C 
ENDBRANCH  15  19
BRANCH  16  21
ATOM     21  O   UNL     1       3.949   2.619  19.084  0.00  0.00    +0.000 OA
ATOM     22  C   UNL     1       3.684   1.574  18.222  0.00  0.00    +0.000 C 
ENDBRANCH  16  21
BRANCH  17  23
ATOM     23 SE   UNL     1       0.967   2.939  19.829  0.00  0.00    +0.000 Se
ATOM     24  C   UNL     1       1.596   2.696  21.658  0.00  0.00    +0.000 C 
ENDBRANCH  17  23
ENDBRANCH   2  13
TORSDOF 7
ENDMDL
