MODEL 1
REMARK VINA RESULT:      -9.2      0.000      0.000
REMARK  Name = 
REMARK  8 active torsions:
REMARK  status: ('A' for Active; 'I' for Inactive)
REMARK    1  A    between atoms: C_1  and  C_2
REMARK    2  A    between atoms: C_5  and  O_6
REMARK    3  A    between atoms: O_6  and  C_7
REMARK    4  A    between atoms: C_7  and  C_8
REMARK    5  A    between atoms: C_10  and  N_11
REMARK    6  A    between atoms: C_23  and  O_24
REMARK    7  A    between atoms: O_24  and  C_25
REMARK    8  A    between atoms: C_28  and  C_29
REMARK                            x       y       z     vdW  Elec       q    Type
REMARK                         _______ _______ _______ _____ _____    ______ ____
ROOT
ATOM      1  C   UNL     1       7.225   6.390  17.635  0.00  0.00    +0.000 C 
ATOM      2  O   UNL     1       5.975   6.472  18.354  0.00  0.00    +0.000 OA
ATOM      3  C   UNL     1       4.890   6.360  17.423  0.00  0.00    +0.000 C 
ATOM      4  C   UNL     1       5.479   6.041  16.065  0.00  0.00    +0.000 C 
ATOM      5  C   UNL     1       6.884   6.598  16.159  0.00  0.00    +0.000 C 
ENDROOT
BRANCH   3   6
ATOM      6  N   UNL     1       3.960   5.358  17.899  0.00  0.00    +0.000 N 
ATOM      7  C   UNL     1       3.871   4.056  17.485  0.00  0.00    +0.000 A 
ATOM      8  N   UNL     1       2.924   3.400  18.125  0.00  0.00    +0.000 NA
ATOM      9  C   UNL     1       2.378   4.317  18.996  0.00  0.00    +0.000 A 
ATOM     10  C   UNL     1       1.376   4.280  19.954  0.00  0.00    +0.000 A 
ATOM     11 CL   UNL     1       0.559   2.822  20.233  0.00  0.00    +0.000 Cl
ATOM     12  N   UNL     1       1.035   5.358  20.680  0.00  0.00    +0.000 NA
ATOM     13  C   UNL     1       1.725   6.477  20.417  0.00  0.00    +0.000 A 
ATOM     14 CL   UNL     1       1.280   7.850  21.339  0.00  0.00    +0.000 Cl
ATOM     15  N   UNL     1       2.721   6.682  19.529  0.00  0.00    +0.000 NA
ATOM     16  C   UNL     1       3.003   5.550  18.856  0.00  0.00    +0.000 A 
ENDBRANCH   3   6
BRANCH   1  17
ATOM     17  C   UNL     1       8.195   7.448  18.186  0.00  0.00    +0.000 C 
BRANCH  17  18
ATOM     18  O   UNL     1       7.712   8.739  17.793  0.00  0.00    +0.000 OA
BRANCH  18  23
ATOM     19  C   UNL     1      10.264  13.531  19.440  0.00  0.00    +0.000 C 
ATOM     20  C   UNL     1       9.654  12.240  18.982  0.00  0.00    +0.000 A 
ATOM     21  C   UNL     1       8.840  12.192  17.849  0.00  0.00    +0.000 A 
ATOM     22  C   UNL     1       8.228  10.991  17.471  0.00  0.00    +0.000 A 
ATOM     23  C   UNL     1       8.429   9.824  18.210  0.00  0.00    +0.000 A 
ATOM     24  C   UNL     1       9.254   9.861  19.332  0.00  0.00    +0.000 A 
ATOM     25  C   UNL     1       9.861  11.064  19.716  0.00  0.00    +0.000 A 
ENDBRANCH  18  23
ENDBRANCH  17  18
ENDBRANCH   1  17
BRANCH   5  26
ATOM     26  O   UNL     1       7.726   5.838  15.297  0.00  0.00    +0.000 OA
BRANCH  26  27
ATOM     27  C   UNL     1       7.139   4.985  14.410  0.00  0.00    +0.000 A 
ATOM     28  C   UNL     1       7.571   5.094  13.086  0.00  0.00    +0.000 A 
ATOM     29  C   UNL     1       7.012   4.294  12.087  0.00  0.00    +0.000 A 
ATOM     30  C   UNL     1       6.015   3.365  12.405  0.00  0.00    +0.000 A 
ATOM     31  C   UNL     1       5.361   2.525  11.349  0.00  0.00    +0.000 C 
ATOM     32  C   UNL     1       5.637   3.211  13.742  0.00  0.00    +0.000 A 
ATOM     33  C   UNL     1       6.205   4.006  14.740  0.00  0.00    +0.000 A 
ENDBRANCH  26  27
ENDBRANCH   5  26
TORSDOF 6
ENDMDL
MODEL 2
REMARK VINA RESULT:      -9.0      7.597     10.813
REMARK  Name = 
REMARK  8 active torsions:
REMARK  status: ('A' for Active; 'I' for Inactive)
REMARK    1  A    between atoms: C_1  and  C_2
REMARK    2  A    between atoms: C_5  and  O_6
REMARK    3  A    between atoms: O_6  and  C_7
REMARK    4  A    between atoms: C_7  and  C_8
REMARK    5  A    between atoms: C_10  and  N_11
REMARK    6  A    between atoms: C_23  and  O_24
REMARK    7  A    between atoms: O_24  and  C_25
REMARK    8  A    between atoms: C_28  and  C_29
REMARK                            x       y       z     vdW  Elec       q    Type
REMARK                         _______ _______ _______ _____ _____    ______ ____
ROOT
ATOM      1  C   UNL     1      -0.737  11.181  21.159  0.00  0.00    +0.000 C 
ATOM      2  O   UNL     1       0.170  12.099  21.808  0.00  0.00    +0.000 OA
ATOM      3  C   UNL     1      -0.021  13.411  21.261  0.00  0.00    +0.000 C 
ATOM      4  C   UNL     1      -1.212  13.353  20.327  0.00  0.00    +0.000 C 
ATOM      5  C   UNL     1      -1.252  11.897  19.911  0.00  0.00    +0.000 C 
ENDROOT
BRANCH   3   6
ATOM      6  N   UNL     1      -0.183  14.356  22.346  0.00  0.00    +0.000 N 
ATOM      7  C   UNL     1       0.612  15.437  22.622  0.00  0.00    +0.000 A 
ATOM      8  N   UNL     1       0.185  16.104  23.674  0.00  0.00    +0.000 NA
ATOM      9  C   UNL     1      -0.939  15.429  24.097  0.00  0.00    +0.000 A 
ATOM     10  C   UNL     1      -1.860  15.606  25.118  0.00  0.00    +0.000 A 
ATOM     11 CL   UNL     1      -1.692  16.935  26.156  0.00  0.00    +0.000 Cl
ATOM     12  N   UNL     1      -2.891  14.766  25.309  0.00  0.00    +0.000 NA
ATOM     13  C   UNL     1      -2.973  13.741  24.450  0.00  0.00    +0.000 A 
ATOM     14 CL   UNL     1      -4.284  12.669  24.703  0.00  0.00    +0.000 Cl
ATOM     15  N   UNL     1      -2.170  13.427  23.410  0.00  0.00    +0.000 NA
ATOM     16  C   UNL     1      -1.174  14.325  23.287  0.00  0.00    +0.000 A 
ENDBRANCH   3   6
BRANCH   1  17
ATOM     17  C   UNL     1       0.008   9.874  20.842  0.00  0.00    +0.000 C 
BRANCH  17  18
ATOM     18  O   UNL     1       0.768  10.078  19.644  0.00  0.00    +0.000 OA
BRANCH  18  23
ATOM     19  C   UNL     1       3.653   5.447  18.086  0.00  0.00    +0.000 C 
ATOM     20  C   UNL     1       2.954   6.707  18.503  0.00  0.00    +0.000 A 
ATOM     21  C   UNL     1       2.372   6.820  19.767  0.00  0.00    +0.000 A 
ATOM     22  C   UNL     1       1.669   7.979  20.118  0.00  0.00    +0.000 A 
ATOM     23  C   UNL     1       1.548   9.040  19.219  0.00  0.00    +0.000 A 
ATOM     24  C   UNL     1       2.141   8.940  17.962  0.00  0.00    +0.000 A 
ATOM     25  C   UNL     1       2.838   7.777  17.607  0.00  0.00    +0.000 A 
ENDBRANCH  18  23
ENDBRANCH  17  18
ENDBRANCH   1  17
BRANCH   5  26
ATOM     26  O   UNL     1      -2.602  11.554  19.609  0.00  0.00    +0.000 OA
BRANCH  26  27
ATOM     27  C   UNL     1      -2.907  11.202  18.327  0.00  0.00    +0.000 A 
ATOM     28  C   UNL     1      -2.017  10.318  17.714  0.00  0.00    +0.000 A 
ATOM     29  C   UNL     1      -2.212   9.917  16.389  0.00  0.00    +0.000 A 
ATOM     30  C   UNL     1      -3.309  10.395  15.664  0.00  0.00    +0.000 A 
ATOM     31  C   UNL     1      -3.520  10.023  14.227  0.00  0.00    +0.000 C 
ATOM     32  C   UNL     1      -4.233  11.224  16.305  0.00  0.00    +0.000 A 
ATOM     33  C   UNL     1      -4.041  11.615  17.633  0.00  0.00    +0.000 A 
ENDBRANCH  26  27
ENDBRANCH   5  26
TORSDOF 6
ENDMDL
MODEL 3
REMARK VINA RESULT:      -9.0      5.724      9.013
REMARK  Name = 
REMARK  8 active torsions:
REMARK  status: ('A' for Active; 'I' for Inactive)
REMARK    1  A    between atoms: C_1  and  C_2
REMARK    2  A    between atoms: C_5  and  O_6
REMARK    3  A    between atoms: O_6  and  C_7
REMARK    4  A    between atoms: C_7  and  C_8
REMARK    5  A    between atoms: C_10  and  N_11
REMARK    6  A    between atoms: C_23  and  O_24
REMARK    7  A    between atoms: O_24  and  C_25
REMARK    8  A    between atoms: C_28  and  C_29
REMARK                            x       y       z     vdW  Elec       q    Type
REMARK                         _______ _______ _______ _____ _____    ______ ____
ROOT
ATOM      1  C   UNL     1       0.647   9.436  19.051  0.00  0.00    +0.000 C 
ATOM      2  O   UNL     1       1.732   8.536  18.738  0.00  0.00    +0.000 OA
ATOM      3  C   UNL     1       2.177   7.900  19.944  0.00  0.00    +0.000 C 
ATOM      4  C   UNL     1       1.227   8.302  21.054  0.00  0.00    +0.000 C 
ATOM      5  C   UNL     1       0.669   9.623  20.567  0.00  0.00    +0.000 C 
ENDROOT
BRANCH   3   6
ATOM      6  N   UNL     1       2.240   6.470  19.728  0.00  0.00    +0.000 N 
ATOM      7  C   UNL     1       1.583   5.501  20.440  0.00  0.00    +0.000 A 
ATOM      8  N   UNL     1       1.845   4.294  19.983  0.00  0.00    +0.000 NA
ATOM      9  C   UNL     1       2.706   4.488  18.926  0.00  0.00    +0.000 A 
ATOM     10  C   UNL     1       3.340   3.657  18.015  0.00  0.00    +0.000 A 
ATOM     11 CL   UNL     1       3.067   1.987  18.097  0.00  0.00    +0.000 Cl
ATOM     12  N   UNL     1       4.157   4.130  17.058  0.00  0.00    +0.000 NA
ATOM     13  C   UNL     1       4.324   5.460  17.041  0.00  0.00    +0.000 A 
ATOM     14 CL   UNL     1       5.373   6.056  15.826  0.00  0.00    +0.000 Cl
ATOM     15  N   UNL     1       3.786   6.402  17.845  0.00  0.00    +0.000 NA
ATOM     16  C   UNL     1       2.976   5.842  18.763  0.00  0.00    +0.000 A 
ENDBRANCH   3   6
BRANCH   1  17
ATOM     17  C   UNL     1       0.841  10.750  18.276  0.00  0.00    +0.000 C 
BRANCH  17  18
ATOM     18  O   UNL     1       1.958  11.441  18.850  0.00  0.00    +0.000 OA
BRANCH  18  23
ATOM     19  C   UNL     1       0.531  16.620  20.675  0.00  0.00    +0.000 C 
ATOM     20  C   UNL     1       0.978  15.273  20.191  0.00  0.00    +0.000 A 
ATOM     21  C   UNL     1       0.704  14.850  18.888  0.00  0.00    +0.000 A 
ATOM     22  C   UNL     1       1.073  13.566  18.472  0.00  0.00    +0.000 A 
ATOM     23  C   UNL     1       1.727  12.694  19.344  0.00  0.00    +0.000 A 
ATOM     24  C   UNL     1       2.018  13.115  20.639  0.00  0.00    +0.000 A 
ATOM     25  C   UNL     1       1.642  14.398  21.060  0.00  0.00    +0.000 A 
ENDBRANCH  18  23
ENDBRANCH  17  18
ENDBRANCH   1  17
BRANCH   5  26
ATOM     26  O   UNL     1      -0.638   9.786  21.112  0.00  0.00    +0.000 OA
BRANCH  26  27
ATOM     27  C   UNL     1      -1.016  11.032  21.519  0.00  0.00    +0.000 A 
ATOM     28  C   UNL     1      -1.609  11.835  20.541  0.00  0.00    +0.000 A 
ATOM     29  C   UNL     1      -2.003  13.142  20.838  0.00  0.00    +0.000 A 
ATOM     30  C   UNL     1      -1.814  13.659  22.124  0.00  0.00    +0.000 A 
ATOM     31  C   UNL     1      -2.182  15.072  22.463  0.00  0.00    +0.000 C 
ATOM     32  C   UNL     1      -1.285  12.827  23.116  0.00  0.00    +0.000 A 
ATOM     33  C   UNL     1      -0.901  11.518  22.818  0.00  0.00    +0.000 A 
ENDBRANCH  26  27
ENDBRANCH   5  26
TORSDOF 6
ENDMDL
MODEL 4
REMARK VINA RESULT:      -9.0      0.213      1.200
REMARK  Name = 
REMARK  8 active torsions:
REMARK  status: ('A' for Active; 'I' for Inactive)
REMARK    1  A    between atoms: C_1  and  C_2
REMARK    2  A    between atoms: C_5  and  O_6
REMARK    3  A    between atoms: O_6  and  C_7
REMARK    4  A    between atoms: C_7  and  C_8
REMARK    5  A    between atoms: C_10  and  N_11
REMARK    6  A    between atoms: C_23  and  O_24
REMARK    7  A    between atoms: O_24  and  C_25
REMARK    8  A    between atoms: C_28  and  C_29
REMARK                            x       y       z     vdW  Elec       q    Type
REMARK                         _______ _______ _______ _____ _____    ______ ____
ROOT
ATOM      1  C   UNL     1       7.129   6.347  17.612  0.00  0.00    +0.000 C 
ATOM      2  O   UNL     1       5.841   6.446  18.258  0.00  0.00    +0.000 OA
ATOM      3  C   UNL     1       4.809   6.299  17.273  0.00  0.00    +0.000 C 
ATOM      4  C   UNL     1       5.473   5.937  15.961  0.00  0.00    +0.000 C 
ATOM      5  C   UNL     1       6.869   6.503  16.114  0.00  0.00    +0.000 C 
ENDROOT
BRANCH   3   6
ATOM      6  N   UNL     1       3.857   5.309  17.731  0.00  0.00    +0.000 N 
ATOM      7  C   UNL     1       3.709   4.031  17.261  0.00  0.00    +0.000 A 
ATOM      8  N   UNL     1       2.758   3.380  17.899  0.00  0.00    +0.000 NA
ATOM      9  C   UNL     1       2.271   4.273  18.827  0.00  0.00    +0.000 A 
ATOM     10  C   UNL     1       1.296   4.227  19.812  0.00  0.00    +0.000 A 
ATOM     11 CL   UNL     1       0.434   2.787  20.049  0.00  0.00    +0.000 Cl
ATOM     12  N   UNL     1       1.016   5.281  20.596  0.00  0.00    +0.000 NA
ATOM     13  C   UNL     1       1.738   6.386  20.365  0.00  0.00    +0.000 A 
ATOM     14 CL   UNL     1       1.370   7.730  21.361  0.00  0.00    +0.000 Cl
ATOM     15  N   UNL     1       2.715   6.597  19.457  0.00  0.00    +0.000 NA
ATOM     16  C   UNL     1       2.936   5.489  18.725  0.00  0.00    +0.000 A 
ENDBRANCH   3   6
BRANCH   1  17
ATOM     17  C   UNL     1       8.064   7.427  18.179  0.00  0.00    +0.000 C 
BRANCH  17  18
ATOM     18  O   UNL     1       7.833   8.639  17.450  0.00  0.00    +0.000 OA
BRANCH  18  23
ATOM     19  C   UNL     1      10.343  13.178  19.750  0.00  0.00    +0.000 C 
ATOM     20  C   UNL     1       9.616  12.002  19.170  0.00  0.00    +0.000 A 
ATOM     21  C   UNL     1       9.789  10.719  19.696  0.00  0.00    +0.000 A 
ATOM     22  C   UNL     1       9.153   9.623  19.104  0.00  0.00    +0.000 A 
ATOM     23  C   UNL     1       8.329   9.793  17.990  0.00  0.00    +0.000 A 
ATOM     24  C   UNL     1       8.139  11.071  17.470  0.00  0.00    +0.000 A 
ATOM     25  C   UNL     1       8.782  12.169  18.057  0.00  0.00    +0.000 A 
ENDBRANCH  18  23
ENDBRANCH  17  18
ENDBRANCH   1  17
BRANCH   5  26
ATOM     26  O   UNL     1       7.760   5.719  15.325  0.00  0.00    +0.000 OA
BRANCH  26  27
ATOM     27  C   UNL     1       7.237   4.975  14.308  0.00  0.00    +0.000 A 
ATOM     28  C   UNL     1       6.290   4.019  14.681  0.00  0.00    +0.000 A 
ATOM     29  C   UNL     1       5.715   3.177  13.725  0.00  0.00    +0.000 A 
ATOM     30  C   UNL     1       6.077   3.290  12.380  0.00  0.00    +0.000 A 
ATOM     31  C   UNL     1       5.515   2.371  11.336  0.00  0.00    +0.000 C 
ATOM     32  C   UNL     1       6.973   4.295  12.003  0.00  0.00    +0.000 A 
ATOM     33  C   UNL     1       7.539   5.141  12.959  0.00  0.00    +0.000 A 
ENDBRANCH  26  27
ENDBRANCH   5  26
TORSDOF 6
ENDMDL
MODEL 5
REMARK VINA RESULT:      -9.0      5.732      9.028
REMARK  Name = 
REMARK  8 active torsions:
REMARK  status: ('A' for Active; 'I' for Inactive)
REMARK    1  A    between atoms: C_1  and  C_2
REMARK    2  A    between atoms: C_5  and  O_6
REMARK    3  A    between atoms: O_6  and  C_7
REMARK    4  A    between atoms: C_7  and  C_8
REMARK    5  A    between atoms: C_10  and  N_11
REMARK    6  A    between atoms: C_23  and  O_24
REMARK    7  A    between atoms: O_24  and  C_25
REMARK    8  A    between atoms: C_28  and  C_29
REMARK                            x       y       z     vdW  Elec       q    Type
REMARK                         _______ _______ _______ _____ _____    ______ ____
ROOT
ATOM      1  C   UNL     1       0.790   9.423  19.080  0.00  0.00    +0.000 C 
ATOM      2  O   UNL     1       1.858   8.489  18.811  0.00  0.00    +0.000 OA
ATOM      3  C   UNL     1       2.204   7.810  20.027  0.00  0.00    +0.000 C 
ATOM      4  C   UNL     1       1.204   8.225  21.087  0.00  0.00    +0.000 C 
ATOM      5  C   UNL     1       0.727   9.576  20.599  0.00  0.00    +0.000 C 
ENDROOT
BRANCH   3   6
ATOM      6  N   UNL     1       2.228   6.384  19.782  0.00  0.00    +0.000 N 
ATOM      7  C   UNL     1       1.552   5.418  20.480  0.00  0.00    +0.000 A 
ATOM      8  N   UNL     1       1.778   4.214  19.996  0.00  0.00    +0.000 NA
ATOM      9  C   UNL     1       2.634   4.407  18.934  0.00  0.00    +0.000 A 
ATOM     10  C   UNL     1       3.238   3.579  18.000  0.00  0.00    +0.000 A 
ATOM     11 CL   UNL     1       2.922   1.915  18.051  0.00  0.00    +0.000 Cl
ATOM     12  N   UNL     1       4.057   4.050  17.045  0.00  0.00    +0.000 NA
ATOM     13  C   UNL     1       4.259   5.375  17.054  0.00  0.00    +0.000 A 
ATOM     14 CL   UNL     1       5.312   5.968  15.840  0.00  0.00    +0.000 Cl
ATOM     15  N   UNL     1       3.753   6.314  17.882  0.00  0.00    +0.000 NA
ATOM     16  C   UNL     1       2.938   5.756  18.797  0.00  0.00    +0.000 A 
ENDBRANCH   3   6
BRANCH   1  17
ATOM     17  C   UNL     1       1.079  10.744  18.350  0.00  0.00    +0.000 C 
BRANCH  17  18
ATOM     18  O   UNL     1       1.949  11.526  19.179  0.00  0.00    +0.000 OA
BRANCH  18  23
ATOM     19  C   UNL     1       0.797  16.913  20.536  0.00  0.00    +0.000 C 
ATOM     20  C   UNL     1       1.031  15.473  20.188  0.00  0.00    +0.000 A 
ATOM     21  C   UNL     1       1.731  14.629  21.054  0.00  0.00    +0.000 A 
ATOM     22  C   UNL     1       1.995  13.305  20.687  0.00  0.00    +0.000 A 
ATOM     23  C   UNL     1       1.556  12.804  19.460  0.00  0.00    +0.000 A 
ATOM     24  C   UNL     1       0.843  13.635  18.599  0.00  0.00    +0.000 A 
ATOM     25  C   UNL     1       0.585  14.964  18.962  0.00  0.00    +0.000 A 
ENDBRANCH  18  23
ENDBRANCH  17  18
ENDBRANCH   1  17
BRANCH   5  26
ATOM     26  O   UNL     1      -0.604   9.777  21.068  0.00  0.00    +0.000 OA
BRANCH  26  27
ATOM     27  C   UNL     1      -1.027  11.056  21.279  0.00  0.00    +0.000 A 
ATOM     28  C   UNL     1      -0.645  11.629  22.494  0.00  0.00    +0.000 A 
ATOM     29  C   UNL     1      -1.052  12.923  22.830  0.00  0.00    +0.000 A 
ATOM     30  C   UNL     1      -1.844  13.663  21.946  0.00  0.00    +0.000 A 
ATOM     31  C   UNL     1      -2.338  15.034  22.297  0.00  0.00    +0.000 C 
ATOM     32  C   UNL     1      -2.165  13.111  20.703  0.00  0.00    +0.000 A 
ATOM     33  C   UNL     1      -1.749  11.821  20.365  0.00  0.00    +0.000 A 
ENDBRANCH  26  27
ENDBRANCH   5  26
TORSDOF 6
ENDMDL
MODEL 6
REMARK VINA RESULT:      -9.0      6.132     10.683
REMARK  Name = 
REMARK  8 active torsions:
REMARK  status: ('A' for Active; 'I' for Inactive)
REMARK    1  A    between atoms: C_1  and  C_2
REMARK    2  A    between atoms: C_5  and  O_6
REMARK    3  A    between atoms: O_6  and  C_7
REMARK    4  A    between atoms: C_7  and  C_8
REMARK    5  A    between atoms: C_10  and  N_11
REMARK    6  A    between atoms: C_23  and  O_24
REMARK    7  A    between atoms: O_24  and  C_25
REMARK    8  A    between atoms: C_28  and  C_29
REMARK                            x       y       z     vdW  Elec       q    Type
REMARK                         _______ _______ _______ _____ _____    ______ ____
ROOT
ATOM      1  C   UNL     1      -0.318   9.871  20.105  0.00  0.00    +0.000 C 
ATOM      2  O   UNL     1       0.657   9.074  19.398  0.00  0.00    +0.000 OA
ATOM      3  C   UNL     1       1.677   8.659  20.317  0.00  0.00    +0.000 C 
ATOM      4  C   UNL     1       1.249   9.086  21.706  0.00  0.00    +0.000 C 
ATOM      5  C   UNL     1       0.326  10.256  21.436  0.00  0.00    +0.000 C 
ENDROOT
BRANCH   3   6
ATOM      6  N   UNL     1       1.876   7.231  20.188  0.00  0.00    +0.000 N 
ATOM      7  C   UNL     1       1.348   6.251  20.987  0.00  0.00    +0.000 A 
ATOM      8  N   UNL     1       1.713   5.048  20.595  0.00  0.00    +0.000 NA
ATOM      9  C   UNL     1       2.508   5.255  19.490  0.00  0.00    +0.000 A 
ATOM     10  C   UNL     1       3.188   4.432  18.605  0.00  0.00    +0.000 A 
ATOM     11 CL   UNL     1       3.088   2.752  18.803  0.00  0.00    +0.000 Cl
ATOM     12  N   UNL     1       3.915   4.918  17.585  0.00  0.00    +0.000 NA
ATOM     13  C   UNL     1       3.946   6.254  17.478  0.00  0.00    +0.000 A 
ATOM     14 CL   UNL     1       4.882   6.868  16.182  0.00  0.00    +0.000 Cl
ATOM     15  N   UNL     1       3.347   7.190  18.245  0.00  0.00    +0.000 NA
ATOM     16  C   UNL     1       2.634   6.615  19.232  0.00  0.00    +0.000 A 
ENDBRANCH   3   6
BRANCH   1  17
ATOM     17  C   UNL     1      -0.697  11.087  19.243  0.00  0.00    +0.000 C 
BRANCH  17  18
ATOM     18  O   UNL     1      -2.123  11.097  19.096  0.00  0.00    +0.000 OA
BRANCH  18  23
ATOM     19  C   UNL     1      -4.075   9.978  13.887  0.00  0.00    +0.000 C 
ATOM     20  C   UNL     1      -3.540  10.340  15.240  0.00  0.00    +0.000 A 
ATOM     21  C   UNL     1      -2.356   9.774  15.721  0.00  0.00    +0.000 A 
ATOM     22  C   UNL     1      -1.904  10.074  17.010  0.00  0.00    +0.000 A 
ATOM     23  C   UNL     1      -2.618  10.950  17.831  0.00  0.00    +0.000 A 
ATOM     24  C   UNL     1      -3.790  11.531  17.352  0.00  0.00    +0.000 A 
ATOM     25  C   UNL     1      -4.248  11.225  16.063  0.00  0.00    +0.000 A 
ENDBRANCH  18  23
ENDBRANCH  17  18
ENDBRANCH   1  17
BRANCH   5  26
ATOM     26  O   UNL     1      -0.624  10.331  22.496  0.00  0.00    +0.000 OA
BRANCH  26  27
ATOM     27  C   UNL     1      -1.195  11.540  22.766  0.00  0.00    +0.000 A 
ATOM     28  C   UNL     1      -0.422  12.660  22.448  0.00  0.00    +0.000 A 
ATOM     29  C   UNL     1      -0.894  13.948  22.715  0.00  0.00    +0.000 A 
ATOM     30  C   UNL     1      -2.153  14.130  23.297  0.00  0.00    +0.000 A 
ATOM     31  C   UNL     1      -2.668  15.495  23.640  0.00  0.00    +0.000 C 
ATOM     32  C   UNL     1      -2.949  13.009  23.548  0.00  0.00    +0.000 A 
ATOM     33  C   UNL     1      -2.479  11.723  23.272  0.00  0.00    +0.000 A 
ENDBRANCH  26  27
ENDBRANCH   5  26
TORSDOF 6
ENDMDL
MODEL 7
REMARK VINA RESULT:      -9.0      7.549     10.728
REMARK  Name = 
REMARK  8 active torsions:
REMARK  status: ('A' for Active; 'I' for Inactive)
REMARK    1  A    between atoms: C_1  and  C_2
REMARK    2  A    between atoms: C_5  and  O_6
REMARK    3  A    between atoms: O_6  and  C_7
REMARK    4  A    between atoms: C_7  and  C_8
REMARK    5  A    between atoms: C_10  and  N_11
REMARK    6  A    between atoms: C_23  and  O_24
REMARK    7  A    between atoms: O_24  and  C_25
REMARK    8  A    between atoms: C_28  and  C_29
REMARK                            x       y       z     vdW  Elec       q    Type
REMARK                         _______ _______ _______ _____ _____    ______ ____
ROOT
ATOM      1  C   UNL     1      -0.711  11.104  21.206  0.00  0.00    +0.000 C 
ATOM      2  O   UNL     1       0.177  12.008  21.898  0.00  0.00    +0.000 OA
ATOM      3  C   UNL     1       0.058  13.316  21.320  0.00  0.00    +0.000 C 
ATOM      4  C   UNL     1      -1.072  13.273  20.312  0.00  0.00    +0.000 C 
ATOM      5  C   UNL     1      -1.126  11.812  19.917  0.00  0.00    +0.000 C 
ENDROOT
BRANCH   3   6
ATOM      6  N   UNL     1      -0.147  14.283  22.377  0.00  0.00    +0.000 N 
ATOM      7  C   UNL     1       0.628  15.378  22.652  0.00  0.00    +0.000 A 
ATOM      8  N   UNL     1       0.162  16.064  23.676  0.00  0.00    +0.000 NA
ATOM      9  C   UNL     1      -0.967  15.387  24.080  0.00  0.00    +0.000 A 
ATOM     10  C   UNL     1      -1.921  15.576  25.069  0.00  0.00    +0.000 A 
ATOM     11 CL   UNL     1      -1.798  16.930  26.081  0.00  0.00    +0.000 Cl
ATOM     12  N   UNL     1      -2.948  14.729  25.248  0.00  0.00    +0.000 NA
ATOM     13  C   UNL     1      -2.993  13.684  24.409  0.00  0.00    +0.000 A 
ATOM     14 CL   UNL     1      -4.300  12.604  24.648  0.00  0.00    +0.000 Cl
ATOM     15  N   UNL     1      -2.156  13.356  23.402  0.00  0.00    +0.000 NA
ATOM     16  C   UNL     1      -1.166  14.262  23.289  0.00  0.00    +0.000 A 
ENDBRANCH   3   6
BRANCH   1  17
ATOM     17  C   UNL     1       0.016   9.773  20.958  0.00  0.00    +0.000 C 
BRANCH  17  18
ATOM     18  O   UNL     1       0.877   9.944  19.825  0.00  0.00    +0.000 OA
BRANCH  18  23
ATOM     19  C   UNL     1       3.950   5.662  17.722  0.00  0.00    +0.000 C 
ATOM     20  C   UNL     1       3.078   6.752  18.271  0.00  0.00    +0.000 A 
ATOM     21  C   UNL     1       2.797   7.895  17.519  0.00  0.00    +0.000 A 
ATOM     22  C   UNL     1       2.033   8.931  18.070  0.00  0.00    +0.000 A 
ATOM     23  C   UNL     1       1.533   8.835  19.370  0.00  0.00    +0.000 A 
ATOM     24  C   UNL     1       1.796   7.691  20.119  0.00  0.00    +0.000 A 
ATOM     25  C   UNL     1       2.567   6.656  19.572  0.00  0.00    +0.000 A 
ENDBRANCH  18  23
ENDBRANCH  17  18
ENDBRANCH   1  17
BRANCH   5  26
ATOM     26  O   UNL     1      -2.463  11.500  19.534  0.00  0.00    +0.000 OA
BRANCH  26  27
ATOM     27  C   UNL     1      -2.689  11.102  18.249  0.00  0.00    +0.000 A 
ATOM     28  C   UNL     1      -3.835  11.624  17.645  0.00  0.00    +0.000 A 
ATOM     29  C   UNL     1      -4.183  11.257  16.343  0.00  0.00    +0.000 A 
ATOM     30  C   UNL     1      -3.380  10.364  15.626  0.00  0.00    +0.000 A 
ATOM     31  C   UNL     1      -3.750   9.912  14.245  0.00  0.00    +0.000 C 
ATOM     32  C   UNL     1      -2.197   9.900  16.209  0.00  0.00    +0.000 A 
ATOM     33  C   UNL     1      -1.847  10.277  17.508  0.00  0.00    +0.000 A 
ENDBRANCH  26  27
ENDBRANCH   5  26
TORSDOF 6
ENDMDL
MODEL 8
REMARK VINA RESULT:      -8.9      6.488     10.017
REMARK  Name = 
REMARK  8 active torsions:
REMARK  status: ('A' for Active; 'I' for Inactive)
REMARK    1  A    between atoms: C_1  and  C_2
REMARK    2  A    between atoms: C_5  and  O_6
REMARK    3  A    between atoms: O_6  and  C_7
REMARK    4  A    between atoms: C_7  and  C_8
REMARK    5  A    between atoms: C_10  and  N_11
REMARK    6  A    between atoms: C_23  and  O_24
REMARK    7  A    between atoms: O_24  and  C_25
REMARK    8  A    between atoms: C_28  and  C_29
REMARK                            x       y       z     vdW  Elec       q    Type
REMARK                         _______ _______ _______ _____ _____    ______ ____
ROOT
ATOM      1  C   UNL     1       0.829  11.540  19.781  0.00  0.00    +0.000 C 
ATOM      2  O   UNL     1       1.619  10.385  20.135  0.00  0.00    +0.000 OA
ATOM      3  C   UNL     1       0.962   9.203  19.656  0.00  0.00    +0.000 C 
ATOM      4  C   UNL     1      -0.226   9.641  18.824  0.00  0.00    +0.000 C 
ATOM      5  C   UNL     1      -0.548  11.012  19.381  0.00  0.00    +0.000 C 
ENDROOT
BRANCH   3   6
ATOM      6  N   UNL     1       1.915   8.398  18.921  0.00  0.00    +0.000 N 
ATOM      7  C   UNL     1       2.594   8.757  17.787  0.00  0.00    +0.000 A 
ATOM      8  N   UNL     1       3.397   7.799  17.371  0.00  0.00    +0.000 NA
ATOM      9  C   UNL     1       3.236   6.775  18.278  0.00  0.00    +0.000 A 
ATOM     10  C   UNL     1       3.786   5.512  18.437  0.00  0.00    +0.000 A 
ATOM     11 CL   UNL     1       4.958   4.982  17.333  0.00  0.00    +0.000 Cl
ATOM     12  N   UNL     1       3.432   4.695  19.442  0.00  0.00    +0.000 NA
ATOM     13  C   UNL     1       2.507   5.177  20.285  0.00  0.00    +0.000 A 
ATOM     14 CL   UNL     1       2.053   4.127  21.560  0.00  0.00    +0.000 Cl
ATOM     15  N   UNL     1       1.878   6.372  20.276  0.00  0.00    +0.000 NA
ATOM     16  C   UNL     1       2.301   7.127  19.245  0.00  0.00    +0.000 A 
ENDBRANCH   3   6
BRANCH   1  17
ATOM     17  C   UNL     1       0.783  12.506  20.977  0.00  0.00    +0.000 C 
BRANCH  17  18
ATOM     18  O   UNL     1       0.158  11.825  22.072  0.00  0.00    +0.000 OA
BRANCH  18  23
ATOM     19  C   UNL     1      -4.773  14.222  23.533  0.00  0.00    +0.000 C 
ATOM     20  C   UNL     1      -3.452  13.586  23.218  0.00  0.00    +0.000 A 
ATOM     21  C   UNL     1      -2.428  14.318  22.611  0.00  0.00    +0.000 A 
ATOM     22  C   UNL     1      -1.224  13.694  22.267  0.00  0.00    +0.000 A 
ATOM     23  C   UNL     1      -1.022  12.339  22.532  0.00  0.00    +0.000 A 
ATOM     24  C   UNL     1      -2.032  11.606  23.151  0.00  0.00    +0.000 A 
ATOM     25  C   UNL     1      -3.241  12.228  23.490  0.00  0.00    +0.000 A 
ENDBRANCH  18  23
ENDBRANCH  17  18
ENDBRANCH   1  17
BRANCH   5  26
ATOM     26  O   UNL     1      -1.145  11.788  18.345  0.00  0.00    +0.000 OA
BRANCH  26  27
ATOM     27  C   UNL     1      -2.502  11.754  18.216  0.00  0.00    +0.000 A 
ATOM     28  C   UNL     1      -3.229  12.140  19.344  0.00  0.00    +0.000 A 
ATOM     29  C   UNL     1      -4.627  12.110  19.335  0.00  0.00    +0.000 A 
ATOM     30  C   UNL     1      -5.313  11.699  18.188  0.00  0.00    +0.000 A 
ATOM     31  C   UNL     1      -6.810  11.609  18.161  0.00  0.00    +0.000 C 
ATOM     32  C   UNL     1      -4.582  11.380  17.040  0.00  0.00    +0.000 A 
ATOM     33  C   UNL     1      -3.186  11.421  17.049  0.00  0.00    +0.000 A 
ENDBRANCH  26  27
ENDBRANCH   5  26
TORSDOF 6
ENDMDL
MODEL 9
REMARK VINA RESULT:      -8.9      5.588      8.853
REMARK  Name = 
REMARK  8 active torsions:
REMARK  status: ('A' for Active; 'I' for Inactive)
REMARK    1  A    between atoms: C_1  and  C_2
REMARK    2  A    between atoms: C_5  and  O_6
REMARK    3  A    between atoms: O_6  and  C_7
REMARK    4  A    between atoms: C_7  and  C_8
REMARK    5  A    between atoms: C_10  and  N_11
REMARK    6  A    between atoms: C_23  and  O_24
REMARK    7  A    between atoms: O_24  and  C_25
REMARK    8  A    between atoms: C_28  and  C_29
REMARK                            x       y       z     vdW  Elec       q    Type
REMARK                         _______ _______ _______ _____ _____    ______ ____
ROOT
ATOM      1  C   UNL     1       1.024   9.165  18.960  0.00  0.00    +0.000 C 
ATOM      2  O   UNL     1       2.111   8.226  18.815  0.00  0.00    +0.000 OA
ATOM      3  C   UNL     1       2.352   7.588  20.078  0.00  0.00    +0.000 C 
ATOM      4  C   UNL     1       1.264   8.033  21.033  0.00  0.00    +0.000 C 
ATOM      5  C   UNL     1       0.829   9.367  20.462  0.00  0.00    +0.000 C 
ENDROOT
BRANCH   3   6
ATOM      6  N   UNL     1       2.397   6.155  19.882  0.00  0.00    +0.000 N 
ATOM      7  C   UNL     1       1.356   5.274  20.008  0.00  0.00    +0.000 A 
ATOM      8  N   UNL     1       1.725   4.036  19.751  0.00  0.00    +0.000 NA
ATOM      9  C   UNL     1       3.064   4.118  19.438  0.00  0.00    +0.000 A 
ATOM     10  C   UNL     1       4.039   3.207  19.061  0.00  0.00    +0.000 A 
ATOM     11 CL   UNL     1       3.615   1.575  18.888  0.00  0.00    +0.000 Cl
ATOM     12  N   UNL     1       5.308   3.572  18.814  0.00  0.00    +0.000 NA
ATOM     13  C   UNL     1       5.576   4.878  18.959  0.00  0.00    +0.000 A 
ATOM     14 CL   UNL     1       7.197   5.336  18.653  0.00  0.00    +0.000 Cl
ATOM     15  N   UNL     1       4.753   5.888  19.315  0.00  0.00    +0.000 NA
ATOM     16  C   UNL     1       3.504   5.433  19.531  0.00  0.00    +0.000 A 
ENDBRANCH   3   6
BRANCH   1  17
ATOM     17  C   UNL     1       1.374  10.463  18.216  0.00  0.00    +0.000 C 
BRANCH  17  18
ATOM     18  O   UNL     1       2.163  11.277  19.093  0.00  0.00    +0.000 OA
BRANCH  18  23
ATOM     19  C   UNL     1       0.720  16.611  20.383  0.00  0.00    +0.000 C 
ATOM     20  C   UNL     1       1.031  15.183  20.047  0.00  0.00    +0.000 A 
ATOM     21  C   UNL     1       1.695  14.358  20.959  0.00  0.00    +0.000 A 
ATOM     22  C   UNL     1       2.033  13.047  20.607  0.00  0.00    +0.000 A 
ATOM     23  C   UNL     1       1.704  12.539  19.350  0.00  0.00    +0.000 A 
ATOM     24  C   UNL     1       1.027  13.350  18.441  0.00  0.00    +0.000 A 
ATOM     25  C   UNL     1       0.695  14.666  18.790  0.00  0.00    +0.000 A 
ENDBRANCH  18  23
ENDBRANCH  17  18
ENDBRANCH   1  17
BRANCH   5  26
ATOM     26  O   UNL     1      -0.538   9.578  20.808  0.00  0.00    +0.000 OA
BRANCH  26  27
ATOM     27  C   UNL     1      -0.911  10.819  21.232  0.00  0.00    +0.000 A 
ATOM     28  C   UNL     1      -1.598  11.599  20.299  0.00  0.00    +0.000 A 
ATOM     29  C   UNL     1      -1.997  12.900  20.615  0.00  0.00    +0.000 A 
ATOM     30  C   UNL     1      -1.718  13.434  21.877  0.00  0.00    +0.000 A 
ATOM     31  C   UNL     1      -2.089  14.843  22.232  0.00  0.00    +0.000 C 
ATOM     32  C   UNL     1      -1.091  12.626  22.830  0.00  0.00    +0.000 A 
ATOM     33  C   UNL     1      -0.702  11.322  22.514  0.00  0.00    +0.000 A 
ENDBRANCH  26  27
ENDBRANCH   5  26
TORSDOF 6
ENDMDL
