MODEL 1
REMARK VINA RESULT:      -7.6      0.000      0.000
REMARK  Name = 
REMARK  6 active torsions:
REMARK  status: ('A' for Active; 'I' for Inactive)
REMARK    1  A    between atoms: C_1  and  O_2
REMARK    2  A    between atoms: O_2  and  C_3
REMARK    3  A    between atoms: C_8  and  C_9
REMARK    4  A    between atoms: N_16  and  C_17
REMARK    5  A    between atoms: C_17  and  C_18
REMARK    6  A    between atoms: C_18  and  N_19
REMARK                            x       y       z     vdW  Elec       q    Type
REMARK                         _______ _______ _______ _____ _____    ______ ____
ROOT
ATOM      1  C   UNL     1       1.567   8.102  20.235  0.00  0.00    +0.000 A 
ATOM      2  C   UNL     1       1.479   8.702  18.984  0.00  0.00    +0.000 A 
ATOM      3  C   UNL     1       2.262   8.222  17.932  0.00  0.00    +0.000 A 
ATOM      4  C   UNL     1       3.120   7.142  18.098  0.00  0.00    +0.000 A 
ATOM      5  N   UNL     1       3.872   6.731  17.065  0.00  0.00    +0.000 NA
ATOM      6  C   UNL     1       4.679   5.648  17.260  0.00  0.00    +0.000 A 
ATOM      7  C   UNL     1       4.702   4.981  18.507  0.00  0.00    +0.000 A 
ATOM      8  N   UNL     1       5.525   3.876  18.714  0.00  0.00    +0.000 N 
ATOM      9  N   UNL     1       3.951   5.415  19.547  0.00  0.00    +0.000 NA
ATOM     10  C   UNL     1       3.176   6.498  19.352  0.00  0.00    +0.000 A 
ATOM     11  C   UNL     1       2.413   7.002  20.399  0.00  0.00    +0.000 A 
ATOM     12  H   UNL     1       6.512   4.127  18.746  0.00  0.00    +0.000 HD
ENDROOT
BRANCH   6  13
ATOM     13  C   UNL     1       5.467   5.239  16.066  0.00  0.00    +0.000 A 
ATOM     14  C   UNL     1       6.823   5.596  15.939  0.00  0.00    +0.000 A 
ATOM     15  C   UNL     1       7.593   5.181  14.847  0.00  0.00    +0.000 A 
ATOM     16  C   UNL     1       7.027   4.391  13.851  0.00  0.00    +0.000 A 
ATOM     17  C   UNL     1       5.685   4.047  13.929  0.00  0.00    +0.000 A 
ATOM     18  C   UNL     1       4.915   4.487  15.010  0.00  0.00    +0.000 A 
ENDBRANCH   6  13
BRANCH   1  20
ATOM     19  C   UNL     1       0.764   9.885  21.588  0.00  0.00    +0.000 C 
ATOM     20  O   UNL     1       0.888   8.486  21.358  0.00  0.00    +0.000 OA
ENDBRANCH   1  20
BRANCH   8  21
ATOM     21  C   UNL     1       5.145   2.916  19.736  0.00  0.00    +0.000 C 
BRANCH  21  22
ATOM     22  C   UNL     1       4.211   1.860  19.100  0.00  0.00    +0.000 C 
BRANCH  22  23
ATOM     23  N   UNL     1       2.790   1.985  19.508  0.00  0.00    +0.000 NA
ATOM     24  C   UNL     1       2.657   2.751  20.757  0.00  0.00    +0.000 C 
ATOM     25  C   UNL     1       1.201   2.823  21.206  0.00  0.00    +0.000 C 
ATOM     26  C   UNL     1       0.316   3.425  20.123  0.00  0.00    +0.000 C 
ATOM     27  C   UNL     1       0.522   2.697  18.800  0.00  0.00    +0.000 C 
ATOM     28  C   UNL     1       2.005   2.614  18.430  0.00  0.00    +0.000 C 
ENDBRANCH  22  23
ENDBRANCH  21  22
ENDBRANCH   8  21
TORSDOF 5
ENDMDL
MODEL 2
REMARK VINA RESULT:      -7.4      0.437      1.019
REMARK  Name = 
REMARK  6 active torsions:
REMARK  status: ('A' for Active; 'I' for Inactive)
REMARK    1  A    between atoms: C_1  and  O_2
REMARK    2  A    between atoms: O_2  and  C_3
REMARK    3  A    between atoms: C_8  and  C_9
REMARK    4  A    between atoms: N_16  and  C_17
REMARK    5  A    between atoms: C_17  and  C_18
REMARK    6  A    between atoms: C_18  and  N_19
REMARK                            x       y       z     vdW  Elec       q    Type
REMARK                         _______ _______ _______ _____ _____    ______ ____
ROOT
ATOM      1  C   UNL     1       1.624   8.321  20.020  0.00  0.00    +0.000 A 
ATOM      2  C   UNL     1       1.548   8.857  18.739  0.00  0.00    +0.000 A 
ATOM      3  C   UNL     1       2.328   8.316  17.717  0.00  0.00    +0.000 A 
ATOM      4  C   UNL     1       3.174   7.236  17.940  0.00  0.00    +0.000 A 
ATOM      5  N   UNL     1       3.925   6.765  16.932  0.00  0.00    +0.000 NA
ATOM      6  C   UNL     1       4.719   5.685  17.185  0.00  0.00    +0.000 A 
ATOM      7  C   UNL     1       4.730   5.081  18.465  0.00  0.00    +0.000 A 
ATOM      8  N   UNL     1       5.540   3.979  18.730  0.00  0.00    +0.000 N 
ATOM      9  N   UNL     1       3.981   5.576  19.478  0.00  0.00    +0.000 NA
ATOM     10  C   UNL     1       3.218   6.656  19.226  0.00  0.00    +0.000 A 
ATOM     11  C   UNL     1       2.458   7.221  20.243  0.00  0.00    +0.000 A 
ATOM     12  H   UNL     1       6.530   4.221  18.754  0.00  0.00    +0.000 HD
ENDROOT
BRANCH   6  13
ATOM     13  C   UNL     1       5.506   5.206  16.017  0.00  0.00    +0.000 A 
ATOM     14  C   UNL     1       4.936   4.333  15.071  0.00  0.00    +0.000 A 
ATOM     15  C   UNL     1       5.646   3.909  13.942  0.00  0.00    +0.000 A 
ATOM     16  C   UNL     1       6.947   4.352  13.724  0.00  0.00    +0.000 A 
ATOM     17  C   UNL     1       7.550   5.188  14.654  0.00  0.00    +0.000 A 
ATOM     18  C   UNL     1       6.844   5.587  15.792  0.00  0.00    +0.000 A 
ENDBRANCH   6  13
BRANCH   1  20
ATOM     19  C   UNL     1      -0.249   8.078  21.463  0.00  0.00    +0.000 C 
ATOM     20  O   UNL     1       0.947   8.768  21.119  0.00  0.00    +0.000 OA
ENDBRANCH   1  20
BRANCH   8  21
ATOM     21  C   UNL     1       5.146   3.077  19.799  0.00  0.00    +0.000 C 
BRANCH  21  22
ATOM     22  C   UNL     1       4.268   1.954  19.198  0.00  0.00    +0.000 C 
BRANCH  22  23
ATOM     23  N   UNL     1       2.832   2.051  19.560  0.00  0.00    +0.000 NA
ATOM     24  C   UNL     1       2.639   2.860  20.774  0.00  0.00    +0.000 C 
ATOM     25  C   UNL     1       1.168   2.904  21.177  0.00  0.00    +0.000 C 
ATOM     26  C   UNL     1       0.299   3.436  20.046  0.00  0.00    +0.000 C 
ATOM     27  C   UNL     1       0.566   2.664  18.760  0.00  0.00    +0.000 C 
ATOM     28  C   UNL     1       2.061   2.613  18.436  0.00  0.00    +0.000 C 
ENDBRANCH  22  23
ENDBRANCH  21  22
ENDBRANCH   8  21
TORSDOF 5
ENDMDL
MODEL 3
REMARK VINA RESULT:      -7.4      1.707      2.937
REMARK  Name = 
REMARK  6 active torsions:
REMARK  status: ('A' for Active; 'I' for Inactive)
REMARK    1  A    between atoms: C_1  and  O_2
REMARK    2  A    between atoms: O_2  and  C_3
REMARK    3  A    between atoms: C_8  and  C_9
REMARK    4  A    between atoms: N_16  and  C_17
REMARK    5  A    between atoms: C_17  and  C_18
REMARK    6  A    between atoms: C_18  and  N_19
REMARK                            x       y       z     vdW  Elec       q    Type
REMARK                         _______ _______ _______ _____ _____    ______ ____
ROOT
ATOM      1  C   UNL     1      -0.212  10.800  20.114  0.00  0.00    +0.000 A 
ATOM      2  C   UNL     1       0.186  11.158  18.831  0.00  0.00    +0.000 A 
ATOM      3  C   UNL     1       1.083  10.347  18.134  0.00  0.00    +0.000 A 
ATOM      4  C   UNL     1       1.579   9.171  18.685  0.00  0.00    +0.000 A 
ATOM      5  N   UNL     1       2.459   8.435  17.988  0.00  0.00    +0.000 NA
ATOM      6  C   UNL     1       2.898   7.272  18.551  0.00  0.00    +0.000 A 
ATOM      7  C   UNL     1       2.424   6.860  19.819  0.00  0.00    +0.000 A 
ATOM      8  N   UNL     1       2.870   5.675  20.400  0.00  0.00    +0.000 N 
ATOM      9  N   UNL     1       1.550   7.620  20.519  0.00  0.00    +0.000 NA
ATOM     10  C   UNL     1       1.140   8.776  19.966  0.00  0.00    +0.000 A 
ATOM     11  C   UNL     1       0.269   9.607  20.662  0.00  0.00    +0.000 A 
ATOM     12  H   UNL     1       3.843   5.731  20.700  0.00  0.00    +0.000 HD
ENDROOT
BRANCH   6  13
ATOM     13  C   UNL     1       3.855   6.499  17.712  0.00  0.00    +0.000 A 
ATOM     14  C   UNL     1       5.061   7.079  17.275  0.00  0.00    +0.000 A 
ATOM     15  C   UNL     1       5.995   6.353  16.526  0.00  0.00    +0.000 A 
ATOM     16  C   UNL     1       5.748   5.024  16.196  0.00  0.00    +0.000 A 
ATOM     17  C   UNL     1       4.553   4.433  16.584  0.00  0.00    +0.000 A 
ATOM     18  C   UNL     1       3.615   5.170  17.310  0.00  0.00    +0.000 A 
ENDBRANCH   6  13
BRANCH   1  20
ATOM     19  C   UNL     1      -0.589  11.807  22.234  0.00  0.00    +0.000 C 
ATOM     20  O   UNL     1      -1.053  11.513  20.921  0.00  0.00    +0.000 OA
ENDBRANCH   1  20
BRANCH   8  21
ATOM     21  C   UNL     1       2.010   5.018  21.369  0.00  0.00    +0.000 C 
BRANCH  21  22
ATOM     22  C   UNL     1       2.561   3.597  21.634  0.00  0.00    +0.000 C 
BRANCH  22  23
ATOM     23  N   UNL     1       2.373   2.655  20.503  0.00  0.00    +0.000 NA
ATOM     24  C   UNL     1       1.296   3.104  19.605  0.00  0.00    +0.000 C 
ATOM     25  C   UNL     1       1.064   2.101  18.480  0.00  0.00    +0.000 C 
ATOM     26  C   UNL     1       2.340   1.851  17.689  0.00  0.00    +0.000 C 
ATOM     27  C   UNL     1       3.485   1.480  18.624  0.00  0.00    +0.000 C 
ATOM     28  C   UNL     1       3.634   2.496  19.758  0.00  0.00    +0.000 C 
ENDBRANCH  22  23
ENDBRANCH  21  22
ENDBRANCH   8  21
TORSDOF 5
ENDMDL
MODEL 4
REMARK VINA RESULT:      -7.4      1.592      2.796
REMARK  Name = 
REMARK  6 active torsions:
REMARK  status: ('A' for Active; 'I' for Inactive)
REMARK    1  A    between atoms: C_1  and  O_2
REMARK    2  A    between atoms: O_2  and  C_3
REMARK    3  A    between atoms: C_8  and  C_9
REMARK    4  A    between atoms: N_16  and  C_17
REMARK    5  A    between atoms: C_17  and  C_18
REMARK    6  A    between atoms: C_18  and  N_19
REMARK                            x       y       z     vdW  Elec       q    Type
REMARK                         _______ _______ _______ _____ _____    ______ ____
ROOT
ATOM      1  C   UNL     1       0.195  10.289  19.694  0.00  0.00    +0.000 A 
ATOM      2  C   UNL     1       0.739  10.553  18.442  0.00  0.00    +0.000 A 
ATOM      3  C   UNL     1       1.689   9.682  17.905  0.00  0.00    +0.000 A 
ATOM      4  C   UNL     1       2.095   8.540  18.584  0.00  0.00    +0.000 A 
ATOM      5  N   UNL     1       3.030   7.745  18.039  0.00  0.00    +0.000 NA
ATOM      6  C   UNL     1       3.379   6.618  18.724  0.00  0.00    +0.000 A 
ATOM      7  C   UNL     1       2.761   6.301  19.957  0.00  0.00    +0.000 A 
ATOM      8  N   UNL     1       3.114   5.153  20.661  0.00  0.00    +0.000 N 
ATOM      9  N   UNL     1       1.831   7.120  20.503  0.00  0.00    +0.000 NA
ATOM     10  C   UNL     1       1.510   8.241  19.832  0.00  0.00    +0.000 A 
ATOM     11  C   UNL     1       0.586   9.131  20.370  0.00  0.00    +0.000 A 
ATOM     12  H   UNL     1       4.049   5.215  21.063  0.00  0.00    +0.000 HD
ENDROOT
BRANCH   6  13
ATOM     13  C   UNL     1       4.405   5.776  18.051  0.00  0.00    +0.000 A 
ATOM     14  C   UNL     1       4.150   5.197  16.793  0.00  0.00    +0.000 A 
ATOM     15  C   UNL     1       5.119   4.440  16.123  0.00  0.00    +0.000 A 
ATOM     16  C   UNL     1       6.374   4.246  16.693  0.00  0.00    +0.000 A 
ATOM     17  C   UNL     1       6.646   4.776  17.947  0.00  0.00    +0.000 A 
ATOM     18  C   UNL     1       5.666   5.509  18.621  0.00  0.00    +0.000 A 
ENDBRANCH   6  13
BRANCH   1  20
ATOM     19  C   UNL     1      -0.601  11.128  21.771  0.00  0.00    +0.000 C 
ATOM     20  O   UNL     1      -0.714  11.068  20.354  0.00  0.00    +0.000 OA
ENDBRANCH   1  20
BRANCH   8  21
ATOM     21  C   UNL     1       2.139   4.576  21.571  0.00  0.00    +0.000 C 
BRANCH  21  22
ATOM     22  C   UNL     1       2.402   3.055  21.678  0.00  0.00    +0.000 C 
BRANCH  22  23
ATOM     23  N   UNL     1       2.330   2.338  20.381  0.00  0.00    +0.000 NA
ATOM     24  C   UNL     1       1.284   2.903  19.513  0.00  0.00    +0.000 C 
ATOM     25  C   UNL     1       1.172   2.122  18.208  0.00  0.00    +0.000 C 
ATOM     26  C   UNL     1       2.503   2.080  17.470  0.00  0.00    +0.000 C 
ATOM     27  C   UNL     1       3.610   1.587  18.394  0.00  0.00    +0.000 C 
ATOM     28  C   UNL     1       3.639   2.376  19.705  0.00  0.00    +0.000 C 
ENDBRANCH  22  23
ENDBRANCH  21  22
ENDBRANCH   8  21
TORSDOF 5
ENDMDL
MODEL 5
REMARK VINA RESULT:      -7.4      2.541      6.964
REMARK  Name = 
REMARK  6 active torsions:
REMARK  status: ('A' for Active; 'I' for Inactive)
REMARK    1  A    between atoms: C_1  and  O_2
REMARK    2  A    between atoms: O_2  and  C_3
REMARK    3  A    between atoms: C_8  and  C_9
REMARK    4  A    between atoms: N_16  and  C_17
REMARK    5  A    between atoms: C_17  and  C_18
REMARK    6  A    between atoms: C_18  and  N_19
REMARK                            x       y       z     vdW  Elec       q    Type
REMARK                         _______ _______ _______ _____ _____    ______ ____
ROOT
ATOM      1  C   UNL     1       6.658   5.094  14.348  0.00  0.00    +0.000 A 
ATOM      2  C   UNL     1       6.461   3.728  14.510  0.00  0.00    +0.000 A 
ATOM      3  C   UNL     1       5.631   3.266  15.533  0.00  0.00    +0.000 A 
ATOM      4  C   UNL     1       4.975   4.143  16.388  0.00  0.00    +0.000 A 
ATOM      5  N   UNL     1       4.206   3.653  17.374  0.00  0.00    +0.000 NA
ATOM      6  C   UNL     1       3.556   4.547  18.173  0.00  0.00    +0.000 A 
ATOM      7  C   UNL     1       3.683   5.939  17.953  0.00  0.00    +0.000 A 
ATOM      8  N   UNL     1       3.023   6.857  18.766  0.00  0.00    +0.000 N 
ATOM      9  N   UNL     1       4.476   6.421  16.966  0.00  0.00    +0.000 NA
ATOM     10  C   UNL     1       5.131   5.532  16.197  0.00  0.00    +0.000 A 
ATOM     11  C   UNL     1       5.984   5.979  15.193  0.00  0.00    +0.000 A 
ATOM     12  H   UNL     1       3.415   6.896  19.707  0.00  0.00    +0.000 HD
ENDROOT
BRANCH   6  13
ATOM     13  C   UNL     1       2.707   3.932  19.229  0.00  0.00    +0.000 A 
ATOM     14  C   UNL     1       3.263   3.529  20.458  0.00  0.00    +0.000 A 
ATOM     15  C   UNL     1       2.473   2.991  21.481  0.00  0.00    +0.000 A 
ATOM     16  C   UNL     1       1.100   2.847  21.303  0.00  0.00    +0.000 A 
ATOM     17  C   UNL     1       0.525   3.204  20.092  0.00  0.00    +0.000 A 
ATOM     18  C   UNL     1       1.324   3.716  19.066  0.00  0.00    +0.000 A 
ENDBRANCH   6  13
BRANCH   1  20
ATOM     19  C   UNL     1       7.622   5.002  12.176  0.00  0.00    +0.000 C 
ATOM     20  O   UNL     1       7.466   5.684  13.416  0.00  0.00    +0.000 OA
ENDBRANCH   1  20
BRANCH   8  21
ATOM     21  C   UNL     1       2.720   8.168  18.219  0.00  0.00    +0.000 C 
BRANCH  21  22
ATOM     22  C   UNL     1       1.267   8.538  18.598  0.00  0.00    +0.000 C 
BRANCH  22  23
ATOM     23  N   UNL     1       1.149   9.314  19.857  0.00  0.00    +0.000 NA
ATOM     24  C   UNL     1      -0.011  10.218  19.823  0.00  0.00    +0.000 C 
ATOM     25  C   UNL     1      -0.091  11.059  21.093  0.00  0.00    +0.000 C 
ATOM     26  C   UNL     1      -0.144  10.181  22.336  0.00  0.00    +0.000 C 
ATOM     27  C   UNL     1       1.001   9.176  22.329  0.00  0.00    +0.000 C 
ATOM     28  C   UNL     1       1.059   8.401  21.010  0.00  0.00    +0.000 C 
ENDBRANCH  22  23
ENDBRANCH  21  22
ENDBRANCH   8  21
TORSDOF 5
ENDMDL
MODEL 6
REMARK VINA RESULT:      -7.3      2.661      7.271
REMARK  Name = 
REMARK  6 active torsions:
REMARK  status: ('A' for Active; 'I' for Inactive)
REMARK    1  A    between atoms: C_1  and  O_2
REMARK    2  A    between atoms: O_2  and  C_3
REMARK    3  A    between atoms: C_8  and  C_9
REMARK    4  A    between atoms: N_16  and  C_17
REMARK    5  A    between atoms: C_17  and  C_18
REMARK    6  A    between atoms: C_18  and  N_19
REMARK                            x       y       z     vdW  Elec       q    Type
REMARK                         _______ _______ _______ _____ _____    ______ ____
ROOT
ATOM      1  C   UNL     1       6.853   5.114  14.434  0.00  0.00    +0.000 A 
ATOM      2  C   UNL     1       6.661   3.758  14.675  0.00  0.00    +0.000 A 
ATOM      3  C   UNL     1       5.774   3.353  15.674  0.00  0.00    +0.000 A 
ATOM      4  C   UNL     1       5.057   4.275  16.427  0.00  0.00    +0.000 A 
ATOM      5  N   UNL     1       4.234   3.840  17.394  0.00  0.00    +0.000 NA
ATOM      6  C   UNL     1       3.526   4.775  18.091  0.00  0.00    +0.000 A 
ATOM      7  C   UNL     1       3.652   6.151  17.786  0.00  0.00    +0.000 A 
ATOM      8  N   UNL     1       2.933   7.111  18.495  0.00  0.00    +0.000 N 
ATOM      9  N   UNL     1       4.498   6.578  16.820  0.00  0.00    +0.000 NA
ATOM     10  C   UNL     1       5.210   5.651  16.153  0.00  0.00    +0.000 A 
ATOM     11  C   UNL     1       6.118   6.043  15.176  0.00  0.00    +0.000 A 
ATOM     12  H   UNL     1       3.265   7.218  19.453  0.00  0.00    +0.000 HD
ENDROOT
BRANCH   6  13
ATOM     13  C   UNL     1       2.619   4.219  19.132  0.00  0.00    +0.000 A 
ATOM     14  C   UNL     1       1.415   3.582  18.775  0.00  0.00    +0.000 A 
ATOM     15  C   UNL     1       0.573   3.011  19.736  0.00  0.00    +0.000 A 
ATOM     16  C   UNL     1       0.916   3.059  21.085  0.00  0.00    +0.000 A 
ATOM     17  C   UNL     1       2.079   3.708  21.473  0.00  0.00    +0.000 A 
ATOM     18  C   UNL     1       2.903   4.297  20.510  0.00  0.00    +0.000 A 
ENDBRANCH   6  13
BRANCH   1  20
ATOM     19  C   UNL     1       7.679   5.101  12.204  0.00  0.00    +0.000 C 
ATOM     20  O   UNL     1       7.711   5.652  13.516  0.00  0.00    +0.000 OA
ENDBRANCH   1  20
BRANCH   8  21
ATOM     21  C   UNL     1       2.650   8.379  17.844  0.00  0.00    +0.000 C 
BRANCH  21  22
ATOM     22  C   UNL     1       1.241   8.851  18.273  0.00  0.00    +0.000 C 
BRANCH  22  23
ATOM     23  N   UNL     1       1.245   9.808  19.407  0.00  0.00    +0.000 NA
ATOM     24  C   UNL     1       1.279  11.201  18.934  0.00  0.00    +0.000 C 
ATOM     25  C   UNL     1       1.347  12.178  20.103  0.00  0.00    +0.000 C 
ATOM     26  C   UNL     1       0.181  11.976  21.062  0.00  0.00    +0.000 C 
ATOM     27  C   UNL     1       0.081  10.515  21.480  0.00  0.00    +0.000 C 
ATOM     28  C   UNL     1       0.068   9.583  20.266  0.00  0.00    +0.000 C 
ENDBRANCH  22  23
ENDBRANCH  21  22
ENDBRANCH   8  21
TORSDOF 5
ENDMDL
MODEL 7
REMARK VINA RESULT:      -7.3      2.921      7.418
REMARK  Name = 
REMARK  6 active torsions:
REMARK  status: ('A' for Active; 'I' for Inactive)
REMARK    1  A    between atoms: C_1  and  O_2
REMARK    2  A    between atoms: O_2  and  C_3
REMARK    3  A    between atoms: C_8  and  C_9
REMARK    4  A    between atoms: N_16  and  C_17
REMARK    5  A    between atoms: C_17  and  C_18
REMARK    6  A    between atoms: C_18  and  N_19
REMARK                            x       y       z     vdW  Elec       q    Type
REMARK                         _______ _______ _______ _____ _____    ______ ____
ROOT
ATOM      1  C   UNL     1       6.626   5.110  14.498  0.00  0.00    +0.000 A 
ATOM      2  C   UNL     1       6.524   3.754  14.784  0.00  0.00    +0.000 A 
ATOM      3  C   UNL     1       5.693   3.327  15.820  0.00  0.00    +0.000 A 
ATOM      4  C   UNL     1       4.943   4.226  16.569  0.00  0.00    +0.000 A 
ATOM      5  N   UNL     1       4.176   3.772  17.573  0.00  0.00    +0.000 NA
ATOM      6  C   UNL     1       3.433   4.684  18.264  0.00  0.00    +0.000 A 
ATOM      7  C   UNL     1       3.466   6.055  17.916  0.00  0.00    +0.000 A 
ATOM      8  N   UNL     1       2.710   6.991  18.618  0.00  0.00    +0.000 N 
ATOM      9  N   UNL     1       4.256   6.502  16.912  0.00  0.00    +0.000 NA
ATOM     10  C   UNL     1       5.004   5.599  16.251  0.00  0.00    +0.000 A 
ATOM     11  C   UNL     1       5.857   6.015  15.235  0.00  0.00    +0.000 A 
ATOM     12  H   UNL     1       3.063   7.147  19.562  0.00  0.00    +0.000 HD
ENDROOT
BRANCH   6  13
ATOM     13  C   UNL     1       2.592   4.106  19.348  0.00  0.00    +0.000 A 
ATOM     14  C   UNL     1       1.352   3.507  19.057  0.00  0.00    +0.000 A 
ATOM     15  C   UNL     1       0.569   2.917  20.057  0.00  0.00    +0.000 A 
ATOM     16  C   UNL     1       1.010   2.907  21.377  0.00  0.00    +0.000 A 
ATOM     17  C   UNL     1       2.214   3.517  21.702  0.00  0.00    +0.000 A 
ATOM     18  C   UNL     1       2.978   4.126  20.703  0.00  0.00    +0.000 A 
ENDBRANCH   6  13
BRANCH   1  20
ATOM     19  C   UNL     1       7.588   4.938  12.331  0.00  0.00    +0.000 C 
ATOM     20  O   UNL     1       7.422   5.671  13.539  0.00  0.00    +0.000 OA
ENDBRANCH   1  20
BRANCH   8  21
ATOM     21  C   UNL     1       2.332   8.219  17.940  0.00  0.00    +0.000 C 
BRANCH  21  22
ATOM     22  C   UNL     1       1.789   9.216  18.990  0.00  0.00    +0.000 C 
BRANCH  22  23
ATOM     23  N   UNL     1       0.885  10.251  18.430  0.00  0.00    +0.000 NA
ATOM     24  C   UNL     1      -0.523   9.831  18.508  0.00  0.00    +0.000 C 
ATOM     25  C   UNL     1      -1.443  10.869  17.874  0.00  0.00    +0.000 C 
ATOM     26  C   UNL     1      -1.265  12.236  18.520  0.00  0.00    +0.000 C 
ATOM     27  C   UNL     1       0.206  12.634  18.529  0.00  0.00    +0.000 C 
ATOM     28  C   UNL     1       1.082  11.532  19.131  0.00  0.00    +0.000 C 
ENDBRANCH  22  23
ENDBRANCH  21  22
ENDBRANCH   8  21
TORSDOF 5
ENDMDL
MODEL 8
REMARK VINA RESULT:      -7.2      2.575      7.023
REMARK  Name = 
REMARK  6 active torsions:
REMARK  status: ('A' for Active; 'I' for Inactive)
REMARK    1  A    between atoms: C_1  and  O_2
REMARK    2  A    between atoms: O_2  and  C_3
REMARK    3  A    between atoms: C_8  and  C_9
REMARK    4  A    between atoms: N_16  and  C_17
REMARK    5  A    between atoms: C_17  and  C_18
REMARK    6  A    between atoms: C_18  and  N_19
REMARK                            x       y       z     vdW  Elec       q    Type
REMARK                         _______ _______ _______ _____ _____    ______ ____
ROOT
ATOM      1  C   UNL     1       6.719   5.198  14.546  0.00  0.00    +0.000 A 
ATOM      2  C   UNL     1       6.680   3.846  14.867  0.00  0.00    +0.000 A 
ATOM      3  C   UNL     1       5.843   3.403  15.892  0.00  0.00    +0.000 A 
ATOM      4  C   UNL     1       5.027   4.282  16.595  0.00  0.00    +0.000 A 
ATOM      5  N   UNL     1       4.257   3.815  17.591  0.00  0.00    +0.000 NA
ATOM      6  C   UNL     1       3.448   4.704  18.236  0.00  0.00    +0.000 A 
ATOM      7  C   UNL     1       3.420   6.065  17.851  0.00  0.00    +0.000 A 
ATOM      8  N   UNL     1       2.598   6.979  18.507  0.00  0.00    +0.000 N 
ATOM      9  N   UNL     1       4.214   6.527  16.856  0.00  0.00    +0.000 NA
ATOM     10  C   UNL     1       5.025   5.647  16.241  0.00  0.00    +0.000 A 
ATOM     11  C   UNL     1       5.885   6.080  15.237  0.00  0.00    +0.000 A 
ATOM     12  H   UNL     1       2.916   7.178  19.455  0.00  0.00    +0.000 HD
ENDROOT
BRANCH   6  13
ATOM     13  C   UNL     1       2.609   4.112  19.313  0.00  0.00    +0.000 A 
ATOM     14  C   UNL     1       1.426   3.413  19.004  0.00  0.00    +0.000 A 
ATOM     15  C   UNL     1       0.649   2.810  19.999  0.00  0.00    +0.000 A 
ATOM     16  C   UNL     1       1.037   2.885  21.333  0.00  0.00    +0.000 A 
ATOM     17  C   UNL     1       2.180   3.594  21.675  0.00  0.00    +0.000 A 
ATOM     18  C   UNL     1       2.938   4.215  20.679  0.00  0.00    +0.000 A 
ENDBRANCH   6  13
BRANCH   1  20
ATOM     19  C   UNL     1       7.702   5.044  12.387  0.00  0.00    +0.000 C 
ATOM     20  O   UNL     1       7.512   5.774  13.593  0.00  0.00    +0.000 OA
ENDBRANCH   1  20
BRANCH   8  21
ATOM     21  C   UNL     1       2.176   8.167  17.784  0.00  0.00    +0.000 C 
BRANCH  21  22
ATOM     22  C   UNL     1       2.176   9.365  18.763  0.00  0.00    +0.000 C 
BRANCH  22  23
ATOM     23  N   UNL     1       0.961   9.454  19.609  0.00  0.00    +0.000 NA
ATOM     24  C   UNL     1       1.157   8.776  20.901  0.00  0.00    +0.000 C 
ATOM     25  C   UNL     1      -0.116   8.815  21.741  0.00  0.00    +0.000 C 
ATOM     26  C   UNL     1      -0.590  10.244  21.964  0.00  0.00    +0.000 C 
ATOM     27  C   UNL     1      -0.702  10.982  20.635  0.00  0.00    +0.000 C 
ATOM     28  C   UNL     1       0.587  10.864  19.817  0.00  0.00    +0.000 C 
ENDBRANCH  22  23
ENDBRANCH  21  22
ENDBRANCH   8  21
TORSDOF 5
ENDMDL
MODEL 9
REMARK VINA RESULT:      -7.2      2.182      5.438
REMARK  Name = 
REMARK  6 active torsions:
REMARK  status: ('A' for Active; 'I' for Inactive)
REMARK    1  A    between atoms: C_1  and  O_2
REMARK    2  A    between atoms: O_2  and  C_3
REMARK    3  A    between atoms: C_8  and  C_9
REMARK    4  A    between atoms: N_16  and  C_17
REMARK    5  A    between atoms: C_17  and  C_18
REMARK    6  A    between atoms: C_18  and  N_19
REMARK                            x       y       z     vdW  Elec       q    Type
REMARK                         _______ _______ _______ _____ _____    ______ ____
ROOT
ATOM      1  C   UNL     1       0.725  11.127  19.190  0.00  0.00    +0.000 A 
ATOM      2  C   UNL     1       0.429  10.646  20.460  0.00  0.00    +0.000 A 
ATOM      3  C   UNL     1       0.798   9.346  20.809  0.00  0.00    +0.000 A 
ATOM      4  C   UNL     1       1.476   8.519  19.921  0.00  0.00    +0.000 A 
ATOM      5  N   UNL     1       1.788   7.267  20.292  0.00  0.00    +0.000 NA
ATOM      6  C   UNL     1       2.480   6.498  19.402  0.00  0.00    +0.000 A 
ATOM      7  C   UNL     1       2.862   7.017  18.143  0.00  0.00    +0.000 A 
ATOM      8  N   UNL     1       3.567   6.236  17.230  0.00  0.00    +0.000 N 
ATOM      9  N   UNL     1       2.526   8.275  17.774  0.00  0.00    +0.000 NA
ATOM     10  C   UNL     1       1.824   9.019  18.648  0.00  0.00    +0.000 A 
ATOM     11  C   UNL     1       1.425  10.305  18.302  0.00  0.00    +0.000 A 
ATOM     12  H   UNL     1       2.995   5.491  16.832  0.00  0.00    +0.000 HD
ENDROOT
BRANCH   6  13
ATOM     13  C   UNL     1       2.809   5.130  19.889  0.00  0.00    +0.000 A 
ATOM     14  C   UNL     1       2.029   4.512  20.885  0.00  0.00    +0.000 A 
ATOM     15  C   UNL     1       2.294   3.209  21.322  0.00  0.00    +0.000 A 
ATOM     16  C   UNL     1       3.348   2.486  20.770  0.00  0.00    +0.000 A 
ATOM     17  C   UNL     1       4.157   3.078  19.810  0.00  0.00    +0.000 A 
ATOM     18  C   UNL     1       3.901   4.388  19.397  0.00  0.00    +0.000 A 
ENDBRANCH   6  13
BRANCH   1  20
ATOM     19  C   UNL     1      -0.985  12.706  18.703  0.00  0.00    +0.000 C 
ATOM     20  O   UNL     1       0.396  12.361  18.702  0.00  0.00    +0.000 OA
ENDBRANCH   1  20
BRANCH   8  21
ATOM     21  C   UNL     1       4.396   6.909  16.244  0.00  0.00    +0.000 C 
BRANCH  21  22
ATOM     22  C   UNL     1       5.497   5.929  15.773  0.00  0.00    +0.000 C 
BRANCH  22  23
ATOM     23  N   UNL     1       6.697   5.905  16.645  0.00  0.00    +0.000 NA
ATOM     24  C   UNL     1       6.726   7.066  17.549  0.00  0.00    +0.000 C 
ATOM     25  C   UNL     1       7.993   7.070  18.399  0.00  0.00    +0.000 C 
ATOM     26  C   UNL     1       8.130   5.779  19.194  0.00  0.00    +0.000 C 
ATOM     27  C   UNL     1       8.003   4.570  18.276  0.00  0.00    +0.000 C 
ATOM     28  C   UNL     1       6.741   4.649  17.415  0.00  0.00    +0.000 C 
ENDBRANCH  22  23
ENDBRANCH  21  22
ENDBRANCH   8  21
TORSDOF 5
ENDMDL
