MODEL 1
REMARK VINA RESULT:      -8.7      0.000      0.000
REMARK  Name = 
REMARK  7 active torsions:
REMARK  status: ('A' for Active; 'I' for Inactive)
REMARK    1  A    between atoms: C_1  and  C_2
REMARK    2  A    between atoms: C_5  and  N_6
REMARK    3  A    between atoms: C_8  and  C_9
REMARK    4  A    between atoms: N_11  and  C_12
REMARK    5  A    between atoms: C_15  and  O_16
REMARK    6  A    between atoms: O_16  and  C_17
REMARK    7  A    between atoms: C_28  and  C_29
REMARK                            x       y       z     vdW  Elec       q    Type
REMARK                         _______ _______ _______ _____ _____    ______ ____
ROOT
ATOM      1  C   UNL     1      -0.169  10.516  19.100  0.00  0.00    +0.000 C 
ATOM      2  O   UNL     1      -0.743  10.049  18.127  0.00  0.00    +0.000 OA
ATOM      3  N   UNL     1       0.882   9.965  19.819  0.00  0.00    +0.000 N 
ATOM      4  H   UNL     1       1.219  10.505  20.612  0.00  0.00    +0.000 HD
ENDROOT
BRANCH   1   7
ATOM      5  N   UNL     1      -2.157  13.043  20.928  0.00  0.00    +0.000 N 
ATOM      6  N   UNL     1      -1.682  11.840  20.422  0.00  0.00    +0.000 NA
ATOM      7  C   UNL     1      -0.646  11.869  19.638  0.00  0.00    +0.000 A 
ATOM      8  C   UNL     1       0.082  13.101  19.231  0.00  0.00    +0.000 A 
ATOM      9  C   UNL     1       1.264  13.125  18.319  0.00  0.00    +0.000 C 
ATOM     10  C   UNL     1      -0.399  14.237  19.747  0.00  0.00    +0.000 A 
ATOM     11  C   UNL     1      -1.560  14.276  20.653  0.00  0.00    +0.000 A 
ATOM     12  O   UNL     1      -1.875  15.381  21.092  0.00  0.00    +0.000 OA
BRANCH   5  17
ATOM     13  C   UNL     1      -7.006  12.855  24.037  0.00  0.00    +0.000 C 
ATOM     14  C   UNL     1      -5.748  12.845  23.222  0.00  0.00    +0.000 A 
ATOM     15  C   UNL     1      -4.501  12.786  23.849  0.00  0.00    +0.000 A 
ATOM     16  C   UNL     1      -3.325  12.816  23.094  0.00  0.00    +0.000 A 
ATOM     17  C   UNL     1      -3.360  12.921  21.697  0.00  0.00    +0.000 A 
ATOM     18  C   UNL     1      -4.617  12.952  21.074  0.00  0.00    +0.000 A 
ATOM     19  C   UNL     1      -5.797  12.900  21.828  0.00  0.00    +0.000 A 
ENDBRANCH   5  17
ENDBRANCH   1   7
BRANCH   3  20
ATOM     20  C   UNL     1       1.547   8.752  19.527  0.00  0.00    +0.000 A 
ATOM     21  C   UNL     1       2.243   8.529  18.332  0.00  0.00    +0.000 A 
ATOM     22  C   UNL     1       2.895   7.314  18.084  0.00  0.00    +0.000 A 
ATOM     23  C   UNL     1       2.869   6.295  19.032  0.00  0.00    +0.000 A 
ATOM     24  C   UNL     1       2.149   6.488  20.213  0.00  0.00    +0.000 A 
ATOM     25  C   UNL     1       1.517   7.717  20.470  0.00  0.00    +0.000 A 
BRANCH  23  26
ATOM     26  O   UNL     1       3.492   5.123  18.673  0.00  0.00    +0.000 OA
BRANCH  26  27
ATOM     27  C   UNL     1       4.875   5.108  18.553  0.00  0.00    +0.000 A 
ATOM     28  N   UNL     1       5.653   5.436  19.609  0.00  0.00    +0.000 NA
ATOM     29  C   UNL     1       6.981   5.374  19.451  0.00  0.00    +0.000 A 
ATOM     30  N   UNL     1       7.652   5.024  18.351  0.00  0.00    +0.000 NA
ATOM     31  C   UNL     1       6.865   4.744  17.284  0.00  0.00    +0.000 A 
ATOM     32  C   UNL     1       7.340   4.354  15.998  0.00  0.00    +0.000 A 
ATOM     33  C   UNL     1       6.317   4.157  15.098  0.00  0.00    +0.000 A 
ATOM     34  S   UNL     1       4.783   4.421  15.808  0.00  0.00    +0.000 S 
ATOM     35  C   UNL     1       5.476   4.794  17.337  0.00  0.00    +0.000 A 
ENDBRANCH  26  27
ENDBRANCH  23  26
ENDBRANCH   3  20
TORSDOF 5
ENDMDL
MODEL 2
REMARK VINA RESULT:      -8.5      1.250      1.856
REMARK  Name = 
REMARK  7 active torsions:
REMARK  status: ('A' for Active; 'I' for Inactive)
REMARK    1  A    between atoms: C_1  and  C_2
REMARK    2  A    between atoms: C_5  and  N_6
REMARK    3  A    between atoms: C_8  and  C_9
REMARK    4  A    between atoms: N_11  and  C_12
REMARK    5  A    between atoms: C_15  and  O_16
REMARK    6  A    between atoms: O_16  and  C_17
REMARK    7  A    between atoms: C_28  and  C_29
REMARK                            x       y       z     vdW  Elec       q    Type
REMARK                         _______ _______ _______ _____ _____    ______ ____
ROOT
ATOM      1  C   UNL     1       0.873  10.710  20.792  0.00  0.00    +0.000 C 
ATOM      2  O   UNL     1       1.379  10.425  21.869  0.00  0.00    +0.000 OA
ATOM      3  N   UNL     1       0.949  10.007  19.600  0.00  0.00    +0.000 N 
ATOM      4  H   UNL     1       0.467  10.415  18.802  0.00  0.00    +0.000 HD
ENDROOT
BRANCH   1   7
ATOM      5  N   UNL     1      -2.013  13.018  20.645  0.00  0.00    +0.000 N 
ATOM      6  N   UNL     1      -1.233  11.873  20.735  0.00  0.00    +0.000 NA
ATOM      7  C   UNL     1       0.060  12.005  20.699  0.00  0.00    +0.000 A 
ATOM      8  C   UNL     1       0.782  13.299  20.568  0.00  0.00    +0.000 A 
ATOM      9  C   UNL     1       2.268  13.438  20.515  0.00  0.00    +0.000 C 
ATOM     10  C   UNL     1      -0.003  14.378  20.496  0.00  0.00    +0.000 A 
ATOM     11  C   UNL     1      -1.474  14.303  20.544  0.00  0.00    +0.000 A 
ATOM     12  O   UNL     1      -2.079  15.374  20.511  0.00  0.00    +0.000 OA
BRANCH   5  17
ATOM     13  C   UNL     1      -7.625  11.713  20.511  0.00  0.00    +0.000 C 
ATOM     14  C   UNL     1      -6.180  12.109  20.534  0.00  0.00    +0.000 A 
ATOM     15  C   UNL     1      -5.394  11.982  19.385  0.00  0.00    +0.000 A 
ATOM     16  C   UNL     1      -4.037  12.314  19.414  0.00  0.00    +0.000 A 
ATOM     17  C   UNL     1      -3.422  12.764  20.590  0.00  0.00    +0.000 A 
ATOM     18  C   UNL     1      -4.224  12.914  21.731  0.00  0.00    +0.000 A 
ATOM     19  C   UNL     1      -5.590  12.604  21.699  0.00  0.00    +0.000 A 
ENDBRANCH   5  17
ENDBRANCH   1   7
BRANCH   3  20
ATOM     20  C   UNL     1       1.596   8.764  19.403  0.00  0.00    +0.000 A 
ATOM     21  C   UNL     1       1.594   7.741  20.359  0.00  0.00    +0.000 A 
ATOM     22  C   UNL     1       2.242   6.521  20.122  0.00  0.00    +0.000 A 
ATOM     23  C   UNL     1       2.901   6.296  18.917  0.00  0.00    +0.000 A 
ATOM     24  C   UNL     1       2.942   7.320  17.967  0.00  0.00    +0.000 A 
ATOM     25  C   UNL     1       2.271   8.534  18.198  0.00  0.00    +0.000 A 
BRANCH  23  26
ATOM     26  O   UNL     1       3.550   5.090  18.801  0.00  0.00    +0.000 OA
BRANCH  26  27
ATOM     27  C   UNL     1       4.928   5.083  18.635  0.00  0.00    +0.000 A 
ATOM     28  N   UNL     1       5.739   5.424  19.663  0.00  0.00    +0.000 NA
ATOM     29  C   UNL     1       7.060   5.369  19.462  0.00  0.00    +0.000 A 
ATOM     30  N   UNL     1       7.697   5.017  18.342  0.00  0.00    +0.000 NA
ATOM     31  C   UNL     1       6.878   4.725  17.304  0.00  0.00    +0.000 A 
ATOM     32  C   UNL     1       7.312   4.330  16.004  0.00  0.00    +0.000 A 
ATOM     33  C   UNL     1       6.261   4.121  15.140  0.00  0.00    +0.000 A 
ATOM     34  S   UNL     1       4.751   4.379  15.899  0.00  0.00    +0.000 S 
ATOM     35  C   UNL     1       5.490   4.766  17.402  0.00  0.00    +0.000 A 
ENDBRANCH  26  27
ENDBRANCH  23  26
ENDBRANCH   3  20
TORSDOF 5
ENDMDL
MODEL 3
REMARK VINA RESULT:      -8.1      1.682      2.030
REMARK  Name = 
REMARK  7 active torsions:
REMARK  status: ('A' for Active; 'I' for Inactive)
REMARK    1  A    between atoms: C_1  and  C_2
REMARK    2  A    between atoms: C_5  and  N_6
REMARK    3  A    between atoms: C_8  and  C_9
REMARK    4  A    between atoms: N_11  and  C_12
REMARK    5  A    between atoms: C_15  and  O_16
REMARK    6  A    between atoms: O_16  and  C_17
REMARK    7  A    between atoms: C_28  and  C_29
REMARK                            x       y       z     vdW  Elec       q    Type
REMARK                         _______ _______ _______ _____ _____    ______ ____
ROOT
ATOM      1  C   UNL     1      -0.252  11.503  20.178  0.00  0.00    +0.000 C 
ATOM      2  O   UNL     1      -0.907  11.457  19.146  0.00  0.00    +0.000 OA
ATOM      3  N   UNL     1       0.741  10.631  20.599  0.00  0.00    +0.000 N 
ATOM      4  H   UNL     1       1.165  10.831  21.501  0.00  0.00    +0.000 HD
ENDROOT
BRANCH   1   7
ATOM      5  N   UNL     1      -2.034  13.650  22.605  0.00  0.00    +0.000 N 
ATOM      6  N   UNL     1      -1.723  12.636  21.709  0.00  0.00    +0.000 NA
ATOM      7  C   UNL     1      -0.542  12.638  21.165  0.00  0.00    +0.000 A 
ATOM      8  C   UNL     1       0.516  13.650  21.426  0.00  0.00    +0.000 A 
ATOM      9  C   UNL     1       1.865  13.651  20.785  0.00  0.00    +0.000 C 
ATOM     10  C   UNL     1       0.181  14.603  22.302  0.00  0.00    +0.000 A 
ATOM     11  C   UNL     1      -1.133  14.654  22.966  0.00  0.00    +0.000 A 
ATOM     12  O   UNL     1      -1.299  15.558  23.783  0.00  0.00    +0.000 OA
BRANCH   5  17
ATOM     13  C   UNL     1      -7.546  13.343  24.263  0.00  0.00    +0.000 C 
ATOM     14  C   UNL     1      -6.102  13.457  23.879  0.00  0.00    +0.000 A 
ATOM     15  C   UNL     1      -5.683  14.448  22.987  0.00  0.00    +0.000 A 
ATOM     16  C   UNL     1      -4.343  14.531  22.598  0.00  0.00    +0.000 A 
ATOM     17  C   UNL     1      -3.388  13.622  23.072  0.00  0.00    +0.000 A 
ATOM     18  C   UNL     1      -3.813  12.647  23.988  0.00  0.00    +0.000 A 
ATOM     19  C   UNL     1      -5.151  12.576  24.398  0.00  0.00    +0.000 A 
ENDBRANCH   5  17
ENDBRANCH   1   7
BRANCH   3  20
ATOM     20  C   UNL     1       1.241   9.523  19.876  0.00  0.00    +0.000 A 
ATOM     21  C   UNL     1       1.512   9.565  18.503  0.00  0.00    +0.000 A 
ATOM     22  C   UNL     1       2.013   8.446  17.824  0.00  0.00    +0.000 A 
ATOM     23  C   UNL     1       2.262   7.261  18.509  0.00  0.00    +0.000 A 
ATOM     24  C   UNL     1       1.963   7.191  19.872  0.00  0.00    +0.000 A 
ATOM     25  C   UNL     1       1.482   8.322  20.555  0.00  0.00    +0.000 A 
BRANCH  23  26
ATOM     26  O   UNL     1       2.702   6.204  17.746  0.00  0.00    +0.000 OA
BRANCH  26  27
ATOM     27  C   UNL     1       3.682   5.368  18.261  0.00  0.00    +0.000 A 
ATOM     28  N   UNL     1       3.339   4.321  19.046  0.00  0.00    +0.000 NA
ATOM     29  C   UNL     1       4.319   3.525  19.491  0.00  0.00    +0.000 A 
ATOM     30  N   UNL     1       5.628   3.640  19.254  0.00  0.00    +0.000 NA
ATOM     31  C   UNL     1       5.967   4.719  18.508  0.00  0.00    +0.000 A 
ATOM     32  C   UNL     1       7.296   5.064  18.126  0.00  0.00    +0.000 A 
ATOM     33  C   UNL     1       7.345   6.226  17.389  0.00  0.00    +0.000 A 
ATOM     34  S   UNL     1       5.789   6.889  17.139  0.00  0.00    +0.000 S 
ATOM     35  C   UNL     1       5.028   5.617  18.010  0.00  0.00    +0.000 A 
ENDBRANCH  26  27
ENDBRANCH  23  26
ENDBRANCH   3  20
TORSDOF 5
ENDMDL
MODEL 4
REMARK VINA RESULT:      -8.0      1.742      2.271
REMARK  Name = 
REMARK  7 active torsions:
REMARK  status: ('A' for Active; 'I' for Inactive)
REMARK    1  A    between atoms: C_1  and  C_2
REMARK    2  A    between atoms: C_5  and  N_6
REMARK    3  A    between atoms: C_8  and  C_9
REMARK    4  A    between atoms: N_11  and  C_12
REMARK    5  A    between atoms: C_15  and  O_16
REMARK    6  A    between atoms: O_16  and  C_17
REMARK    7  A    between atoms: C_28  and  C_29
REMARK                            x       y       z     vdW  Elec       q    Type
REMARK                         _______ _______ _______ _____ _____    ______ ____
ROOT
ATOM      1  C   UNL     1      -0.087  11.766  19.682  0.00  0.00    +0.000 C 
ATOM      2  O   UNL     1      -0.604  11.765  18.573  0.00  0.00    +0.000 OA
ATOM      3  N   UNL     1       0.794  10.838  20.215  0.00  0.00    +0.000 N 
ATOM      4  H   UNL     1       1.107  11.007  21.168  0.00  0.00    +0.000 HD
ENDROOT
BRANCH   1   7
ATOM      5  N   UNL     1      -1.948  13.811  22.138  0.00  0.00    +0.000 N 
ATOM      6  N   UNL     1      -1.579  12.798  21.264  0.00  0.00    +0.000 NA
ATOM      7  C   UNL     1      -0.443  12.907  20.641  0.00  0.00    +0.000 A 
ATOM      8  C   UNL     1       0.505  14.043  20.787  0.00  0.00    +0.000 A 
ATOM      9  C   UNL     1       1.802  14.165  20.056  0.00  0.00    +0.000 C 
ATOM     10  C   UNL     1       0.119  14.993  21.645  0.00  0.00    +0.000 A 
ATOM     11  C   UNL     1      -1.148  14.927  22.396  0.00  0.00    +0.000 A 
ATOM     12  O   UNL     1      -1.364  15.845  23.186  0.00  0.00    +0.000 OA
BRANCH   5  17
ATOM     13  C   UNL     1      -7.251  12.932  24.216  0.00  0.00    +0.000 C 
ATOM     14  C   UNL     1      -5.866  13.205  23.715  0.00  0.00    +0.000 A 
ATOM     15  C   UNL     1      -5.664  14.050  22.620  0.00  0.00    +0.000 A 
ATOM     16  C   UNL     1      -4.375  14.276  22.127  0.00  0.00    +0.000 A 
ATOM     17  C   UNL     1      -3.257  13.654  22.698  0.00  0.00    +0.000 A 
ATOM     18  C   UNL     1      -3.467  12.829  23.814  0.00  0.00    +0.000 A 
ATOM     19  C   UNL     1      -4.755  12.619  24.325  0.00  0.00    +0.000 A 
ENDBRANCH   5  17
ENDBRANCH   1   7
BRANCH   3  20
ATOM     20  C   UNL     1       1.325   9.711  19.546  0.00  0.00    +0.000 A 
ATOM     21  C   UNL     1       1.715   9.732  18.201  0.00  0.00    +0.000 A 
ATOM     22  C   UNL     1       2.243   8.594  17.577  0.00  0.00    +0.000 A 
ATOM     23  C   UNL     1       2.399   7.409  18.289  0.00  0.00    +0.000 A 
ATOM     24  C   UNL     1       1.981   7.360  19.621  0.00  0.00    +0.000 A 
ATOM     25  C   UNL     1       1.475   8.510  20.252  0.00  0.00    +0.000 A 
BRANCH  23  26
ATOM     26  O   UNL     1       2.875   6.335  17.575  0.00  0.00    +0.000 OA
BRANCH  26  27
ATOM     27  C   UNL     1       3.794   5.485  18.174  0.00  0.00    +0.000 A 
ATOM     28  N   UNL     1       5.037   5.929  18.473  0.00  0.00    +0.000 NA
ATOM     29  C   UNL     1       5.874   5.080  19.080  0.00  0.00    +0.000 A 
ATOM     30  N   UNL     1       5.634   3.816  19.434  0.00  0.00    +0.000 NA
ATOM     31  C   UNL     1       4.404   3.365  19.087  0.00  0.00    +0.000 A 
ATOM     32  C   UNL     1       3.911   2.052  19.347  0.00  0.00    +0.000 A 
ATOM     33  C   UNL     1       2.637   1.865  18.860  0.00  0.00    +0.000 A 
ATOM     34  S   UNL     1       2.026   3.276  18.111  0.00  0.00    +0.000 S 
ATOM     35  C   UNL     1       3.464   4.160  18.439  0.00  0.00    +0.000 A 
ENDBRANCH  26  27
ENDBRANCH  23  26
ENDBRANCH   3  20
TORSDOF 5
ENDMDL
MODEL 5
REMARK VINA RESULT:      -8.0      1.965      2.458
REMARK  Name = 
REMARK  7 active torsions:
REMARK  status: ('A' for Active; 'I' for Inactive)
REMARK    1  A    between atoms: C_1  and  C_2
REMARK    2  A    between atoms: C_5  and  N_6
REMARK    3  A    between atoms: C_8  and  C_9
REMARK    4  A    between atoms: N_11  and  C_12
REMARK    5  A    between atoms: C_15  and  O_16
REMARK    6  A    between atoms: O_16  and  C_17
REMARK    7  A    between atoms: C_28  and  C_29
REMARK                            x       y       z     vdW  Elec       q    Type
REMARK                         _______ _______ _______ _____ _____    ______ ____
ROOT
ATOM      1  C   UNL     1       0.565  12.147  20.230  0.00  0.00    +0.000 C 
ATOM      2  O   UNL     1       0.919  12.616  19.157  0.00  0.00    +0.000 OA
ATOM      3  N   UNL     1       0.608  10.823  20.640  0.00  0.00    +0.000 N 
ATOM      4  H   UNL     1       0.254  10.626  21.572  0.00  0.00    +0.000 HD
ENDROOT
BRANCH   1   7
ATOM      5  N   UNL     1      -1.807  13.683  22.616  0.00  0.00    +0.000 N 
ATOM      6  N   UNL     1      -1.231  12.841  21.675  0.00  0.00    +0.000 NA
ATOM      7  C   UNL     1      -0.021  13.102  21.275  0.00  0.00    +0.000 A 
ATOM      8  C   UNL     1       0.806  14.243  21.749  0.00  0.00    +0.000 A 
ATOM      9  C   UNL     1       2.190  14.542  21.273  0.00  0.00    +0.000 C 
ATOM     10  C   UNL     1       0.220  15.024  22.662  0.00  0.00    +0.000 A 
ATOM     11  C   UNL     1      -1.142  14.780  23.169  0.00  0.00    +0.000 A 
ATOM     12  O   UNL     1      -1.548  15.548  24.040  0.00  0.00    +0.000 OA
BRANCH   5  17
ATOM     13  C   UNL     1      -7.326  12.717  23.966  0.00  0.00    +0.000 C 
ATOM     14  C   UNL     1      -5.891  12.918  23.584  0.00  0.00    +0.000 A 
ATOM     15  C   UNL     1      -4.867  12.478  24.427  0.00  0.00    +0.000 A 
ATOM     16  C   UNL     1      -3.528  12.698  24.091  0.00  0.00    +0.000 A 
ATOM     17  C   UNL     1      -3.174  13.376  22.917  0.00  0.00    +0.000 A 
ATOM     18  C   UNL     1      -4.208  13.790  22.063  0.00  0.00    +0.000 A 
ATOM     19  C   UNL     1      -5.550  13.550  22.386  0.00  0.00    +0.000 A 
ENDBRANCH   5  17
ENDBRANCH   1   7
BRANCH   3  20
ATOM     20  C   UNL     1       1.134   9.737  19.901  0.00  0.00    +0.000 A 
ATOM     21  C   UNL     1       1.313   9.771  18.513  0.00  0.00    +0.000 A 
ATOM     22  C   UNL     1       1.844   8.676  17.819  0.00  0.00    +0.000 A 
ATOM     23  C   UNL     1       2.214   7.522  18.503  0.00  0.00    +0.000 A 
ATOM     24  C   UNL     1       2.008   7.458  19.883  0.00  0.00    +0.000 A 
ATOM     25  C   UNL     1       1.498   8.568  20.580  0.00  0.00    +0.000 A 
BRANCH  23  26
ATOM     26  O   UNL     1       2.674   6.484  17.727  0.00  0.00    +0.000 OA
BRANCH  26  27
ATOM     27  C   UNL     1       3.602   5.604  18.268  0.00  0.00    +0.000 A 
ATOM     28  N   UNL     1       4.870   6.011  18.500  0.00  0.00    +0.000 NA
ATOM     29  C   UNL     1       5.717   5.134  19.053  0.00  0.00    +0.000 A 
ATOM     30  N   UNL     1       5.462   3.873  19.409  0.00  0.00    +0.000 NA
ATOM     31  C   UNL     1       4.203   3.458  19.127  0.00  0.00    +0.000 A 
ATOM     32  C   UNL     1       3.689   2.157  19.402  0.00  0.00    +0.000 A 
ATOM     33  C   UNL     1       2.385   2.009  18.985  0.00  0.00    +0.000 A 
ATOM     34  S   UNL     1       1.773   3.443  18.283  0.00  0.00    +0.000 S 
ATOM     35  C   UNL     1       3.250   4.285  18.539  0.00  0.00    +0.000 A 
ENDBRANCH  26  27
ENDBRANCH  23  26
ENDBRANCH   3  20
TORSDOF 5
ENDMDL
MODEL 6
REMARK VINA RESULT:      -7.9      1.762      2.311
REMARK  Name = 
REMARK  7 active torsions:
REMARK  status: ('A' for Active; 'I' for Inactive)
REMARK    1  A    between atoms: C_1  and  C_2
REMARK    2  A    between atoms: C_5  and  N_6
REMARK    3  A    between atoms: C_8  and  C_9
REMARK    4  A    between atoms: N_11  and  C_12
REMARK    5  A    between atoms: C_15  and  O_16
REMARK    6  A    between atoms: O_16  and  C_17
REMARK    7  A    between atoms: C_28  and  C_29
REMARK                            x       y       z     vdW  Elec       q    Type
REMARK                         _______ _______ _______ _____ _____    ______ ____
ROOT
ATOM      1  C   UNL     1      -0.162  11.332  19.985  0.00  0.00    +0.000 C 
ATOM      2  O   UNL     1      -0.719  11.370  18.897  0.00  0.00    +0.000 OA
ATOM      3  N   UNL     1       0.791  10.426  20.426  0.00  0.00    +0.000 N 
ATOM      4  H   UNL     1       1.129  10.552  21.377  0.00  0.00    +0.000 HD
ENDROOT
BRANCH   1   7
ATOM      5  N   UNL     1      -2.145  13.240  22.456  0.00  0.00    +0.000 N 
ATOM      6  N   UNL     1      -1.749  12.301  21.513  0.00  0.00    +0.000 NA
ATOM      7  C   UNL     1      -0.546  12.386  21.029  0.00  0.00    +0.000 A 
ATOM      8  C   UNL     1       0.455  13.421  21.406  0.00  0.00    +0.000 A 
ATOM      9  C   UNL     1       1.831  13.517  20.833  0.00  0.00    +0.000 C 
ATOM     10  C   UNL     1       0.039  14.299  22.324  0.00  0.00    +0.000 A 
ATOM     11  C   UNL     1      -1.305  14.254  22.925  0.00  0.00    +0.000 A 
ATOM     12  O   UNL     1      -1.548  15.094  23.789  0.00  0.00    +0.000 OA
BRANCH   5  17
ATOM     13  C   UNL     1      -7.646  13.069  24.168  0.00  0.00    +0.000 C 
ATOM     14  C   UNL     1      -6.223  13.061  23.697  0.00  0.00    +0.000 A 
ATOM     15  C   UNL     1      -5.206  12.583  24.528  0.00  0.00    +0.000 A 
ATOM     16  C   UNL     1      -3.874  12.610  24.106  0.00  0.00    +0.000 A 
ATOM     17  C   UNL     1      -3.517  13.128  22.854  0.00  0.00    +0.000 A 
ATOM     18  C   UNL     1      -4.548  13.579  22.015  0.00  0.00    +0.000 A 
ATOM     19  C   UNL     1      -5.886  13.532  22.427  0.00  0.00    +0.000 A 
ENDBRANCH   5  17
ENDBRANCH   1   7
BRANCH   3  20
ATOM     20  C   UNL     1       1.359   9.377  19.667  0.00  0.00    +0.000 A 
ATOM     21  C   UNL     1       1.586   8.095  20.182  0.00  0.00    +0.000 A 
ATOM     22  C   UNL     1       2.146   7.080  19.394  0.00  0.00    +0.000 A 
ATOM     23  C   UNL     1       2.486   7.327  18.067  0.00  0.00    +0.000 A 
ATOM     24  C   UNL     1       2.300   8.611  17.548  0.00  0.00    +0.000 A 
ATOM     25  C   UNL     1       1.716   9.620  18.334  0.00  0.00    +0.000 A 
BRANCH  23  26
ATOM     26  O   UNL     1       3.078   6.285  17.393  0.00  0.00    +0.000 OA
BRANCH  26  27
ATOM     27  C   UNL     1       3.965   5.463  18.074  0.00  0.00    +0.000 A 
ATOM     28  N   UNL     1       5.206   5.907  18.379  0.00  0.00    +0.000 NA
ATOM     29  C   UNL     1       6.011   5.088  19.066  0.00  0.00    +0.000 A 
ATOM     30  N   UNL     1       5.738   3.853  19.495  0.00  0.00    +0.000 NA
ATOM     31  C   UNL     1       4.512   3.399  19.143  0.00  0.00    +0.000 A 
ATOM     32  C   UNL     1       3.989   2.114  19.473  0.00  0.00    +0.000 A 
ATOM     33  C   UNL     1       2.726   1.914  18.963  0.00  0.00    +0.000 A 
ATOM     34  S   UNL     1       2.162   3.281  18.104  0.00  0.00    +0.000 S 
ATOM     35  C   UNL     1       3.604   4.163  18.416  0.00  0.00    +0.000 A 
ENDBRANCH  26  27
ENDBRANCH  23  26
ENDBRANCH   3  20
TORSDOF 5
ENDMDL
MODEL 7
REMARK VINA RESULT:      -7.9      1.263      1.784
REMARK  Name = 
REMARK  7 active torsions:
REMARK  status: ('A' for Active; 'I' for Inactive)
REMARK    1  A    between atoms: C_1  and  C_2
REMARK    2  A    between atoms: C_5  and  N_6
REMARK    3  A    between atoms: C_8  and  C_9
REMARK    4  A    between atoms: N_11  and  C_12
REMARK    5  A    between atoms: C_15  and  O_16
REMARK    6  A    between atoms: O_16  and  C_17
REMARK    7  A    between atoms: C_28  and  C_29
REMARK                            x       y       z     vdW  Elec       q    Type
REMARK                         _______ _______ _______ _____ _____    ______ ____
ROOT
ATOM      1  C   UNL     1      -0.063  10.372  19.263  0.00  0.00    +0.000 C 
ATOM      2  O   UNL     1      -0.510   9.946  18.208  0.00  0.00    +0.000 OA
ATOM      3  N   UNL     1       0.818   9.746  20.133  0.00  0.00    +0.000 N 
ATOM      4  H   UNL     1       1.066  10.261  20.974  0.00  0.00    +0.000 HD
ENDROOT
BRANCH   1   7
ATOM      5  N   UNL     1      -2.012  13.020  20.956  0.00  0.00    +0.000 N 
ATOM      6  N   UNL     1      -1.557  11.785  20.513  0.00  0.00    +0.000 NA
ATOM      7  C   UNL     1      -0.518  11.758  19.732  0.00  0.00    +0.000 A 
ATOM      8  C   UNL     1       0.233  12.955  19.268  0.00  0.00    +0.000 A 
ATOM      9  C   UNL     1       1.418  12.913  18.360  0.00  0.00    +0.000 C 
ATOM     10  C   UNL     1      -0.229  14.123  19.725  0.00  0.00    +0.000 A 
ATOM     11  C   UNL     1      -1.392  14.227  20.624  0.00  0.00    +0.000 A 
ATOM     12  O   UNL     1      -1.689  15.358  21.007  0.00  0.00    +0.000 OA
BRANCH   5  17
ATOM     13  C   UNL     1      -6.853  13.069  24.083  0.00  0.00    +0.000 C 
ATOM     14  C   UNL     1      -5.602  12.998  23.261  0.00  0.00    +0.000 A 
ATOM     15  C   UNL     1      -4.363  12.802  23.875  0.00  0.00    +0.000 A 
ATOM     16  C   UNL     1      -3.190  12.774  23.115  0.00  0.00    +0.000 A 
ATOM     17  C   UNL     1      -3.219  12.957  21.726  0.00  0.00    +0.000 A 
ATOM     18  C   UNL     1      -4.470  13.126  21.114  0.00  0.00    +0.000 A 
ATOM     19  C   UNL     1      -5.649  13.131  21.872  0.00  0.00    +0.000 A 
ENDBRANCH   5  17
ENDBRANCH   1   7
BRANCH   3  20
ATOM     20  C   UNL     1       1.430   8.486  19.937  0.00  0.00    +0.000 A 
ATOM     21  C   UNL     1       1.348   7.443  20.868  0.00  0.00    +0.000 A 
ATOM     22  C   UNL     1       1.964   6.206  20.633  0.00  0.00    +0.000 A 
ATOM     23  C   UNL     1       2.671   5.984  19.455  0.00  0.00    +0.000 A 
ATOM     24  C   UNL     1       2.793   7.026  18.533  0.00  0.00    +0.000 A 
ATOM     25  C   UNL     1       2.154   8.258  18.760  0.00  0.00    +0.000 A 
BRANCH  23  26
ATOM     26  O   UNL     1       3.283   4.758  19.341  0.00  0.00    +0.000 OA
BRANCH  26  27
ATOM     27  C   UNL     1       4.021   4.481  18.199  0.00  0.00    +0.000 A 
ATOM     28  N   UNL     1       3.426   3.911  17.127  0.00  0.00    +0.000 NA
ATOM     29  C   UNL     1       4.174   3.695  16.038  0.00  0.00    +0.000 A 
ATOM     30  N   UNL     1       5.469   3.973  15.875  0.00  0.00    +0.000 NA
ATOM     31  C   UNL     1       6.069   4.498  16.971  0.00  0.00    +0.000 A 
ATOM     32  C   UNL     1       7.442   4.872  17.052  0.00  0.00    +0.000 A 
ATOM     33  C   UNL     1       7.782   5.355  18.296  0.00  0.00    +0.000 A 
ATOM     34  S   UNL     1       6.442   5.378  19.359  0.00  0.00    +0.000 S 
ATOM     35  C   UNL     1       5.386   4.748  18.157  0.00  0.00    +0.000 A 
ENDBRANCH  26  27
ENDBRANCH  23  26
ENDBRANCH   3  20
TORSDOF 5
ENDMDL
MODEL 8
REMARK VINA RESULT:      -7.9      2.966     11.736
REMARK  Name = 
REMARK  7 active torsions:
REMARK  status: ('A' for Active; 'I' for Inactive)
REMARK    1  A    between atoms: C_1  and  C_2
REMARK    2  A    between atoms: C_5  and  N_6
REMARK    3  A    between atoms: C_8  and  C_9
REMARK    4  A    between atoms: N_11  and  C_12
REMARK    5  A    between atoms: C_15  and  O_16
REMARK    6  A    between atoms: O_16  and  C_17
REMARK    7  A    between atoms: C_28  and  C_29
REMARK                            x       y       z     vdW  Elec       q    Type
REMARK                         _______ _______ _______ _____ _____    ______ ____
ROOT
ATOM      1  C   UNL     1       2.120   8.250  18.430  0.00  0.00    +0.000 C 
ATOM      2  O   UNL     1       2.193   8.851  17.367  0.00  0.00    +0.000 OA
ATOM      3  N   UNL     1       1.421   8.613  19.571  0.00  0.00    +0.000 N 
ATOM      4  H   UNL     1       1.493   7.982  20.366  0.00  0.00    +0.000 HD
ENDROOT
BRANCH   1   7
ATOM      5  N   UNL     1       4.456   5.479  17.693  0.00  0.00    +0.000 N 
ATOM      6  N   UNL     1       3.736   6.664  17.615  0.00  0.00    +0.000 NA
ATOM      7  C   UNL     1       2.895   6.935  18.568  0.00  0.00    +0.000 A 
ATOM      8  C   UNL     1       2.637   6.071  19.751  0.00  0.00    +0.000 A 
ATOM      9  C   UNL     1       1.659   6.386  20.834  0.00  0.00    +0.000 C 
ATOM     10  C   UNL     1       3.358   4.945  19.795  0.00  0.00    +0.000 A 
ATOM     11  C   UNL     1       4.338   4.581  18.756  0.00  0.00    +0.000 A 
ATOM     12  O   UNL     1       4.966   3.539  18.937  0.00  0.00    +0.000 OA
BRANCH   5  17
ATOM     13  C   UNL     1       7.662   4.685  12.969  0.00  0.00    +0.000 C 
ATOM     14  C   UNL     1       6.854   4.844  14.221  0.00  0.00    +0.000 A 
ATOM     15  C   UNL     1       5.577   4.285  14.314  0.00  0.00    +0.000 A 
ATOM     16  C   UNL     1       4.806   4.464  15.467  0.00  0.00    +0.000 A 
ATOM     17  C   UNL     1       5.279   5.218  16.549  0.00  0.00    +0.000 A 
ATOM     18  C   UNL     1       6.573   5.753  16.458  0.00  0.00    +0.000 A 
ATOM     19  C   UNL     1       7.357   5.555  15.313  0.00  0.00    +0.000 A 
ENDBRANCH   5  17
ENDBRANCH   1   7
BRANCH   3  20
ATOM     20  C   UNL     1       0.590   9.748  19.715  0.00  0.00    +0.000 A 
ATOM     21  C   UNL     1       0.681  10.630  20.799  0.00  0.00    +0.000 A 
ATOM     22  C   UNL     1      -0.157  11.749  20.901  0.00  0.00    +0.000 A 
ATOM     23  C   UNL     1      -1.102  12.012  19.914  0.00  0.00    +0.000 A 
ATOM     24  C   UNL     1      -1.231  11.122  18.845  0.00  0.00    +0.000 A 
ATOM     25  C   UNL     1      -0.372  10.014  18.733  0.00  0.00    +0.000 A 
BRANCH  23  26
ATOM     26  O   UNL     1      -1.913  13.102  20.131  0.00  0.00    +0.000 OA
BRANCH  26  27
ATOM     27  C   UNL     1      -3.188  12.899  20.638  0.00  0.00    +0.000 A 
ATOM     28  N   UNL     1      -4.196  12.528  19.815  0.00  0.00    +0.000 NA
ATOM     29  C   UNL     1      -5.400  12.312  20.358  0.00  0.00    +0.000 A 
ATOM     30  N   UNL     1      -5.742  12.424  21.643  0.00  0.00    +0.000 NA
ATOM     31  C   UNL     1      -4.740  12.843  22.452  0.00  0.00    +0.000 A 
ATOM     32  C   UNL     1      -4.855  13.047  23.859  0.00  0.00    +0.000 A 
ATOM     33  C   UNL     1      -3.682  13.499  24.421  0.00  0.00    +0.000 A 
ATOM     34  S   UNL     1      -2.437  13.657  23.259  0.00  0.00    +0.000 S 
ATOM     35  C   UNL     1      -3.456  13.111  21.987  0.00  0.00    +0.000 A 
ENDBRANCH  26  27
ENDBRANCH  23  26
ENDBRANCH   3  20
TORSDOF 5
ENDMDL
MODEL 9
REMARK VINA RESULT:      -7.8      1.325      1.719
REMARK  Name = 
REMARK  7 active torsions:
REMARK  status: ('A' for Active; 'I' for Inactive)
REMARK    1  A    between atoms: C_1  and  C_2
REMARK    2  A    between atoms: C_5  and  N_6
REMARK    3  A    between atoms: C_8  and  C_9
REMARK    4  A    between atoms: N_11  and  C_12
REMARK    5  A    between atoms: C_15  and  O_16
REMARK    6  A    between atoms: O_16  and  C_17
REMARK    7  A    between atoms: C_28  and  C_29
REMARK                            x       y       z     vdW  Elec       q    Type
REMARK                         _______ _______ _______ _____ _____    ______ ____
ROOT
ATOM      1  C   UNL     1       0.303  10.213  19.093  0.00  0.00    +0.000 C 
ATOM      2  O   UNL     1      -0.245   9.929  18.037  0.00  0.00    +0.000 OA
ATOM      3  N   UNL     1       1.204   9.450  19.820  0.00  0.00    +0.000 N 
ATOM      4  H   UNL     1       1.543   9.857  20.689  0.00  0.00    +0.000 HD
ENDROOT
BRANCH   1   7
ATOM      5  N   UNL     1      -1.429  12.788  21.104  0.00  0.00    +0.000 N 
ATOM      6  N   UNL     1      -1.081  11.586  20.504  0.00  0.00    +0.000 NA
ATOM      7  C   UNL     1      -0.032  11.562  19.737  0.00  0.00    +0.000 A 
ATOM      8  C   UNL     1       0.839  12.732  19.446  0.00  0.00    +0.000 A 
ATOM      9  C   UNL     1       2.036  12.697  18.553  0.00  0.00    +0.000 C 
ATOM     10  C   UNL     1       0.478  13.868  20.051  0.00  0.00    +0.000 A 
ATOM     11  C   UNL     1      -0.691  13.964  20.943  0.00  0.00    +0.000 A 
ATOM     12  O   UNL     1      -0.890  15.057  21.470  0.00  0.00    +0.000 OA
BRANCH   5  17
ATOM     13  C   UNL     1      -6.336  12.895  24.125  0.00  0.00    +0.000 C 
ATOM     14  C   UNL     1      -5.069  12.810  23.329  0.00  0.00    +0.000 A 
ATOM     15  C   UNL     1      -3.850  12.561  23.965  0.00  0.00    +0.000 A 
ATOM     16  C   UNL     1      -2.662  12.519  23.229  0.00  0.00    +0.000 A 
ATOM     17  C   UNL     1      -2.654  12.740  21.845  0.00  0.00    +0.000 A 
ATOM     18  C   UNL     1      -3.886  12.963  21.211  0.00  0.00    +0.000 A 
ATOM     19  C   UNL     1      -5.081  12.982  21.943  0.00  0.00    +0.000 A 
ENDBRANCH   5  17
ENDBRANCH   1   7
BRANCH   3  20
ATOM     20  C   UNL     1       1.722   8.188  19.447  0.00  0.00    +0.000 A 
ATOM     21  C   UNL     1       2.256   7.924  18.180  0.00  0.00    +0.000 A 
ATOM     22  C   UNL     1       2.765   6.661  17.852  0.00  0.00    +0.000 A 
ATOM     23  C   UNL     1       2.757   5.633  18.790  0.00  0.00    +0.000 A 
ATOM     24  C   UNL     1       2.195   5.869  20.047  0.00  0.00    +0.000 A 
ATOM     25  C   UNL     1       1.706   7.145  20.381  0.00  0.00    +0.000 A 
BRANCH  23  26
ATOM     26  O   UNL     1       3.229   4.417  18.356  0.00  0.00    +0.000 OA
BRANCH  26  27
ATOM     27  C   UNL     1       4.331   4.387  17.513  0.00  0.00    +0.000 A 
ATOM     28  N   UNL     1       4.205   3.932  16.245  0.00  0.00    +0.000 NA
ATOM     29  C   UNL     1       5.290   3.955  15.462  0.00  0.00    +0.000 A 
ATOM     30  N   UNL     1       6.515   4.377  15.784  0.00  0.00    +0.000 NA
ATOM     31  C   UNL     1       6.643   4.785  17.070  0.00  0.00    +0.000 A 
ATOM     32  C   UNL     1       7.848   5.272  17.657  0.00  0.00    +0.000 A 
ATOM     33  C   UNL     1       7.691   5.592  18.987  0.00  0.00    +0.000 A 
ATOM     34  S   UNL     1       6.089   5.326  19.523  0.00  0.00    +0.000 S 
ATOM     35  C   UNL     1       5.583   4.786  17.971  0.00  0.00    +0.000 A 
ENDBRANCH  26  27
ENDBRANCH  23  26
ENDBRANCH   3  20
TORSDOF 5
ENDMDL
