MODEL 1
REMARK VINA RESULT:      -6.7      0.000      0.000
REMARK  Name = 
REMARK  1 active torsions:
REMARK  status: ('A' for Active; 'I' for Inactive)
REMARK    1  A    between atoms: C_4  and  C_5
REMARK                            x       y       z     vdW  Elec       q    Type
REMARK                         _______ _______ _______ _____ _____    ______ ____
ROOT
ATOM      1  C   UNL     1       3.364   5.141  17.497  0.00  0.00    +0.000 C 
ATOM      2  C   UNL     1       4.320   6.173  18.185  0.00  0.00    +0.000 C 
ATOM      3  N   UNL     1       5.520   5.385  18.220  0.00  0.00    +0.000 N 
ATOM      4  C   UNL     1       6.875   5.842  18.415  0.00  0.00    +0.000 C 
ATOM      5  C   UNL     1       7.660   4.639  17.820  0.00  0.00    +0.000 C 
ATOM      6  N   UNL     1       6.687   4.078  16.893  0.00  0.00    +0.000 N 
ATOM      7  C   UNL     1       5.430   4.484  17.199  0.00  0.00    +0.000 C 
ATOM      8  N   UNL     1       4.271   4.222  16.694  0.00  0.00    +0.000 NA
ATOM      9  H   UNL     1       6.826   3.212  16.396  0.00  0.00    +0.000 HD
ENDROOT
BRANCH   1  13
ATOM     10  C   UNL     1       0.802   3.125  20.347  0.00  0.00    +0.000 A 
ATOM     11  C   UNL     1       0.977   2.604  19.066  0.00  0.00    +0.000 A 
ATOM     12  C   UNL     1       1.831   3.238  18.160  0.00  0.00    +0.000 A 
ATOM     13  C   UNL     1       2.521   4.403  18.526  0.00  0.00    +0.000 A 
ATOM     14  C   UNL     1       2.341   4.907  19.825  0.00  0.00    +0.000 A 
ATOM     15  C   UNL     1       1.488   4.275  20.728  0.00  0.00    +0.000 A 
ENDBRANCH   1  13
TORSDOF 1
ENDMDL
MODEL 2
REMARK VINA RESULT:      -6.7      0.205      1.303
REMARK  Name = 
REMARK  1 active torsions:
REMARK  status: ('A' for Active; 'I' for Inactive)
REMARK    1  A    between atoms: C_4  and  C_5
REMARK                            x       y       z     vdW  Elec       q    Type
REMARK                         _______ _______ _______ _____ _____    ______ ____
ROOT
ATOM      1  C   UNL     1       3.293   5.156  17.484  0.00  0.00    +0.000 C 
ATOM      2  C   UNL     1       4.267   6.226  18.085  0.00  0.00    +0.000 C 
ATOM      3  N   UNL     1       5.462   5.432  18.160  0.00  0.00    +0.000 N 
ATOM      4  C   UNL     1       6.822   5.891  18.304  0.00  0.00    +0.000 C 
ATOM      5  C   UNL     1       7.590   4.642  17.786  0.00  0.00    +0.000 C 
ATOM      6  N   UNL     1       6.600   4.025  16.914  0.00  0.00    +0.000 N 
ATOM      7  C   UNL     1       5.350   4.462  17.206  0.00  0.00    +0.000 C 
ATOM      8  N   UNL     1       4.183   4.175  16.736  0.00  0.00    +0.000 NA
ATOM      9  H   UNL     1       6.726   3.125  16.477  0.00  0.00    +0.000 HD
ENDROOT
BRANCH   1  13
ATOM     10  C   UNL     1       1.088   3.206  20.660  0.00  0.00    +0.000 A 
ATOM     11  C   UNL     1       1.751   4.409  20.898  0.00  0.00    +0.000 A 
ATOM     12  C   UNL     1       2.433   5.053  19.863  0.00  0.00    +0.000 A 
ATOM     13  C   UNL     1       2.460   4.499  18.574  0.00  0.00    +0.000 A 
ATOM     14  C   UNL     1       1.776   3.293  18.350  0.00  0.00    +0.000 A 
ATOM     15  C   UNL     1       1.097   2.650  19.383  0.00  0.00    +0.000 A 
ENDBRANCH   1  13
TORSDOF 1
ENDMDL
MODEL 3
REMARK VINA RESULT:      -6.4      2.427      4.923
REMARK  Name = 
REMARK  1 active torsions:
REMARK  status: ('A' for Active; 'I' for Inactive)
REMARK    1  A    between atoms: C_4  and  C_5
REMARK                            x       y       z     vdW  Elec       q    Type
REMARK                         _______ _______ _______ _____ _____    ______ ____
ROOT
ATOM      1  C   UNL     1       3.100   2.929  17.625  0.00  0.00    +0.000 C 
ATOM      2  C   UNL     1       3.785   2.368  18.917  0.00  0.00    +0.000 C 
ATOM      3  N   UNL     1       2.879   2.890  19.902  0.00  0.00    +0.000 N 
ATOM      4  C   UNL     1       2.723   2.470  21.274  0.00  0.00    +0.000 C 
ATOM      5  C   UNL     1       1.299   3.020  21.570  0.00  0.00    +0.000 C 
ATOM      6  N   UNL     1       0.713   3.063  20.238  0.00  0.00    +0.000 N 
ATOM      7  C   UNL     1       1.674   3.053  19.281  0.00  0.00    +0.000 C 
ATOM      8  N   UNL     1       1.636   3.115  17.992  0.00  0.00    +0.000 NA
ATOM      9  H   UNL     1      -0.187   3.470  20.039  0.00  0.00    +0.000 HD
ENDROOT
BRANCH   1  13
ATOM     10  C   UNL     1       5.160   6.547  16.435  0.00  0.00    +0.000 A 
ATOM     11  C   UNL     1       5.513   5.320  15.876  0.00  0.00    +0.000 A 
ATOM     12  C   UNL     1       4.824   4.159  16.237  0.00  0.00    +0.000 A 
ATOM     13  C   UNL     1       3.770   4.214  17.162  0.00  0.00    +0.000 A 
ATOM     14  C   UNL     1       3.421   5.462  17.705  0.00  0.00    +0.000 A 
ATOM     15  C   UNL     1       4.110   6.619  17.346  0.00  0.00    +0.000 A 
ENDBRANCH   1  13
TORSDOF 1
ENDMDL
MODEL 4
REMARK VINA RESULT:      -6.4      2.431      5.053
REMARK  Name = 
REMARK  1 active torsions:
REMARK  status: ('A' for Active; 'I' for Inactive)
REMARK    1  A    between atoms: C_4  and  C_5
REMARK                            x       y       z     vdW  Elec       q    Type
REMARK                         _______ _______ _______ _____ _____    ______ ____
ROOT
ATOM      1  C   UNL     1       3.105   2.992  17.561  0.00  0.00    +0.000 C 
ATOM      2  C   UNL     1       3.742   2.341  18.836  0.00  0.00    +0.000 C 
ATOM      3  N   UNL     1       2.871   2.894  19.835  0.00  0.00    +0.000 N 
ATOM      4  C   UNL     1       2.678   2.441  21.191  0.00  0.00    +0.000 C 
ATOM      5  C   UNL     1       1.296   3.082  21.502  0.00  0.00    +0.000 C 
ATOM      6  N   UNL     1       0.722   3.212  20.171  0.00  0.00    +0.000 N 
ATOM      7  C   UNL     1       1.684   3.164  19.216  0.00  0.00    +0.000 C 
ATOM      8  N   UNL     1       1.656   3.271  17.930  0.00  0.00    +0.000 NA
ATOM      9  H   UNL     1      -0.147   3.689  19.983  0.00  0.00    +0.000 HD
ENDROOT
BRANCH   1  13
ATOM     10  C   UNL     1       5.127   6.589  16.249  0.00  0.00    +0.000 A 
ATOM     11  C   UNL     1       4.151   6.653  17.243  0.00  0.00    +0.000 A 
ATOM     12  C   UNL     1       3.524   5.486  17.687  0.00  0.00    +0.000 A 
ATOM     13  C   UNL     1       3.869   4.240  17.143  0.00  0.00    +0.000 A 
ATOM     14  C   UNL     1       4.864   4.194  16.152  0.00  0.00    +0.000 A 
ATOM     15  C   UNL     1       5.487   5.359  15.708  0.00  0.00    +0.000 A 
ENDBRANCH   1  13
TORSDOF 1
ENDMDL
MODEL 5
REMARK VINA RESULT:      -6.4      1.282      1.925
REMARK  Name = 
REMARK  1 active torsions:
REMARK  status: ('A' for Active; 'I' for Inactive)
REMARK    1  A    between atoms: C_4  and  C_5
REMARK                            x       y       z     vdW  Elec       q    Type
REMARK                         _______ _______ _______ _____ _____    ______ ____
ROOT
ATOM      1  C   UNL     1       4.039   6.003  18.820  0.00  0.00    +0.000 C 
ATOM      2  C   UNL     1       5.419   5.305  19.074  0.00  0.00    +0.000 C 
ATOM      3  N   UNL     1       5.759   4.970  17.720  0.00  0.00    +0.000 N 
ATOM      4  C   UNL     1       7.055   4.614  17.193  0.00  0.00    +0.000 C 
ATOM      5  C   UNL     1       6.829   4.911  15.683  0.00  0.00    +0.000 C 
ATOM      6  N   UNL     1       5.767   5.906  15.731  0.00  0.00    +0.000 N 
ATOM      7  C   UNL     1       5.114   5.868  16.918  0.00  0.00    +0.000 C 
ATOM      8  N   UNL     1       4.105   6.520  17.392  0.00  0.00    +0.000 NA
ATOM      9  H   UNL     1       5.296   6.257  14.911  0.00  0.00    +0.000 HD
ENDROOT
BRANCH   1  13
ATOM     10  C   UNL     1       0.889   3.124  19.552  0.00  0.00    +0.000 A 
ATOM     11  C   UNL     1       1.445   3.843  20.609  0.00  0.00    +0.000 A 
ATOM     12  C   UNL     1       2.437   4.795  20.365  0.00  0.00    +0.000 A 
ATOM     13  C   UNL     1       2.885   5.041  19.058  0.00  0.00    +0.000 A 
ATOM     14  C   UNL     1       2.304   4.316  18.005  0.00  0.00    +0.000 A 
ATOM     15  C   UNL     1       1.315   3.365  18.249  0.00  0.00    +0.000 A 
ENDBRANCH   1  13
TORSDOF 1
ENDMDL
MODEL 6
REMARK VINA RESULT:      -6.4      1.275      1.526
REMARK  Name = 
REMARK  1 active torsions:
REMARK  status: ('A' for Active; 'I' for Inactive)
REMARK    1  A    between atoms: C_4  and  C_5
REMARK                            x       y       z     vdW  Elec       q    Type
REMARK                         _______ _______ _______ _____ _____    ______ ____
ROOT
ATOM      1  C   UNL     1       4.128   5.870  18.829  0.00  0.00    +0.000 C 
ATOM      2  C   UNL     1       5.546   5.237  19.043  0.00  0.00    +0.000 C 
ATOM      3  N   UNL     1       5.858   4.909  17.680  0.00  0.00    +0.000 N 
ATOM      4  C   UNL     1       7.152   4.609  17.116  0.00  0.00    +0.000 C 
ATOM      5  C   UNL     1       6.866   4.885  15.612  0.00  0.00    +0.000 C 
ATOM      6  N   UNL     1       5.761   5.830  15.687  0.00  0.00    +0.000 N 
ATOM      7  C   UNL     1       5.148   5.770  16.895  0.00  0.00    +0.000 C 
ATOM      8  N   UNL     1       4.125   6.379  17.396  0.00  0.00    +0.000 NA
ATOM      9  H   UNL     1       5.249   6.154  14.881  0.00  0.00    +0.000 HD
ENDROOT
BRANCH   1  13
ATOM     10  C   UNL     1       0.861   3.130  19.584  0.00  0.00    +0.000 A 
ATOM     11  C   UNL     1       1.298   3.363  18.280  0.00  0.00    +0.000 A 
ATOM     12  C   UNL     1       2.373   4.222  18.043  0.00  0.00    +0.000 A 
ATOM     13  C   UNL     1       3.028   4.857  19.109  0.00  0.00    +0.000 A 
ATOM     14  C   UNL     1       2.582   4.600  20.416  0.00  0.00    +0.000 A 
ATOM     15  C   UNL     1       1.508   3.745  20.653  0.00  0.00    +0.000 A 
ENDBRANCH   1  13
TORSDOF 1
ENDMDL
MODEL 7
REMARK VINA RESULT:      -6.2      2.047      5.124
REMARK  Name = 
REMARK  1 active torsions:
REMARK  status: ('A' for Active; 'I' for Inactive)
REMARK    1  A    between atoms: C_4  and  C_5
REMARK                            x       y       z     vdW  Elec       q    Type
REMARK                         _______ _______ _______ _____ _____    ______ ____
ROOT
ATOM      1  C   UNL     1       4.638   3.563  18.648  0.00  0.00    +0.000 C 
ATOM      2  C   UNL     1       3.643   4.284  19.620  0.00  0.00    +0.000 C 
ATOM      3  N   UNL     1       2.414   3.696  19.168  0.00  0.00    +0.000 N 
ATOM      4  C   UNL     1       1.145   3.659  19.854  0.00  0.00    +0.000 C 
ATOM      5  C   UNL     1       0.465   2.474  19.110  0.00  0.00    +0.000 C 
ATOM      6  N   UNL     1       1.616   1.717  18.641  0.00  0.00    +0.000 N 
ATOM      7  C   UNL     1       2.733   2.485  18.624  0.00  0.00    +0.000 C 
ATOM      8  N   UNL     1       3.952   2.263  18.259  0.00  0.00    +0.000 NA
ATOM      9  H   UNL     1       1.546   0.921  18.025  0.00  0.00    +0.000 HD
ENDROOT
BRANCH   1  13
ATOM     10  C   UNL     1       5.400   6.083  15.210  0.00  0.00    +0.000 A 
ATOM     11  C   UNL     1       5.020   6.648  16.427  0.00  0.00    +0.000 A 
ATOM     12  C   UNL     1       4.807   5.835  17.543  0.00  0.00    +0.000 A 
ATOM     13  C   UNL     1       4.975   4.445  17.455  0.00  0.00    +0.000 A 
ATOM     14  C   UNL     1       5.371   3.895  16.224  0.00  0.00    +0.000 A 
ATOM     15  C   UNL     1       5.581   4.707  15.111  0.00  0.00    +0.000 A 
ENDBRANCH   1  13
TORSDOF 1
ENDMDL
MODEL 8
REMARK VINA RESULT:      -6.2      1.926      5.185
REMARK  Name = 
REMARK  1 active torsions:
REMARK  status: ('A' for Active; 'I' for Inactive)
REMARK    1  A    between atoms: C_4  and  C_5
REMARK                            x       y       z     vdW  Elec       q    Type
REMARK                         _______ _______ _______ _____ _____    ______ ____
ROOT
ATOM      1  C   UNL     1       3.240   5.498  18.182  0.00  0.00    +0.000 C 
ATOM      2  C   UNL     1       2.163   4.398  17.890  0.00  0.00    +0.000 C 
ATOM      3  N   UNL     1       2.161   3.735  19.164  0.00  0.00    +0.000 N 
ATOM      4  C   UNL     1       1.159   2.846  19.698  0.00  0.00    +0.000 C 
ATOM      5  C   UNL     1       1.488   2.940  21.216  0.00  0.00    +0.000 C 
ATOM      6  N   UNL     1       2.124   4.247  21.301  0.00  0.00    +0.000 N 
ATOM      7  C   UNL     1       2.569   4.655  20.087  0.00  0.00    +0.000 C 
ATOM      8  N   UNL     1       3.212   5.701  19.689  0.00  0.00    +0.000 NA
ATOM      9  H   UNL     1       2.561   4.600  22.139  0.00  0.00    +0.000 HD
ENDROOT
BRANCH   1  13
ATOM     10  C   UNL     1       7.147   4.493  16.609  0.00  0.00    +0.000 A 
ATOM     11  C   UNL     1       7.030   5.197  17.807  0.00  0.00    +0.000 A 
ATOM     12  C   UNL     1       5.768   5.491  18.329  0.00  0.00    +0.000 A 
ATOM     13  C   UNL     1       4.606   5.081  17.658  0.00  0.00    +0.000 A 
ATOM     14  C   UNL     1       4.744   4.361  16.460  0.00  0.00    +0.000 A 
ATOM     15  C   UNL     1       6.003   4.070  15.938  0.00  0.00    +0.000 A 
ENDBRANCH   1  13
TORSDOF 1
ENDMDL
MODEL 9
REMARK VINA RESULT:      -6.2      1.940      4.939
REMARK  Name = 
REMARK  1 active torsions:
REMARK  status: ('A' for Active; 'I' for Inactive)
REMARK    1  A    between atoms: C_4  and  C_5
REMARK                            x       y       z     vdW  Elec       q    Type
REMARK                         _______ _______ _______ _____ _____    ______ ____
ROOT
ATOM      1  C   UNL     1       3.108   5.612  17.837  0.00  0.00    +0.000 C 
ATOM      2  C   UNL     1       2.241   4.308  17.890  0.00  0.00    +0.000 C 
ATOM      3  N   UNL     1       2.446   3.952  19.265  0.00  0.00    +0.000 N 
ATOM      4  C   UNL     1       1.666   3.045  20.072  0.00  0.00    +0.000 C 
ATOM      5  C   UNL     1       2.069   3.526  21.495  0.00  0.00    +0.000 C 
ATOM      6  N   UNL     1       2.452   4.908  21.245  0.00  0.00    +0.000 N 
ATOM      7  C   UNL     1       2.733   5.108  19.933  0.00  0.00    +0.000 C 
ATOM      8  N   UNL     1       3.140   6.135  19.264  0.00  0.00    +0.000 NA
ATOM      9  H   UNL     1       2.868   5.506  21.942  0.00  0.00    +0.000 HD
ENDROOT
BRANCH   1  13
ATOM     10  C   UNL     1       7.065   4.657  16.361  0.00  0.00    +0.000 A 
ATOM     11  C   UNL     1       5.961   3.912  15.949  0.00  0.00    +0.000 A 
ATOM     12  C   UNL     1       4.682   4.243  16.400  0.00  0.00    +0.000 A 
ATOM     13  C   UNL     1       4.491   5.328  17.270  0.00  0.00    +0.000 A 
ATOM     14  C   UNL     1       5.614   6.074  17.664  0.00  0.00    +0.000 A 
ATOM     15  C   UNL     1       6.890   5.742  17.215  0.00  0.00    +0.000 A 
ENDBRANCH   1  13
TORSDOF 1
ENDMDL
