MODEL 1
REMARK VINA RESULT:      -7.8      0.000      0.000
REMARK  Name = 
REMARK  4 active torsions:
REMARK  status: ('A' for Active; 'I' for Inactive)
REMARK    1  A    between atoms: C_1  and  C_2
REMARK    2  A    between atoms: C_5  and  C_7
REMARK    3  A    between atoms: C_7  and  C_8
REMARK    4  A    between atoms: C_15  and  C_16
REMARK                            x       y       z     vdW  Elec       q    Type
REMARK                         _______ _______ _______ _____ _____    ______ ____
ROOT
ATOM      1  C   UNL     1       7.002   7.333  17.962  0.00  0.00    +0.000 C 
ATOM      2  C   UNL     1       7.444   5.874  17.883  0.00  0.00    +0.000 C 
ATOM      3  C   UNL     1       6.550   4.936  18.715  0.00  0.00    +0.000 C 
ATOM      4  N   UNL     1       5.253   4.733  18.066  0.00  0.00    +0.000 N 
ATOM      5  C   UNL     1       4.094   5.176  18.683  0.00  0.00    +0.000 C 
ATOM      6  O   UNL     1       4.122   5.753  19.768  0.00  0.00    +0.000 OA
ATOM      7  C   UNL     1       5.372   4.280  16.681  0.00  0.00    +0.000 C 
ATOM      8  C   UNL     1       6.269   5.245  15.875  0.00  0.00    +0.000 C 
ATOM      9  O   UNL     1       7.547   5.422  16.516  0.00  0.00    +0.000 OA
ENDROOT
BRANCH   8  10
ATOM     10  C   UNL     1       6.516   4.738  14.468  0.00  0.00    +0.000 A 
ATOM     11  C   UNL     1       7.560   5.278  13.699  0.00  0.00    +0.000 A 
ATOM     12  C   UNL     1       7.808   4.805  12.410  0.00  0.00    +0.000 A 
ATOM     13  C   UNL     1       7.012   3.796  11.884  0.00  0.00    +0.000 A 
ATOM     14  F   UNL     1       7.258   3.335  10.651  0.00  0.00    +0.000 F 
ATOM     15  C   UNL     1       5.969   3.251  12.623  0.00  0.00    +0.000 A 
ATOM     16  C   UNL     1       5.725   3.716  13.915  0.00  0.00    +0.000 A 
ENDBRANCH   8  10
BRANCH   5  17
ATOM     17  C   UNL     1       2.767   4.905  18.007  0.00  0.00    +0.000 C 
BRANCH  17  18
ATOM     18  C   UNL     1       2.242   3.520  18.372  0.00  0.00    +0.000 C 
ATOM     19  O   UNL     1       3.157   2.710  19.118  0.00  0.00    +0.000 OA
ATOM     20  C   UNL     1       3.067   2.760  20.536  0.00  0.00    +0.000 C 
ATOM     21  C   UNL     1       1.640   2.813  21.042  0.00  0.00    +0.000 C 
ATOM     22  C   UNL     1       0.945   3.943  20.320  0.00  0.00    +0.000 C 
ATOM     23  O   UNL     1       0.934   3.620  18.940  0.00  0.00    +0.000 OA
ENDBRANCH  17  18
ENDBRANCH   5  17
TORSDOF 3
ENDMDL
MODEL 2
REMARK VINA RESULT:      -7.8      0.258      1.041
REMARK  Name = 
REMARK  4 active torsions:
REMARK  status: ('A' for Active; 'I' for Inactive)
REMARK    1  A    between atoms: C_1  and  C_2
REMARK    2  A    between atoms: C_5  and  C_7
REMARK    3  A    between atoms: C_7  and  C_8
REMARK    4  A    between atoms: C_15  and  C_16
REMARK                            x       y       z     vdW  Elec       q    Type
REMARK                         _______ _______ _______ _____ _____    ______ ____
ROOT
ATOM      1  C   UNL     1       6.753   7.607  17.740  0.00  0.00    +0.000 C 
ATOM      2  C   UNL     1       7.356   6.204  17.740  0.00  0.00    +0.000 C 
ATOM      3  C   UNL     1       6.588   5.228  18.651  0.00  0.00    +0.000 C 
ATOM      4  N   UNL     1       5.311   4.840  18.047  0.00  0.00    +0.000 N 
ATOM      5  C   UNL     1       4.121   5.190  18.664  0.00  0.00    +0.000 C 
ATOM      6  O   UNL     1       4.101   5.835  19.710  0.00  0.00    +0.000 OA
ATOM      7  C   UNL     1       5.457   4.315  16.690  0.00  0.00    +0.000 C 
ATOM      8  C   UNL     1       6.225   5.321  15.805  0.00  0.00    +0.000 C 
ATOM      9  O   UNL     1       7.486   5.680  16.403  0.00  0.00    +0.000 OA
ENDROOT
BRANCH   8  10
ATOM     10  C   UNL     1       6.504   4.755  14.426  0.00  0.00    +0.000 A 
ATOM     11  C   UNL     1       5.678   3.746  13.901  0.00  0.00    +0.000 A 
ATOM     12  C   UNL     1       5.915   3.231  12.626  0.00  0.00    +0.000 A 
ATOM     13  C   UNL     1       6.976   3.719  11.874  0.00  0.00    +0.000 A 
ATOM     14  F   UNL     1       7.194   3.231  10.646  0.00  0.00    +0.000 F 
ATOM     15  C   UNL     1       7.810   4.711  12.375  0.00  0.00    +0.000 A 
ATOM     16  C   UNL     1       7.571   5.233  13.646  0.00  0.00    +0.000 A 
ENDBRANCH   8  10
BRANCH   5  17
ATOM     17  C   UNL     1       2.821   4.729  18.038  0.00  0.00    +0.000 C 
BRANCH  17  18
ATOM     18  C   UNL     1       2.484   3.305  18.468  0.00  0.00    +0.000 C 
ATOM     19  O   UNL     1       3.344   2.764  19.476  0.00  0.00    +0.000 OA
ATOM     20  C   UNL     1       2.941   2.921  20.830  0.00  0.00    +0.000 C 
ATOM     21  C   UNL     1       1.452   2.731  21.036  0.00  0.00    +0.000 C 
ATOM     22  C   UNL     1       0.741   3.630  20.053  0.00  0.00    +0.000 C 
ATOM     23  O   UNL     1       1.087   3.191  18.751  0.00  0.00    +0.000 OA
ENDBRANCH  17  18
ENDBRANCH   5  17
TORSDOF 3
ENDMDL
MODEL 3
REMARK VINA RESULT:      -7.8      3.877      5.904
REMARK  Name = 
REMARK  4 active torsions:
REMARK  status: ('A' for Active; 'I' for Inactive)
REMARK    1  A    between atoms: C_1  and  C_2
REMARK    2  A    between atoms: C_5  and  C_7
REMARK    3  A    between atoms: C_7  and  C_8
REMARK    4  A    between atoms: C_15  and  C_16
REMARK                            x       y       z     vdW  Elec       q    Type
REMARK                         _______ _______ _______ _____ _____    ______ ____
ROOT
ATOM      1  C   UNL     1       5.960   4.896  18.895  0.00  0.00    +0.000 C 
ATOM      2  C   UNL     1       5.397   5.581  17.654  0.00  0.00    +0.000 C 
ATOM      3  C   UNL     1       4.699   4.596  16.696  0.00  0.00    +0.000 C 
ATOM      4  N   UNL     1       3.404   4.172  17.232  0.00  0.00    +0.000 N 
ATOM      5  C   UNL     1       3.196   2.843  17.565  0.00  0.00    +0.000 C 
ATOM      6  O   UNL     1       4.080   1.999  17.436  0.00  0.00    +0.000 OA
ATOM      7  C   UNL     1       2.535   5.294  17.583  0.00  0.00    +0.000 C 
ATOM      8  C   UNL     1       3.263   6.257  18.547  0.00  0.00    +0.000 C 
ATOM      9  O   UNL     1       4.527   6.680  17.999  0.00  0.00    +0.000 OA
ENDROOT
BRANCH   8  10
ATOM     10  C   UNL     1       2.437   7.496  18.831  0.00  0.00    +0.000 A 
ATOM     11  C   UNL     1       2.199   8.431  17.811  0.00  0.00    +0.000 A 
ATOM     12  C   UNL     1       1.424   9.566  18.058  0.00  0.00    +0.000 A 
ATOM     13  C   UNL     1       0.889   9.770  19.323  0.00  0.00    +0.000 A 
ATOM     14  F   UNL     1       0.137  10.853  19.555  0.00  0.00    +0.000 F 
ATOM     15  C   UNL     1       1.117   8.862  20.350  0.00  0.00    +0.000 A 
ATOM     16  C   UNL     1       1.885   7.724  20.104  0.00  0.00    +0.000 A 
ENDBRANCH   8  10
BRANCH   5  17
ATOM     17  C   UNL     1       1.829   2.431  18.069  0.00  0.00    +0.000 C 
BRANCH  17  18
ATOM     18  C   UNL     1       1.873   2.105  19.558  0.00  0.00    +0.000 C 
ATOM     19  O   UNL     1       3.141   2.325  20.183  0.00  0.00    +0.000 OA
ATOM     20  C   UNL     1       3.361   3.593  20.786  0.00  0.00    +0.000 C 
ATOM     21  C   UNL     1       2.144   4.125  21.517  0.00  0.00    +0.000 C 
ATOM     22  C   UNL     1       0.980   4.070  20.556  0.00  0.00    +0.000 C 
ATOM     23  O   UNL     1       0.764   2.708  20.230  0.00  0.00    +0.000 OA
ENDBRANCH  17  18
ENDBRANCH   5  17
TORSDOF 3
ENDMDL
MODEL 4
REMARK VINA RESULT:      -7.7      3.900      5.984
REMARK  Name = 
REMARK  4 active torsions:
REMARK  status: ('A' for Active; 'I' for Inactive)
REMARK    1  A    between atoms: C_1  and  C_2
REMARK    2  A    between atoms: C_5  and  C_7
REMARK    3  A    between atoms: C_7  and  C_8
REMARK    4  A    between atoms: C_15  and  C_16
REMARK                            x       y       z     vdW  Elec       q    Type
REMARK                         _______ _______ _______ _____ _____    ______ ____
ROOT
ATOM      1  C   UNL     1       5.962   5.083  19.018  0.00  0.00    +0.000 C 
ATOM      2  C   UNL     1       5.427   5.779  17.770  0.00  0.00    +0.000 C 
ATOM      3  C   UNL     1       4.804   4.795  16.761  0.00  0.00    +0.000 C 
ATOM      4  N   UNL     1       3.504   4.314  17.231  0.00  0.00    +0.000 N 
ATOM      5  C   UNL     1       3.329   2.971  17.523  0.00  0.00    +0.000 C 
ATOM      6  O   UNL     1       4.247   2.161  17.412  0.00  0.00    +0.000 OA
ATOM      7  C   UNL     1       2.582   5.397  17.571  0.00  0.00    +0.000 C 
ATOM      8  C   UNL     1       3.236   6.359  18.587  0.00  0.00    +0.000 C 
ATOM      9  O   UNL     1       4.506   6.838  18.104  0.00  0.00    +0.000 OA
ENDROOT
BRANCH   8  10
ATOM     10  C   UNL     1       2.356   7.562  18.866  0.00  0.00    +0.000 A 
ATOM     11  C   UNL     1       1.843   7.773  20.157  0.00  0.00    +0.000 A 
ATOM     12  C   UNL     1       1.047   8.887  20.428  0.00  0.00    +0.000 A 
ATOM     13  C   UNL     1       0.758   9.789  19.412  0.00  0.00    +0.000 A 
ATOM     14  F   UNL     1       0.004  10.863  19.678  0.00  0.00    +0.000 F 
ATOM     15  C   UNL     1       1.249   9.598  18.127  0.00  0.00    +0.000 A 
ATOM     16  C   UNL     1       2.051   8.489  17.855  0.00  0.00    +0.000 A 
ENDBRANCH   8  10
BRANCH   5  17
ATOM     17  C   UNL     1       1.957   2.500  17.959  0.00  0.00    +0.000 C 
BRANCH  17  18
ATOM     18  C   UNL     1       1.963   2.089  19.427  0.00  0.00    +0.000 C 
ATOM     19  O   UNL     1       3.197   2.330  20.112  0.00  0.00    +0.000 OA
ATOM     20  C   UNL     1       3.334   3.568  20.795  0.00  0.00    +0.000 C 
ATOM     21  C   UNL     1       2.069   4.001  21.507  0.00  0.00    +0.000 C 
ATOM     22  C   UNL     1       0.944   3.951  20.501  0.00  0.00    +0.000 C 
ATOM     23  O   UNL     1       0.804   2.602  20.090  0.00  0.00    +0.000 OA
ENDBRANCH  17  18
ENDBRANCH   5  17
TORSDOF 3
ENDMDL
MODEL 5
REMARK VINA RESULT:      -7.6      4.120      7.577
REMARK  Name = 
REMARK  4 active torsions:
REMARK  status: ('A' for Active; 'I' for Inactive)
REMARK    1  A    between atoms: C_1  and  C_2
REMARK    2  A    between atoms: C_5  and  C_7
REMARK    3  A    between atoms: C_7  and  C_8
REMARK    4  A    between atoms: C_15  and  C_16
REMARK                            x       y       z     vdW  Elec       q    Type
REMARK                         _______ _______ _______ _____ _____    ______ ____
ROOT
ATOM      1  C   UNL     1       0.869   3.343  19.635  0.00  0.00    +0.000 C 
ATOM      2  C   UNL     1       1.697   4.017  20.726  0.00  0.00    +0.000 C 
ATOM      3  C   UNL     1       3.208   3.760  20.570  0.00  0.00    +0.000 C 
ATOM      4  N   UNL     1       3.762   4.539  19.461  0.00  0.00    +0.000 N 
ATOM      5  C   UNL     1       4.289   3.890  18.356  0.00  0.00    +0.000 C 
ATOM      6  O   UNL     1       4.294   2.664  18.269  0.00  0.00    +0.000 OA
ATOM      7  C   UNL     1       3.463   5.967  19.560  0.00  0.00    +0.000 C 
ATOM      8  C   UNL     1       1.941   6.188  19.709  0.00  0.00    +0.000 C 
ATOM      9  O   UNL     1       1.413   5.429  20.814  0.00  0.00    +0.000 OA
ENDROOT
BRANCH   8  10
ATOM     10  C   UNL     1       1.608   7.649  19.941  0.00  0.00    +0.000 A 
ATOM     11  C   UNL     1       1.660   8.559  18.872  0.00  0.00    +0.000 A 
ATOM     12  C   UNL     1       1.337   9.902  19.071  0.00  0.00    +0.000 A 
ATOM     13  C   UNL     1       0.965  10.340  20.335  0.00  0.00    +0.000 A 
ATOM     14  F   UNL     1       0.644  11.626  20.521  0.00  0.00    +0.000 F 
ATOM     15  C   UNL     1       0.912   9.459  21.409  0.00  0.00    +0.000 A 
ATOM     16  C   UNL     1       1.228   8.115  21.211  0.00  0.00    +0.000 A 
ENDBRANCH   8  10
BRANCH   5  17
ATOM     17  C   UNL     1       4.898   4.726  17.251  0.00  0.00    +0.000 C 
BRANCH  17  18
ATOM     18  C   UNL     1       6.420   4.625  17.267  0.00  0.00    +0.000 C 
ATOM     19  O   UNL     1       7.097   5.663  16.551  0.00  0.00    +0.000 OA
ATOM     20  C   UNL     1       7.491   6.814  17.286  0.00  0.00    +0.000 C 
ATOM     21  C   UNL     1       8.020   6.487  18.668  0.00  0.00    +0.000 C 
ATOM     22  C   UNL     1       6.994   5.616  19.352  0.00  0.00    +0.000 C 
ATOM     23  O   UNL     1       6.888   4.418  18.602  0.00  0.00    +0.000 OA
ENDBRANCH  17  18
ENDBRANCH   5  17
TORSDOF 3
ENDMDL
MODEL 6
REMARK VINA RESULT:      -7.5      3.832      7.148
REMARK  Name = 
REMARK  4 active torsions:
REMARK  status: ('A' for Active; 'I' for Inactive)
REMARK    1  A    between atoms: C_1  and  C_2
REMARK    2  A    between atoms: C_5  and  C_7
REMARK    3  A    between atoms: C_7  and  C_8
REMARK    4  A    between atoms: C_15  and  C_16
REMARK                            x       y       z     vdW  Elec       q    Type
REMARK                         _______ _______ _______ _____ _____    ______ ____
ROOT
ATOM      1  C   UNL     1       0.789   3.073  19.529  0.00  0.00    +0.000 C 
ATOM      2  C   UNL     1       1.314   3.890  20.707  0.00  0.00    +0.000 C 
ATOM      3  C   UNL     1       2.767   3.536  21.075  0.00  0.00    +0.000 C 
ATOM      4  N   UNL     1       3.706   4.076  20.090  0.00  0.00    +0.000 N 
ATOM      5  C   UNL     1       4.472   3.216  19.321  0.00  0.00    +0.000 C 
ATOM      6  O   UNL     1       4.378   1.995  19.432  0.00  0.00    +0.000 OA
ATOM      7  C   UNL     1       3.537   5.512  19.868  0.00  0.00    +0.000 C 
ATOM      8  C   UNL     1       2.073   5.830  19.495  0.00  0.00    +0.000 C 
ATOM      9  O   UNL     1       1.161   5.307  20.482  0.00  0.00    +0.000 OA
ENDROOT
BRANCH   8  10
ATOM     10  C   UNL     1       1.835   7.323  19.381  0.00  0.00    +0.000 A 
ATOM     11  C   UNL     1       2.081   7.982  18.165  0.00  0.00    +0.000 A 
ATOM     12  C   UNL     1       1.848   9.353  18.044  0.00  0.00    +0.000 A 
ATOM     13  C   UNL     1       1.373  10.068  19.136  0.00  0.00    +0.000 A 
ATOM     14  F   UNL     1       1.139  11.381  19.014  0.00  0.00    +0.000 F 
ATOM     15  C   UNL     1       1.129   9.439  20.350  0.00  0.00    +0.000 A 
ATOM     16  C   UNL     1       1.354   8.068  20.472  0.00  0.00    +0.000 A 
ENDBRANCH   8  10
BRANCH   5  17
ATOM     17  C   UNL     1       5.468   3.810  18.349  0.00  0.00    +0.000 C 
BRANCH  17  18
ATOM     18  C   UNL     1       4.863   3.929  16.954  0.00  0.00    +0.000 C 
ATOM     19  O   UNL     1       4.295   5.208  16.654  0.00  0.00    +0.000 OA
ATOM     20  C   UNL     1       5.134   6.162  16.016  0.00  0.00    +0.000 C 
ATOM     21  C   UNL     1       6.032   5.554  14.958  0.00  0.00    +0.000 C 
ATOM     22  C   UNL     1       6.758   4.391  15.593  0.00  0.00    +0.000 C 
ATOM     23  O   UNL     1       5.780   3.439  15.973  0.00  0.00    +0.000 OA
ENDBRANCH  17  18
ENDBRANCH   5  17
TORSDOF 3
ENDMDL
MODEL 7
REMARK VINA RESULT:      -7.5      3.849      7.145
REMARK  Name = 
REMARK  4 active torsions:
REMARK  status: ('A' for Active; 'I' for Inactive)
REMARK    1  A    between atoms: C_1  and  C_2
REMARK    2  A    between atoms: C_5  and  C_7
REMARK    3  A    between atoms: C_7  and  C_8
REMARK    4  A    between atoms: C_15  and  C_16
REMARK                            x       y       z     vdW  Elec       q    Type
REMARK                         _______ _______ _______ _____ _____    ______ ____
ROOT
ATOM      1  C   UNL     1       0.828   3.185  19.596  0.00  0.00    +0.000 C 
ATOM      2  C   UNL     1       1.358   4.051  20.735  0.00  0.00    +0.000 C 
ATOM      3  C   UNL     1       2.817   3.723  21.103  0.00  0.00    +0.000 C 
ATOM      4  N   UNL     1       3.742   4.232  20.087  0.00  0.00    +0.000 N 
ATOM      5  C   UNL     1       4.507   3.348  19.345  0.00  0.00    +0.000 C 
ATOM      6  O   UNL     1       4.425   2.131  19.504  0.00  0.00    +0.000 OA
ATOM      7  C   UNL     1       3.560   5.656  19.811  0.00  0.00    +0.000 C 
ATOM      8  C   UNL     1       2.089   5.948  19.441  0.00  0.00    +0.000 C 
ATOM      9  O   UNL     1       1.192   5.457  20.457  0.00  0.00    +0.000 OA
ENDROOT
BRANCH   8  10
ATOM     10  C   UNL     1       1.838   7.433  19.271  0.00  0.00    +0.000 A 
ATOM     11  C   UNL     1       1.317   8.184  20.338  0.00  0.00    +0.000 A 
ATOM     12  C   UNL     1       1.099   9.556  20.198  0.00  0.00    +0.000 A 
ATOM     13  C   UNL     1       1.398  10.179  18.993  0.00  0.00    +0.000 A 
ATOM     14  F   UNL     1       1.200  11.497  18.864  0.00  0.00    +0.000 F 
ATOM     15  C   UNL     1       1.908   9.456  17.922  0.00  0.00    +0.000 A 
ATOM     16  C   UNL     1       2.133   8.086  18.062  0.00  0.00    +0.000 A 
ENDBRANCH   8  10
BRANCH   5  17
ATOM     17  C   UNL     1       5.489   3.911  18.339  0.00  0.00    +0.000 C 
BRANCH  17  18
ATOM     18  C   UNL     1       4.868   3.973  16.947  0.00  0.00    +0.000 C 
ATOM     19  O   UNL     1       4.348   5.254  16.579  0.00  0.00    +0.000 OA
ATOM     20  C   UNL     1       5.215   6.133  15.876  0.00  0.00    +0.000 C 
ATOM     21  C   UNL     1       6.071   5.428  14.844  0.00  0.00    +0.000 C 
ATOM     22  C   UNL     1       6.759   4.276  15.537  0.00  0.00    +0.000 C 
ATOM     23  O   UNL     1       5.749   3.388  15.986  0.00  0.00    +0.000 OA
ENDBRANCH  17  18
ENDBRANCH   5  17
TORSDOF 3
ENDMDL
MODEL 8
REMARK VINA RESULT:      -7.4      4.089      7.424
REMARK  Name = 
REMARK  4 active torsions:
REMARK  status: ('A' for Active; 'I' for Inactive)
REMARK    1  A    between atoms: C_1  and  C_2
REMARK    2  A    between atoms: C_5  and  C_7
REMARK    3  A    between atoms: C_7  and  C_8
REMARK    4  A    between atoms: C_15  and  C_16
REMARK                            x       y       z     vdW  Elec       q    Type
REMARK                         _______ _______ _______ _____ _____    ______ ____
ROOT
ATOM      1  C   UNL     1       0.934   3.604  19.767  0.00  0.00    +0.000 C 
ATOM      2  C   UNL     1       1.767   4.418  20.753  0.00  0.00    +0.000 C 
ATOM      3  C   UNL     1       3.277   4.143  20.626  0.00  0.00    +0.000 C 
ATOM      4  N   UNL     1       3.825   4.767  19.419  0.00  0.00    +0.000 N 
ATOM      5  C   UNL     1       4.347   3.977  18.408  0.00  0.00    +0.000 C 
ATOM      6  O   UNL     1       4.353   2.751  18.487  0.00  0.00    +0.000 OA
ATOM      7  C   UNL     1       3.524   6.196  19.329  0.00  0.00    +0.000 C 
ATOM      8  C   UNL     1       2.003   6.434  19.455  0.00  0.00    +0.000 C 
ATOM      9  O   UNL     1       1.481   5.829  20.654  0.00  0.00    +0.000 OA
ENDROOT
BRANCH   8  10
ATOM     10  C   UNL     1       1.668   7.912  19.490  0.00  0.00    +0.000 A 
ATOM     11  C   UNL     1       1.215   8.501  20.683  0.00  0.00    +0.000 A 
ATOM     12  C   UNL     1       0.922   9.865  20.731  0.00  0.00    +0.000 A 
ATOM     13  C   UNL     1       1.077  10.642  19.590  0.00  0.00    +0.000 A 
ATOM     14  F   UNL     1       0.807  11.952  19.642  0.00  0.00    +0.000 F 
ATOM     15  C   UNL     1       1.518  10.080  18.398  0.00  0.00    +0.000 A 
ATOM     16  C   UNL     1       1.819   8.719  18.349  0.00  0.00    +0.000 A 
ENDBRANCH   8  10
BRANCH   5  17
ATOM     17  C   UNL     1       4.950   4.658  17.198  0.00  0.00    +0.000 C 
BRANCH  17  18
ATOM     18  C   UNL     1       6.473   4.591  17.238  0.00  0.00    +0.000 C 
ATOM     19  O   UNL     1       7.138   5.635  16.519  0.00  0.00    +0.000 OA
ATOM     20  C   UNL     1       7.496   6.803  17.247  0.00  0.00    +0.000 C 
ATOM     21  C   UNL     1       8.012   6.503  18.639  0.00  0.00    +0.000 C 
ATOM     22  C   UNL     1       6.995   5.617  19.319  0.00  0.00    +0.000 C 
ATOM     23  O   UNL     1       6.926   4.409  18.581  0.00  0.00    +0.000 OA
ENDBRANCH  17  18
ENDBRANCH   5  17
TORSDOF 3
ENDMDL
MODEL 9
REMARK VINA RESULT:      -7.4      3.914      7.235
REMARK  Name = 
REMARK  4 active torsions:
REMARK  status: ('A' for Active; 'I' for Inactive)
REMARK    1  A    between atoms: C_1  and  C_2
REMARK    2  A    between atoms: C_5  and  C_7
REMARK    3  A    between atoms: C_7  and  C_8
REMARK    4  A    between atoms: C_15  and  C_16
REMARK                            x       y       z     vdW  Elec       q    Type
REMARK                         _______ _______ _______ _____ _____    ______ ____
ROOT
ATOM      1  C   UNL     1       0.884   3.662  20.233  0.00  0.00    +0.000 C 
ATOM      2  C   UNL     1       1.970   4.512  20.886  0.00  0.00    +0.000 C 
ATOM      3  C   UNL     1       3.390   4.080  20.476  0.00  0.00    +0.000 C 
ATOM      4  N   UNL     1       3.688   4.490  19.102  0.00  0.00    +0.000 N 
ATOM      5  C   UNL     1       3.913   3.531  18.128  0.00  0.00    +0.000 C 
ATOM      6  O   UNL     1       3.859   2.329  18.381  0.00  0.00    +0.000 OA
ATOM      7  C   UNL     1       3.467   5.917  18.871  0.00  0.00    +0.000 C 
ATOM      8  C   UNL     1       2.033   6.313  19.287  0.00  0.00    +0.000 C 
ATOM      9  O   UNL     1       1.761   5.920  20.646  0.00  0.00    +0.000 OA
ENDROOT
BRANCH   8  10
ATOM     10  C   UNL     1       1.811   7.809  19.178  0.00  0.00    +0.000 A 
ATOM     11  C   UNL     1       2.160   8.487  17.998  0.00  0.00    +0.000 A 
ATOM     12  C   UNL     1       1.943   9.861  17.881  0.00  0.00    +0.000 A 
ATOM     13  C   UNL     1       1.382  10.561  18.941  0.00  0.00    +0.000 A 
ATOM     14  F   UNL     1       1.163  11.876  18.823  0.00  0.00    +0.000 F 
ATOM     15  C   UNL     1       1.035   9.913  20.120  0.00  0.00    +0.000 A 
ATOM     16  C   UNL     1       1.244   8.538  20.237  0.00  0.00    +0.000 A 
ENDBRANCH   8  10
BRANCH   5  17
ATOM     17  C   UNL     1       4.267   3.991  16.730  0.00  0.00    +0.000 C 
BRANCH  17  18
ATOM     18  C   UNL     1       5.686   3.571  16.361  0.00  0.00    +0.000 C 
ATOM     19  O   UNL     1       5.924   3.430  14.957  0.00  0.00    +0.000 OA
ATOM     20  C   UNL     1       6.427   4.563  14.262  0.00  0.00    +0.000 C 
ATOM     21  C   UNL     1       7.466   5.333  15.051  0.00  0.00    +0.000 C 
ATOM     22  C   UNL     1       6.876   5.630  16.409  0.00  0.00    +0.000 C 
ATOM     23  O   UNL     1       6.638   4.387  17.048  0.00  0.00    +0.000 OA
ENDBRANCH  17  18
ENDBRANCH   5  17
TORSDOF 3
ENDMDL
