MODEL 1
REMARK VINA RESULT:      -7.2      0.000      0.000
REMARK  Name = 
REMARK  8 active torsions:
REMARK  status: ('A' for Active; 'I' for Inactive)
REMARK    1  A    between atoms: N_5  and  C_6
REMARK    2  A    between atoms: C_13  and  N_14
REMARK    3  A    between atoms: N_14  and  C_15
REMARK    4  A    between atoms: C_17  and  C_18
REMARK    5  A    between atoms: C_18  and  O_19
REMARK    6  A    between atoms: C_20  and  O_21
REMARK    7  A    between atoms: C_22  and  O_23
REMARK    8  A    between atoms: C_24  and  C_25
REMARK                            x       y       z     vdW  Elec       q    Type
REMARK                         _______ _______ _______ _____ _____    ______ ____
ROOT
ATOM      1  O   UNL     1       1.719   9.277  22.799  0.00  0.00    +0.000 OA
ATOM      2  C   UNL     1       0.765   9.824  22.251  0.00  0.00    +0.000 A 
ATOM      3  N   UNL     1      -0.076  10.644  22.963  0.00  0.00    +0.000 N 
ATOM      4  C   UNL     1      -1.099  11.351  22.403  0.00  0.00    +0.000 A 
ATOM      5  N   UNL     1      -1.820  12.166  23.252  0.00  0.00    +0.000 N 
ATOM      6  N   UNL     1      -1.341  11.232  21.140  0.00  0.00    +0.000 NA
ATOM      7  C   UNL     1      -0.623  10.359  20.355  0.00  0.00    +0.000 A 
ATOM      8  C   UNL     1       0.440   9.644  20.817  0.00  0.00    +0.000 A 
ATOM      9  H   UNL     1       0.140  10.739  23.944  0.00  0.00    +0.000 HD
ATOM     10  H   UNL     1      -1.661  11.994  24.238  0.00  0.00    +0.000 HD
ENDROOT
BRANCH   8  11
ATOM     11  C   UNL     1       1.163   8.741  19.954  0.00  0.00    +0.000 A 
ATOM     12  N   UNL     1       1.546   7.508  20.278  0.00  0.00    +0.000 NA
ATOM     13  C   UNL     1       2.438   6.974  19.356  0.00  0.00    +0.000 A 
ATOM     14  C   UNL     1       3.056   5.703  19.422  0.00  0.00    +0.000 A 
ATOM     15  C   UNL     1       3.984   5.318  18.445  0.00  0.00    +0.000 A 
ATOM     16  C   UNL     1       4.305   6.182  17.405  0.00  0.00    +0.000 A 
ATOM     17  C   UNL     1       3.695   7.441  17.310  0.00  0.00    +0.000 A 
ATOM     18  C   UNL     1       2.760   7.819  18.296  0.00  0.00    +0.000 A 
ATOM     19  S   UNL     1       1.860   9.284  18.461  0.00  0.00    +0.000 S 
ENDBRANCH   8  11
BRANCH   5  20
ATOM     20  C   UNL     1      -3.212  12.605  22.997  0.00  0.00    +0.000 C 
ATOM     21  C   UNL     1      -4.065  12.397  24.272  0.00  0.00    +0.000 C 
ATOM     22  C   UNL     1      -5.499  12.913  24.090  0.00  0.00    +0.000 C 
ATOM     23  C   UNL     1      -5.526  14.360  23.600  0.00  0.00    +0.000 C 
ATOM     24  N   UNL     1      -4.752  14.484  22.373  0.00  0.00    +0.000 NA
ATOM     25  C   UNL     1      -3.348  14.083  22.571  0.00  0.00    +0.000 C 
ATOM     26  H   UNL     1      -4.768  15.444  22.021  0.00  0.00    +0.000 HD
ENDBRANCH   5  20
BRANCH   7  27
ATOM     27  N   UNL     1      -1.134  10.094  19.084  0.00  0.00    +0.000 N 
ATOM     28  H   UNL     1      -0.563   9.358  18.669  0.00  0.00    +0.000 HD
BRANCH  27  29
ATOM     29  C   UNL     1      -1.294  11.116  18.037  0.00  0.00    +0.000 C 
ATOM     30  C   UNL     1      -2.090  12.343  18.505  0.00  0.00    +0.000 C 
ATOM     31  C   UNL     1      -3.582  12.000  18.283  0.00  0.00    +0.000 C 
ATOM     32  C   UNL     1      -3.571  10.556  17.779  0.00  0.00    +0.000 C 
ATOM     33  C   UNL     1      -2.243  10.497  16.993  0.00  0.00    +0.000 C 
BRANCH  32  34
ATOM     34  O   UNL     1      -4.688  10.262  16.957  0.00  0.00    +0.000 OA
ATOM     35  H   UNL     1      -4.906  11.088  16.484  0.00  0.00    +0.000 HD
ENDBRANCH  32  34
BRANCH  33  36
ATOM     36  O   UNL     1      -2.258  11.295  15.806  0.00  0.00    +0.000 OA
ATOM     37  H   UNL     1      -3.049  11.854  15.860  0.00  0.00    +0.000 HD
ENDBRANCH  33  36
BRANCH  31  38
ATOM     38  C   UNL     1      -4.423  12.236  19.530  0.00  0.00    +0.000 C 
BRANCH  38  39
ATOM     39  O   UNL     1      -5.042  13.522  19.460  0.00  0.00    +0.000 OA
ATOM     40  H   UNL     1      -5.053  13.891  20.360  0.00  0.00    +0.000 HD
ENDBRANCH  38  39
ENDBRANCH  31  38
ENDBRANCH  27  29
ENDBRANCH   7  27
TORSDOF 8
ENDMDL
MODEL 2
REMARK VINA RESULT:      -7.1      5.882     11.250
REMARK  Name = 
REMARK  8 active torsions:
REMARK  status: ('A' for Active; 'I' for Inactive)
REMARK    1  A    between atoms: N_5  and  C_6
REMARK    2  A    between atoms: C_13  and  N_14
REMARK    3  A    between atoms: N_14  and  C_15
REMARK    4  A    between atoms: C_17  and  C_18
REMARK    5  A    between atoms: C_18  and  O_19
REMARK    6  A    between atoms: C_20  and  O_21
REMARK    7  A    between atoms: C_22  and  O_23
REMARK    8  A    between atoms: C_24  and  C_25
REMARK                            x       y       z     vdW  Elec       q    Type
REMARK                         _______ _______ _______ _____ _____    ______ ____
ROOT
ATOM      1  O   UNL     1       6.042   8.007  16.948  0.00  0.00    +0.000 OA
ATOM      2  C   UNL     1       5.598   6.913  16.607  0.00  0.00    +0.000 A 
ATOM      3  N   UNL     1       6.201   6.193  15.605  0.00  0.00    +0.000 N 
ATOM      4  C   UNL     1       5.817   4.938  15.236  0.00  0.00    +0.000 A 
ATOM      5  N   UNL     1       6.559   4.335  14.241  0.00  0.00    +0.000 N 
ATOM      6  N   UNL     1       4.805   4.382  15.817  0.00  0.00    +0.000 NA
ATOM      7  C   UNL     1       4.068   5.056  16.764  0.00  0.00    +0.000 A 
ATOM      8  C   UNL     1       4.401   6.295  17.223  0.00  0.00    +0.000 A 
ATOM      9  H   UNL     1       7.000   6.635  15.175  0.00  0.00    +0.000 HD
ATOM     10  H   UNL     1       7.173   4.962  13.734  0.00  0.00    +0.000 HD
ENDROOT
BRANCH   8  11
ATOM     11  C   UNL     1       3.596   6.962  18.219  0.00  0.00    +0.000 A 
ATOM     12  N   UNL     1       3.167   6.415  19.354  0.00  0.00    +0.000 NA
ATOM     13  C   UNL     1       2.209   7.198  19.987  0.00  0.00    +0.000 A 
ATOM     14  C   UNL     1       1.531   6.891  21.191  0.00  0.00    +0.000 A 
ATOM     15  C   UNL     1       0.543   7.752  21.684  0.00  0.00    +0.000 A 
ATOM     16  C   UNL     1       0.220   8.914  20.995  0.00  0.00    +0.000 A 
ATOM     17  C   UNL     1       0.887   9.248  19.808  0.00  0.00    +0.000 A 
ATOM     18  C   UNL     1       1.883   8.376  19.320  0.00  0.00    +0.000 A 
ATOM     19  S   UNL     1       2.862   8.501  17.901  0.00  0.00    +0.000 S 
ENDBRANCH   8  11
BRANCH   5  20
ATOM     20  C   UNL     1       6.051   3.252  13.366  0.00  0.00    +0.000 C 
ATOM     21  C   UNL     1       4.845   3.769  12.545  0.00  0.00    +0.000 C 
ATOM     22  C   UNL     1       4.329   2.711  11.560  0.00  0.00    +0.000 C 
ATOM     23  C   UNL     1       5.446   2.165  10.674  0.00  0.00    +0.000 C 
ATOM     24  N   UNL     1       6.528   1.646  11.500  0.00  0.00    +0.000 NA
ATOM     25  C   UNL     1       7.093   2.688  12.376  0.00  0.00    +0.000 C 
ATOM     26  H   UNL     1       7.282   1.263  10.924  0.00  0.00    +0.000 HD
ENDBRANCH   5  20
BRANCH   7  27
ATOM     27  N   UNL     1       2.845   4.490  17.124  0.00  0.00    +0.000 N 
ATOM     28  H   UNL     1       2.572   4.892  18.021  0.00  0.00    +0.000 HD
BRANCH  27  29
ATOM     29  C   UNL     1       2.619   3.042  17.249  0.00  0.00    +0.000 C 
ATOM     30  C   UNL     1       1.531   2.684  18.272  0.00  0.00    +0.000 C 
ATOM     31  C   UNL     1       2.238   2.609  19.646  0.00  0.00    +0.000 C 
ATOM     32  C   UNL     1       3.684   3.013  19.353  0.00  0.00    +0.000 C 
ATOM     33  C   UNL     1       3.887   2.479  17.918  0.00  0.00    +0.000 C 
BRANCH  32  34
ATOM     34  O   UNL     1       4.600   2.439  20.269  0.00  0.00    +0.000 OA
ATOM     35  H   UNL     1       4.135   1.692  20.691  0.00  0.00    +0.000 HD
ENDBRANCH  32  34
BRANCH  33  36
ATOM     36  O   UNL     1       3.889   1.050  17.848  0.00  0.00    +0.000 OA
ATOM     37  H   UNL     1       4.616   0.804  17.254  0.00  0.00    +0.000 HD
ENDBRANCH  33  36
BRANCH  31  38
ATOM     38  C   UNL     1       1.540   3.451  20.705  0.00  0.00    +0.000 C 
BRANCH  38  39
ATOM     39  O   UNL     1       2.160   3.243  21.975  0.00  0.00    +0.000 OA
ATOM     40  H   UNL     1       1.452   3.150  22.635  0.00  0.00    +0.000 HD
ENDBRANCH  38  39
ENDBRANCH  31  38
ENDBRANCH  27  29
ENDBRANCH   7  27
TORSDOF 8
ENDMDL
MODEL 3
REMARK VINA RESULT:      -7.0      1.439      1.836
REMARK  Name = 
REMARK  8 active torsions:
REMARK  status: ('A' for Active; 'I' for Inactive)
REMARK    1  A    between atoms: N_5  and  C_6
REMARK    2  A    between atoms: C_13  and  N_14
REMARK    3  A    between atoms: N_14  and  C_15
REMARK    4  A    between atoms: C_17  and  C_18
REMARK    5  A    between atoms: C_18  and  O_19
REMARK    6  A    between atoms: C_20  and  O_21
REMARK    7  A    between atoms: C_22  and  O_23
REMARK    8  A    between atoms: C_24  and  C_25
REMARK                            x       y       z     vdW  Elec       q    Type
REMARK                         _______ _______ _______ _____ _____    ______ ____
ROOT
ATOM      1  O   UNL     1       0.415  10.020  23.666  0.00  0.00    +0.000 OA
ATOM      2  C   UNL     1      -0.415  10.500  22.898  0.00  0.00    +0.000 A 
ATOM      3  N   UNL     1      -1.466  11.243  23.376  0.00  0.00    +0.000 N 
ATOM      4  C   UNL     1      -2.373  11.877  22.579  0.00  0.00    +0.000 A 
ATOM      5  N   UNL     1      -3.341  12.622  23.220  0.00  0.00    +0.000 N 
ATOM      6  N   UNL     1      -2.287  11.757  21.295  0.00  0.00    +0.000 NA
ATOM      7  C   UNL     1      -1.333  10.953  20.715  0.00  0.00    +0.000 A 
ATOM      8  C   UNL     1      -0.363  10.316  21.429  0.00  0.00    +0.000 A 
ATOM      9  H   UNL     1      -1.506  11.340  24.380  0.00  0.00    +0.000 HD
ATOM     10  H   UNL     1      -3.416  12.448  24.216  0.00  0.00    +0.000 HD
ENDROOT
BRANCH   8  11
ATOM     11  C   UNL     1       0.618   9.483  20.774  0.00  0.00    +0.000 A 
ATOM     12  N   UNL     1       1.164   9.726  19.585  0.00  0.00    +0.000 NA
ATOM     13  C   UNL     1       1.872   8.635  19.098  0.00  0.00    +0.000 A 
ATOM     14  C   UNL     1       2.543   8.553  17.855  0.00  0.00    +0.000 A 
ATOM     15  C   UNL     1       3.172   7.362  17.468  0.00  0.00    +0.000 A 
ATOM     16  C   UNL     1       3.141   6.252  18.303  0.00  0.00    +0.000 A 
ATOM     17  C   UNL     1       2.496   6.312  19.547  0.00  0.00    +0.000 A 
ATOM     18  C   UNL     1       1.868   7.516  19.928  0.00  0.00    +0.000 A 
ATOM     19  S   UNL     1       0.995   7.897  21.370  0.00  0.00    +0.000 S 
ENDBRANCH   8  11
BRANCH   5  20
ATOM     20  C   UNL     1      -4.658  12.957  22.629  0.00  0.00    +0.000 C 
ATOM     21  C   UNL     1      -5.744  12.937  23.732  0.00  0.00    +0.000 C 
ATOM     22  C   UNL     1      -7.116  13.358  23.190  0.00  0.00    +0.000 C 
ATOM     23  C   UNL     1      -7.053  14.697  22.457  0.00  0.00    +0.000 C 
ATOM     24  N   UNL     1      -6.054  14.639  21.399  0.00  0.00    +0.000 NA
ATOM     25  C   UNL     1      -4.714  14.333  21.932  0.00  0.00    +0.000 C 
ATOM     26  H   UNL     1      -6.005  15.523  20.887  0.00  0.00    +0.000 HD
ENDBRANCH   5  20
BRANCH   7  27
ATOM     27  N   UNL     1      -1.495  10.667  19.359  0.00  0.00    +0.000 N 
ATOM     28  H   UNL     1      -0.622  10.260  19.024  0.00  0.00    +0.000 HD
BRANCH  27  29
ATOM     29  C   UNL     1      -1.882  11.668  18.353  0.00  0.00    +0.000 C 
ATOM     30  C   UNL     1      -3.356  12.088  18.453  0.00  0.00    +0.000 C 
ATOM     31  C   UNL     1      -4.156  11.060  17.618  0.00  0.00    +0.000 C 
ATOM     32  C   UNL     1      -3.106  10.049  17.152  0.00  0.00    +0.000 C 
ATOM     33  C   UNL     1      -1.849  10.932  17.000  0.00  0.00    +0.000 C 
BRANCH  32  34
ATOM     34  O   UNL     1      -3.466   9.422  15.933  0.00  0.00    +0.000 OA
ATOM     35  H   UNL     1      -4.429   9.268  15.977  0.00  0.00    +0.000 HD
ENDBRANCH  32  34
BRANCH  33  36
ATOM     36  O   UNL     1      -1.950  11.871  15.925  0.00  0.00    +0.000 OA
ATOM     37  H   UNL     1      -1.344  11.564  15.232  0.00  0.00    +0.000 HD
ENDBRANCH  33  36
BRANCH  31  38
ATOM     38  C   UNL     1      -5.320  10.461  18.395  0.00  0.00    +0.000 C 
BRANCH  38  39
ATOM     39  O   UNL     1      -6.552  10.991  17.904  0.00  0.00    +0.000 OA
ATOM     40  H   UNL     1      -6.336  11.674  17.245  0.00  0.00    +0.000 HD
ENDBRANCH  38  39
ENDBRANCH  31  38
ENDBRANCH  27  29
ENDBRANCH   7  27
TORSDOF 8
ENDMDL
MODEL 4
REMARK VINA RESULT:      -6.9      2.274      7.689
REMARK  Name = 
REMARK  8 active torsions:
REMARK  status: ('A' for Active; 'I' for Inactive)
REMARK    1  A    between atoms: N_5  and  C_6
REMARK    2  A    between atoms: C_13  and  N_14
REMARK    3  A    between atoms: N_14  and  C_15
REMARK    4  A    between atoms: C_17  and  C_18
REMARK    5  A    between atoms: C_18  and  O_19
REMARK    6  A    between atoms: C_20  and  O_21
REMARK    7  A    between atoms: C_22  and  O_23
REMARK    8  A    between atoms: C_24  and  C_25
REMARK                            x       y       z     vdW  Elec       q    Type
REMARK                         _______ _______ _______ _____ _____    ______ ____
ROOT
ATOM      1  O   UNL     1       0.694   9.706  24.354  0.00  0.00    +0.000 OA
ATOM      2  C   UNL     1       0.528   9.491  23.156  0.00  0.00    +0.000 A 
ATOM      3  N   UNL     1       1.256   8.522  22.510  0.00  0.00    +0.000 N 
ATOM      4  C   UNL     1       1.064   8.170  21.207  0.00  0.00    +0.000 A 
ATOM      5  N   UNL     1       1.849   7.143  20.725  0.00  0.00    +0.000 N 
ATOM      6  N   UNL     1       0.180   8.795  20.501  0.00  0.00    +0.000 NA
ATOM      7  C   UNL     1      -0.533   9.851  21.021  0.00  0.00    +0.000 A 
ATOM      8  C   UNL     1      -0.437  10.245  22.321  0.00  0.00    +0.000 A 
ATOM      9  H   UNL     1       1.928   8.033  23.082  0.00  0.00    +0.000 HD
ATOM     10  H   UNL     1       2.636   6.901  21.315  0.00  0.00    +0.000 HD
ENDROOT
BRANCH   8  11
ATOM     11  C   UNL     1      -1.207  11.359  22.822  0.00  0.00    +0.000 A 
ATOM     12  N   UNL     1      -2.460  11.291  23.266  0.00  0.00    +0.000 NA
ATOM     13  C   UNL     1      -3.026  12.548  23.439  0.00  0.00    +0.000 A 
ATOM     14  C   UNL     1      -4.346  12.825  23.867  0.00  0.00    +0.000 A 
ATOM     15  C   UNL     1      -4.801  14.148  23.942  0.00  0.00    +0.000 A 
ATOM     16  C   UNL     1      -3.959  15.198  23.597  0.00  0.00    +0.000 A 
ATOM     17  C   UNL     1      -2.642  14.950  23.184  0.00  0.00    +0.000 A 
ATOM     18  C   UNL     1      -2.192  13.615  23.114  0.00  0.00    +0.000 A 
ATOM     19  S   UNL     1      -0.652  12.992  22.640  0.00  0.00    +0.000 S 
ENDBRANCH   8  11
BRANCH   5  20
ATOM     20  C   UNL     1       2.167   6.944  19.291  0.00  0.00    +0.000 C 
ATOM     21  C   UNL     1       2.722   8.260  18.694  0.00  0.00    +0.000 C 
ATOM     22  C   UNL     1       3.147   8.088  17.229  0.00  0.00    +0.000 C 
ATOM     23  C   UNL     1       4.107   6.915  17.048  0.00  0.00    +0.000 C 
ATOM     24  N   UNL     1       3.511   5.697  17.580  0.00  0.00    +0.000 NA
ATOM     25  C   UNL     1       3.194   5.826  19.013  0.00  0.00    +0.000 C 
ATOM     26  H   UNL     1       4.134   4.895  17.456  0.00  0.00    +0.000 HD
ENDBRANCH   5  20
BRANCH   7  27
ATOM     27  N   UNL     1      -1.248  10.632  20.113  0.00  0.00    +0.000 N 
ATOM     28  H   UNL     1      -2.190  10.247  20.050  0.00  0.00    +0.000 HD
BRANCH  27  29
ATOM     29  C   UNL     1      -0.820  10.872  18.726  0.00  0.00    +0.000 C 
ATOM     30  C   UNL     1       0.672  11.217  18.604  0.00  0.00    +0.000 C 
ATOM     31  C   UNL     1       0.781  12.745  18.815  0.00  0.00    +0.000 C 
ATOM     32  C   UNL     1      -0.648  13.188  19.135  0.00  0.00    +0.000 C 
ATOM     33  C   UNL     1      -1.490  12.194  18.306  0.00  0.00    +0.000 C 
BRANCH  32  34
ATOM     34  O   UNL     1      -0.892  14.533  18.759  0.00  0.00    +0.000 OA
ATOM     35  H   UNL     1      -1.686  14.520  18.191  0.00  0.00    +0.000 HD
ENDBRANCH  32  34
BRANCH  33  36
ATOM     36  O   UNL     1      -1.358  12.388  16.895  0.00  0.00    +0.000 OA
ATOM     37  H   UNL     1      -0.635  13.023  16.770  0.00  0.00    +0.000 HD
ENDBRANCH  33  36
BRANCH  31  38
ATOM     38  C   UNL     1       1.816  13.113  19.868  0.00  0.00    +0.000 C 
BRANCH  38  39
ATOM     39  O   UNL     1       1.938  14.534  19.951  0.00  0.00    +0.000 OA
ATOM     40  H   UNL     1       2.862  14.736  20.180  0.00  0.00    +0.000 HD
ENDBRANCH  38  39
ENDBRANCH  31  38
ENDBRANCH  27  29
ENDBRANCH   7  27
TORSDOF 8
ENDMDL
MODEL 5
REMARK VINA RESULT:      -6.9      2.240      7.500
REMARK  Name = 
REMARK  8 active torsions:
REMARK  status: ('A' for Active; 'I' for Inactive)
REMARK    1  A    between atoms: N_5  and  C_6
REMARK    2  A    between atoms: C_13  and  N_14
REMARK    3  A    between atoms: N_14  and  C_15
REMARK    4  A    between atoms: C_17  and  C_18
REMARK    5  A    between atoms: C_18  and  O_19
REMARK    6  A    between atoms: C_20  and  O_21
REMARK    7  A    between atoms: C_22  and  O_23
REMARK    8  A    between atoms: C_24  and  C_25
REMARK                            x       y       z     vdW  Elec       q    Type
REMARK                         _______ _______ _______ _____ _____    ______ ____
ROOT
ATOM      1  O   UNL     1       1.684   9.778  23.700  0.00  0.00    +0.000 OA
ATOM      2  C   UNL     1       1.290   9.303  22.638  0.00  0.00    +0.000 A 
ATOM      3  N   UNL     1       1.853   8.158  22.130  0.00  0.00    +0.000 N 
ATOM      4  C   UNL     1       1.409   7.529  21.005  0.00  0.00    +0.000 A 
ATOM      5  N   UNL     1       2.056   6.360  20.658  0.00  0.00    +0.000 N 
ATOM      6  N   UNL     1       0.430   8.038  20.333  0.00  0.00    +0.000 NA
ATOM      7  C   UNL     1      -0.139   9.237  20.697  0.00  0.00    +0.000 A 
ATOM      8  C   UNL     1       0.211   9.914  21.826  0.00  0.00    +0.000 A 
ATOM      9  H   UNL     1       2.604   7.765  22.678  0.00  0.00    +0.000 HD
ATOM     10  H   UNL     1       2.931   6.203  21.143  0.00  0.00    +0.000 HD
ENDROOT
BRANCH   8  11
ATOM     11  C   UNL     1      -0.415  11.169  22.167  0.00  0.00    +0.000 A 
ATOM     12  N   UNL     1       0.094  12.374  21.922  0.00  0.00    +0.000 NA
ATOM     13  C   UNL     1      -0.597  13.382  22.584  0.00  0.00    +0.000 A 
ATOM     14  C   UNL     1      -0.296  14.764  22.562  0.00  0.00    +0.000 A 
ATOM     15  C   UNL     1      -1.049  15.664  23.328  0.00  0.00    +0.000 A 
ATOM     16  C   UNL     1      -2.097  15.204  24.116  0.00  0.00    +0.000 A 
ATOM     17  C   UNL     1      -2.425  13.841  24.144  0.00  0.00    +0.000 A 
ATOM     18  C   UNL     1      -1.662  12.944  23.367  0.00  0.00    +0.000 A 
ATOM     19  S   UNL     1      -1.808  11.230  23.199  0.00  0.00    +0.000 S 
ENDBRANCH   8  11
BRANCH   5  20
ATOM     20  C   UNL     1       2.094   5.810  19.282  0.00  0.00    +0.000 C 
ATOM     21  C   UNL     1       3.565   5.662  18.821  0.00  0.00    +0.000 C 
ATOM     22  C   UNL     1       3.665   5.017  17.432  0.00  0.00    +0.000 C 
ATOM     23  C   UNL     1       2.896   3.700  17.358  0.00  0.00    +0.000 C 
ATOM     24  N   UNL     1       1.509   3.911  17.752  0.00  0.00    +0.000 NA
ATOM     25  C   UNL     1       1.407   4.436  19.125  0.00  0.00    +0.000 C 
ATOM     26  H   UNL     1       0.973   3.041  17.696  0.00  0.00    +0.000 HD
ENDBRANCH   5  20
BRANCH   7  27
ATOM     27  N   UNL     1      -0.985   9.837  19.765  0.00  0.00    +0.000 N 
ATOM     28  H   UNL     1      -1.844   9.289  19.729  0.00  0.00    +0.000 HD
BRANCH  27  29
ATOM     29  C   UNL     1      -0.612  10.088  18.364  0.00  0.00    +0.000 C 
ATOM     30  C   UNL     1       0.057  11.454  18.151  0.00  0.00    +0.000 C 
ATOM     31  C   UNL     1      -1.091  12.469  17.941  0.00  0.00    +0.000 C 
ATOM     32  C   UNL     1      -2.367  11.647  18.132  0.00  0.00    +0.000 C 
ATOM     33  C   UNL     1      -1.941  10.259  17.604  0.00  0.00    +0.000 C 
BRANCH  32  34
ATOM     34  O   UNL     1      -3.464  12.177  17.407  0.00  0.00    +0.000 OA
ATOM     35  H   UNL     1      -3.092  12.571  16.595  0.00  0.00    +0.000 HD
ENDBRANCH  32  34
BRANCH  33  36
ATOM     36  O   UNL     1      -1.708  10.244  16.193  0.00  0.00    +0.000 OA
ATOM     37  H   UNL     1      -2.247   9.523  15.831  0.00  0.00    +0.000 HD
ENDBRANCH  33  36
BRANCH  31  38
ATOM     38  C   UNL     1      -0.969  13.681  18.854  0.00  0.00    +0.000 C 
BRANCH  38  39
ATOM     39  O   UNL     1      -2.100  13.748  19.724  0.00  0.00    +0.000 OA
ATOM     40  H   UNL     1      -1.859  14.317  20.475  0.00  0.00    +0.000 HD
ENDBRANCH  38  39
ENDBRANCH  31  38
ENDBRANCH  27  29
ENDBRANCH   7  27
TORSDOF 8
ENDMDL
MODEL 6
REMARK VINA RESULT:      -6.9      2.345      3.814
REMARK  Name = 
REMARK  8 active torsions:
REMARK  status: ('A' for Active; 'I' for Inactive)
REMARK    1  A    between atoms: N_5  and  C_6
REMARK    2  A    between atoms: C_13  and  N_14
REMARK    3  A    between atoms: N_14  and  C_15
REMARK    4  A    between atoms: C_17  and  C_18
REMARK    5  A    between atoms: C_18  and  O_19
REMARK    6  A    between atoms: C_20  and  O_21
REMARK    7  A    between atoms: C_22  and  O_23
REMARK    8  A    between atoms: C_24  and  C_25
REMARK                            x       y       z     vdW  Elec       q    Type
REMARK                         _______ _______ _______ _____ _____    ______ ____
ROOT
ATOM      1  O   UNL     1      -0.347  12.939  23.058  0.00  0.00    +0.000 OA
ATOM      2  C   UNL     1      -1.239  13.115  22.232  0.00  0.00    +0.000 A 
ATOM      3  N   UNL     1      -2.295  13.949  22.508  0.00  0.00    +0.000 N 
ATOM      4  C   UNL     1      -3.273  14.259  21.609  0.00  0.00    +0.000 A 
ATOM      5  N   UNL     1      -4.237  15.150  22.031  0.00  0.00    +0.000 N 
ATOM      6  N   UNL     1      -3.253  13.721  20.434  0.00  0.00    +0.000 NA
ATOM      7  C   UNL     1      -2.296  12.794  20.089  0.00  0.00    +0.000 A 
ATOM      8  C   UNL     1      -1.260  12.454  20.906  0.00  0.00    +0.000 A 
ATOM      9  H   UNL     1      -2.284  14.374  23.423  0.00  0.00    +0.000 HD
ATOM     10  H   UNL     1      -4.249  15.316  23.030  0.00  0.00    +0.000 HD
ENDROOT
BRANCH   8  11
ATOM     11  C   UNL     1      -0.279  11.476  20.500  0.00  0.00    +0.000 A 
ATOM     12  N   UNL     1       0.287  11.408  19.297  0.00  0.00    +0.000 NA
ATOM     13  C   UNL     1       0.990  10.223  19.113  0.00  0.00    +0.000 A 
ATOM     14  C   UNL     1       1.678   9.826  17.942  0.00  0.00    +0.000 A 
ATOM     15  C   UNL     1       2.298   8.572  17.878  0.00  0.00    +0.000 A 
ATOM     16  C   UNL     1       2.242   7.708  18.965  0.00  0.00    +0.000 A 
ATOM     17  C   UNL     1       1.579   8.084  20.142  0.00  0.00    +0.000 A 
ATOM     18  C   UNL     1       0.960   9.350  20.197  0.00  0.00    +0.000 A 
ATOM     19  S   UNL     1       0.070  10.089  21.481  0.00  0.00    +0.000 S 
ENDBRANCH   8  11
BRANCH   5  20
ATOM     20  C   UNL     1      -5.599  15.236  21.452  0.00  0.00    +0.000 C 
ATOM     21  C   UNL     1      -5.537  15.960  20.085  0.00  0.00    +0.000 C 
ATOM     22  C   UNL     1      -6.911  16.004  19.400  0.00  0.00    +0.000 C 
ATOM     23  C   UNL     1      -7.541  14.616  19.298  0.00  0.00    +0.000 C 
ATOM     24  N   UNL     1      -7.619  14.007  20.618  0.00  0.00    +0.000 NA
ATOM     25  C   UNL     1      -6.288  13.872  21.236  0.00  0.00    +0.000 C 
ATOM     26  H   UNL     1      -8.051  13.080  20.573  0.00  0.00    +0.000 HD
ENDBRANCH   5  20
BRANCH   7  27
ATOM     27  N   UNL     1      -2.519  12.069  18.918  0.00  0.00    +0.000 N 
ATOM     28  H   UNL     1      -2.897  12.714  18.224  0.00  0.00    +0.000 HD
BRANCH  27  29
ATOM     29  C   UNL     1      -3.363  10.866  18.849  0.00  0.00    +0.000 C 
ATOM     30  C   UNL     1      -3.009   9.945  17.672  0.00  0.00    +0.000 C 
ATOM     31  C   UNL     1      -3.804  10.473  16.455  0.00  0.00    +0.000 C 
ATOM     32  C   UNL     1      -4.509  11.727  16.976  0.00  0.00    +0.000 C 
ATOM     33  C   UNL     1      -4.766  11.365  18.455  0.00  0.00    +0.000 C 
BRANCH  32  34
ATOM     34  O   UNL     1      -5.713  11.998  16.278  0.00  0.00    +0.000 OA
ATOM     35  H   UNL     1      -5.457  12.466  15.460  0.00  0.00    +0.000 HD
ENDBRANCH  32  34
BRANCH  33  36
ATOM     36  O   UNL     1      -5.726  10.316  18.616  0.00  0.00    +0.000 OA
ATOM     37  H   UNL     1      -5.234   9.481  18.563  0.00  0.00    +0.000 HD
ENDBRANCH  33  36
BRANCH  31  38
ATOM     38  C   UNL     1      -2.920  10.696  15.236  0.00  0.00    +0.000 C 
BRANCH  38  39
ATOM     39  O   UNL     1      -3.589  10.233  14.062  0.00  0.00    +0.000 OA
ATOM     40  H   UNL     1      -3.175  10.670  13.297  0.00  0.00    +0.000 HD
ENDBRANCH  38  39
ENDBRANCH  31  38
ENDBRANCH  27  29
ENDBRANCH   7  27
TORSDOF 8
ENDMDL
MODEL 7
REMARK VINA RESULT:      -6.8      5.277      6.654
REMARK  Name = 
REMARK  8 active torsions:
REMARK  status: ('A' for Active; 'I' for Inactive)
REMARK    1  A    between atoms: N_5  and  C_6
REMARK    2  A    between atoms: C_13  and  N_14
REMARK    3  A    between atoms: N_14  and  C_15
REMARK    4  A    between atoms: C_17  and  C_18
REMARK    5  A    between atoms: C_18  and  O_19
REMARK    6  A    between atoms: C_20  and  O_21
REMARK    7  A    between atoms: C_22  and  O_23
REMARK    8  A    between atoms: C_24  and  C_25
REMARK                            x       y       z     vdW  Elec       q    Type
REMARK                         _______ _______ _______ _____ _____    ______ ____
ROOT
ATOM      1  O   UNL     1       1.084  11.405  21.176  0.00  0.00    +0.000 OA
ATOM      2  C   UNL     1       0.243  12.190  20.745  0.00  0.00    +0.000 A 
ATOM      3  N   UNL     1      -1.097  11.911  20.852  0.00  0.00    +0.000 N 
ATOM      4  C   UNL     1      -2.085  12.773  20.476  0.00  0.00    +0.000 A 
ATOM      5  N   UNL     1      -3.382  12.356  20.695  0.00  0.00    +0.000 N 
ATOM      6  N   UNL     1      -1.772  13.911  19.949  0.00  0.00    +0.000 NA
ATOM      7  C   UNL     1      -0.461  14.247  19.704  0.00  0.00    +0.000 A 
ATOM      8  C   UNL     1       0.591  13.468  20.082  0.00  0.00    +0.000 A 
ATOM      9  H   UNL     1      -1.322  11.026  21.282  0.00  0.00    +0.000 HD
ATOM     10  H   UNL     1      -3.477  11.370  20.907  0.00  0.00    +0.000 HD
ENDROOT
BRANCH   8  11
ATOM     11  C   UNL     1       1.951  13.865  19.802  0.00  0.00    +0.000 A 
ATOM     12  N   UNL     1       2.659  14.739  20.514  0.00  0.00    +0.000 NA
ATOM     13  C   UNL     1       3.831  15.115  19.870  0.00  0.00    +0.000 A 
ATOM     14  C   UNL     1       4.787  16.047  20.338  0.00  0.00    +0.000 A 
ATOM     15  C   UNL     1       5.900  16.374  19.552  0.00  0.00    +0.000 A 
ATOM     16  C   UNL     1       6.072  15.784  18.305  0.00  0.00    +0.000 A 
ATOM     17  C   UNL     1       5.147  14.847  17.825  0.00  0.00    +0.000 A 
ATOM     18  C   UNL     1       4.031  14.523  18.625  0.00  0.00    +0.000 A 
ATOM     19  S   UNL     1       2.729  13.431  18.314  0.00  0.00    +0.000 S 
ENDBRANCH   8  11
BRANCH   5  20
ATOM     20  C   UNL     1      -4.555  12.864  19.944  0.00  0.00    +0.000 C 
ATOM     21  C   UNL     1      -4.899  11.886  18.794  0.00  0.00    +0.000 C 
ATOM     22  C   UNL     1      -6.159  12.321  18.034  0.00  0.00    +0.000 C 
ATOM     23  C   UNL     1      -7.340  12.556  18.973  0.00  0.00    +0.000 C 
ATOM     24  N   UNL     1      -6.974  13.521  20.001  0.00  0.00    +0.000 NA
ATOM     25  C   UNL     1      -5.825  13.058  20.799  0.00  0.00    +0.000 C 
ATOM     26  H   UNL     1      -7.757  13.702  20.634  0.00  0.00    +0.000 HD
ENDBRANCH   5  20
BRANCH   7  27
ATOM     27  N   UNL     1      -0.241  15.356  18.886  0.00  0.00    +0.000 N 
ATOM     28  H   UNL     1       0.765  15.514  18.844  0.00  0.00    +0.000 HD
BRANCH  27  29
ATOM     29  C   UNL     1      -0.844  16.678  19.121  0.00  0.00    +0.000 C 
ATOM     30  C   UNL     1      -0.791  17.595  17.890  0.00  0.00    +0.000 C 
ATOM     31  C   UNL     1       0.583  18.304  17.938  0.00  0.00    +0.000 C 
ATOM     32  C   UNL     1       1.286  17.691  19.151  0.00  0.00    +0.000 C 
ATOM     33  C   UNL     1       0.103  17.399  20.099  0.00  0.00    +0.000 C 
BRANCH  32  34
ATOM     34  O   UNL     1       2.228  18.576  19.733  0.00  0.00    +0.000 OA
ATOM     35  H   UNL     1       2.494  18.175  20.582  0.00  0.00    +0.000 HD
ENDBRANCH  32  34
BRANCH  33  36
ATOM     36  O   UNL     1      -0.518  18.585  20.602  0.00  0.00    +0.000 OA
ATOM     37  H   UNL     1      -1.467  18.500  20.418  0.00  0.00    +0.000 HD
ENDBRANCH  33  36
BRANCH  31  38
ATOM     38  C   UNL     1       1.346  18.181  16.627  0.00  0.00    +0.000 C 
BRANCH  38  39
ATOM     39  O   UNL     1       2.583  17.503  16.848  0.00  0.00    +0.000 OA
ATOM     40  H   UNL     1       2.377  16.569  17.031  0.00  0.00    +0.000 HD
ENDBRANCH  38  39
ENDBRANCH  31  38
ENDBRANCH  27  29
ENDBRANCH   7  27
TORSDOF 8
ENDMDL
MODEL 8
REMARK VINA RESULT:      -6.7      1.896      7.534
REMARK  Name = 
REMARK  8 active torsions:
REMARK  status: ('A' for Active; 'I' for Inactive)
REMARK    1  A    between atoms: N_5  and  C_6
REMARK    2  A    between atoms: C_13  and  N_14
REMARK    3  A    between atoms: N_14  and  C_15
REMARK    4  A    between atoms: C_17  and  C_18
REMARK    5  A    between atoms: C_18  and  O_19
REMARK    6  A    between atoms: C_20  and  O_21
REMARK    7  A    between atoms: C_22  and  O_23
REMARK    8  A    between atoms: C_24  and  C_25
REMARK                            x       y       z     vdW  Elec       q    Type
REMARK                         _______ _______ _______ _____ _____    ______ ____
ROOT
ATOM      1  O   UNL     1       1.445   9.649  24.025  0.00  0.00    +0.000 OA
ATOM      2  C   UNL     1       1.149   9.268  22.895  0.00  0.00    +0.000 A 
ATOM      3  N   UNL     1       1.819   8.223  22.309  0.00  0.00    +0.000 N 
ATOM      4  C   UNL     1       1.487   7.693  21.098  0.00  0.00    +0.000 A 
ATOM      5  N   UNL     1       2.234   6.613  20.674  0.00  0.00    +0.000 N 
ATOM      6  N   UNL     1       0.515   8.208  20.420  0.00  0.00    +0.000 NA
ATOM      7  C   UNL     1      -0.157   9.321  20.870  0.00  0.00    +0.000 A 
ATOM      8  C   UNL     1       0.078   9.893  22.084  0.00  0.00    +0.000 A 
ATOM      9  H   UNL     1       2.563   7.822  22.861  0.00  0.00    +0.000 HD
ATOM     10  H   UNL     1       3.089   6.460  21.196  0.00  0.00    +0.000 HD
ENDROOT
BRANCH   8  11
ATOM     11  C   UNL     1      -0.654  11.061  22.512  0.00  0.00    +0.000 A 
ATOM     12  N   UNL     1      -1.819  11.046  23.156  0.00  0.00    +0.000 NA
ATOM     13  C   UNL     1      -2.407  12.303  23.210  0.00  0.00    +0.000 A 
ATOM     14  C   UNL     1      -3.656  12.625  23.793  0.00  0.00    +0.000 A 
ATOM     15  C   UNL     1      -4.152  13.933  23.723  0.00  0.00    +0.000 A 
ATOM     16  C   UNL     1      -3.422  14.925  23.081  0.00  0.00    +0.000 A 
ATOM     17  C   UNL     1      -2.174  14.635  22.509  0.00  0.00    +0.000 A 
ATOM     18  C   UNL     1      -1.682  13.316  22.586  0.00  0.00    +0.000 A 
ATOM     19  S   UNL     1      -0.207  12.650  21.979  0.00  0.00    +0.000 S 
ENDBRANCH   8  11
BRANCH   5  20
ATOM     20  C   UNL     1       2.391   6.218  19.253  0.00  0.00    +0.000 C 
ATOM     21  C   UNL     1       3.882   6.312  18.849  0.00  0.00    +0.000 C 
ATOM     22  C   UNL     1       4.114   5.835  17.409  0.00  0.00    +0.000 C 
ATOM     23  C   UNL     1       3.531   4.444  17.169  0.00  0.00    +0.000 C 
ATOM     24  N   UNL     1       2.117   4.429  17.517  0.00  0.00    +0.000 NA
ATOM     25  C   UNL     1       1.900   4.791  18.929  0.00  0.00    +0.000 C 
ATOM     26  H   UNL     1       1.704   3.508  17.351  0.00  0.00    +0.000 HD
ENDBRANCH   5  20
BRANCH   7  27
ATOM     27  N   UNL     1      -0.988   9.964  19.952  0.00  0.00    +0.000 N 
ATOM     28  H   UNL     1      -1.898   9.504  19.985  0.00  0.00    +0.000 HD
BRANCH  27  29
ATOM     29  C   UNL     1      -0.668  10.115  18.524  0.00  0.00    +0.000 C 
ATOM     30  C   UNL     1       0.039  11.439  18.199  0.00  0.00    +0.000 C 
ATOM     31  C   UNL     1      -1.080  12.483  17.974  0.00  0.00    +0.000 C 
ATOM     32  C   UNL     1      -2.375  11.722  18.267  0.00  0.00    +0.000 C 
ATOM     33  C   UNL     1      -2.022  10.290  17.810  0.00  0.00    +0.000 C 
BRANCH  32  34
ATOM     34  O   UNL     1      -3.483  12.249  17.557  0.00  0.00    +0.000 OA
ATOM     35  H   UNL     1      -4.271  12.070  18.105  0.00  0.00    +0.000 HD
ENDBRANCH  32  34
BRANCH  33  36
ATOM     36  O   UNL     1      -1.850  10.181  16.394  0.00  0.00    +0.000 OA
ATOM     37  H   UNL     1      -1.808   9.232  16.194  0.00  0.00    +0.000 HD
ENDBRANCH  33  36
BRANCH  31  38
ATOM     38  C   UNL     1      -0.875  13.742  18.804  0.00  0.00    +0.000 C 
BRANCH  38  39
ATOM     39  O   UNL     1       0.502  14.122  18.775  0.00  0.00    +0.000 OA
ATOM     40  H   UNL     1       0.831  13.959  17.874  0.00  0.00    +0.000 HD
ENDBRANCH  38  39
ENDBRANCH  31  38
ENDBRANCH  27  29
ENDBRANCH   7  27
TORSDOF 8
ENDMDL
MODEL 9
REMARK VINA RESULT:      -6.7      5.332     11.069
REMARK  Name = 
REMARK  8 active torsions:
REMARK  status: ('A' for Active; 'I' for Inactive)
REMARK    1  A    between atoms: N_5  and  C_6
REMARK    2  A    between atoms: C_13  and  N_14
REMARK    3  A    between atoms: N_14  and  C_15
REMARK    4  A    between atoms: C_17  and  C_18
REMARK    5  A    between atoms: C_18  and  O_19
REMARK    6  A    between atoms: C_20  and  O_21
REMARK    7  A    between atoms: C_22  and  O_23
REMARK    8  A    between atoms: C_24  and  C_25
REMARK                            x       y       z     vdW  Elec       q    Type
REMARK                         _______ _______ _______ _____ _____    ______ ____
ROOT
ATOM      1  O   UNL     1       5.283   8.375  17.464  0.00  0.00    +0.000 OA
ATOM      2  C   UNL     1       5.021   7.239  17.074  0.00  0.00    +0.000 A 
ATOM      3  N   UNL     1       5.802   6.627  16.125  0.00  0.00    +0.000 N 
ATOM      4  C   UNL     1       5.624   5.339  15.711  0.00  0.00    +0.000 A 
ATOM      5  N   UNL     1       6.526   4.861  14.784  0.00  0.00    +0.000 N 
ATOM      6  N   UNL     1       4.647   4.643  16.193  0.00  0.00    +0.000 NA
ATOM      7  C   UNL     1       3.745   5.194  17.074  0.00  0.00    +0.000 A 
ATOM      8  C   UNL     1       3.867   6.455  17.573  0.00  0.00    +0.000 A 
ATOM      9  H   UNL     1       6.570   7.179  15.774  0.00  0.00    +0.000 HD
ATOM     10  H   UNL     1       7.093   5.574  14.341  0.00  0.00    +0.000 HD
ENDROOT
BRANCH   8  11
ATOM     11  C   UNL     1       2.894   6.989  18.497  0.00  0.00    +0.000 A 
ATOM     12  N   UNL     1       2.173   8.091  18.303  0.00  0.00    +0.000 NA
ATOM     13  C   UNL     1       1.516   8.500  19.457  0.00  0.00    +0.000 A 
ATOM     14  C   UNL     1       0.696   9.645  19.599  0.00  0.00    +0.000 A 
ATOM     15  C   UNL     1       0.142   9.967  20.844  0.00  0.00    +0.000 A 
ATOM     16  C   UNL     1       0.393   9.164  21.951  0.00  0.00    +0.000 A 
ATOM     17  C   UNL     1       1.190   8.016  21.833  0.00  0.00    +0.000 A 
ATOM     18  C   UNL     1       1.742   7.699  20.574  0.00  0.00    +0.000 A 
ATOM     19  S   UNL     1       2.758   6.379  20.115  0.00  0.00    +0.000 S 
ENDBRANCH   8  11
BRANCH   5  20
ATOM     20  C   UNL     1       6.247   3.738  13.857  0.00  0.00    +0.000 C 
ATOM     21  C   UNL     1       4.900   3.984  13.134  0.00  0.00    +0.000 C 
ATOM     22  C   UNL     1       4.601   2.890  12.099  0.00  0.00    +0.000 C 
ATOM     23  C   UNL     1       5.760   2.697  11.123  0.00  0.00    +0.000 C 
ATOM     24  N   UNL     1       6.987   2.419  11.857  0.00  0.00    +0.000 NA
ATOM     25  C   UNL     1       7.330   3.515  12.780  0.00  0.00    +0.000 C 
ATOM     26  H   UNL     1       7.774   2.273  11.220  0.00  0.00    +0.000 HD
ENDBRANCH   5  20
BRANCH   7  27
ATOM     27  N   UNL     1       2.581   4.464  17.316  0.00  0.00    +0.000 N 
ATOM     28  H   UNL     1       2.201   4.777  18.209  0.00  0.00    +0.000 HD
BRANCH  27  29
ATOM     29  C   UNL     1       2.530   2.994  17.353  0.00  0.00    +0.000 C 
ATOM     30  C   UNL     1       1.435   2.449  18.282  0.00  0.00    +0.000 C 
ATOM     31  C   UNL     1       2.060   2.381  19.695  0.00  0.00    +0.000 C 
ATOM     32  C   UNL     1       3.460   2.974  19.521  0.00  0.00    +0.000 C 
ATOM     33  C   UNL     1       3.815   2.551  18.079  0.00  0.00    +0.000 C 
BRANCH  32  34
ATOM     34  O   UNL     1       4.383   2.464  20.468  0.00  0.00    +0.000 OA
ATOM     35  H   UNL     1       3.904   2.408  21.317  0.00  0.00    +0.000 HD
ENDBRANCH  32  34
BRANCH  33  36
ATOM     36  O   UNL     1       4.000   1.140  17.939  0.00  0.00    +0.000 OA
ATOM     37  H   UNL     1       4.568   0.861  18.675  0.00  0.00    +0.000 HD
ENDBRANCH  33  36
BRANCH  31  38
ATOM     38  C   UNL     1       1.199   3.070  20.744  0.00  0.00    +0.000 C 
BRANCH  38  39
ATOM     39  O   UNL     1       1.838   2.995  22.019  0.00  0.00    +0.000 OA
ATOM     40  H   UNL     1       1.714   2.091  22.357  0.00  0.00    +0.000 HD
ENDBRANCH  38  39
ENDBRANCH  31  38
ENDBRANCH  27  29
ENDBRANCH   7  27
TORSDOF 8
ENDMDL
