MODEL 1
REMARK VINA RESULT:      -8.0      0.000      0.000
REMARK  Name = 
REMARK  5 active torsions:
REMARK  status: ('A' for Active; 'I' for Inactive)
REMARK    1  A    between atoms: C_1  and  C_2
REMARK    2  A    between atoms: C_7  and  O_8
REMARK    3  A    between atoms: O_8  and  C_9
REMARK    4  A    between atoms: C_9  and  C_10
REMARK    5  A    between atoms: N_12  and  C_13
REMARK                            x       y       z     vdW  Elec       q    Type
REMARK                         _______ _______ _______ _____ _____    ______ ____
ROOT
ATOM      1  C   UNL     1       7.811   7.898  17.934  0.00  0.00    +0.000 C 
ATOM      2  O   UNL     1       8.216   7.066  18.743  0.00  0.00    +0.000 OA
ATOM      3  N   UNL     1       6.738   7.718  17.078  0.00  0.00    +0.000 N 
ATOM      4  H   UNL     1       6.756   8.273  16.229  0.00  0.00    +0.000 HD
ENDROOT
BRANCH   3   5
ATOM      5  C   UNL     1       5.902   6.587  17.093  0.00  0.00    +0.000 A 
ATOM      6  C   UNL     1       6.368   5.421  16.490  0.00  0.00    +0.000 A 
ATOM      7  C   UNL     1       5.583   4.264  16.492  0.00  0.00    +0.000 A 
ATOM      8  C   UNL     1       4.299   4.255  17.015  0.00  0.00    +0.000 A 
ATOM      9  N   UNL     1       3.571   3.129  16.937  0.00  0.00    +0.000 NA
ATOM     10  C   UNL     1       2.303   3.160  17.404  0.00  0.00    +0.000 A 
ATOM     11  C   UNL     1       1.711   4.282  17.950  0.00  0.00    +0.000 A 
ATOM     12  C   UNL     1       2.474   5.440  18.045  0.00  0.00    +0.000 A 
ATOM     13  C   UNL     1       3.799   5.449  17.576  0.00  0.00    +0.000 A 
ATOM     14  C   UNL     1       4.616   6.602  17.642  0.00  0.00    +0.000 A 
ENDBRANCH   3   5
BRANCH   1  15
ATOM     15  C   UNL     1       8.454   9.280  17.809  0.00  0.00    +0.000 C 
BRANCH  15  16
ATOM     16  O   UNL     1       8.941   9.758  19.047  0.00  0.00    +0.000 OA
BRANCH  16  23
ATOM     17  C   UNL     1       9.288  11.723  21.526  0.00  0.00    +0.000 C 
ATOM     18  C   UNL     1       9.872  11.827  20.145  0.00  0.00    +0.000 A 
ATOM     19  C   UNL     1      10.670  12.969  19.908  0.00  0.00    +0.000 A 
ATOM     20  C   UNL     1      11.268  13.210  18.672  0.00  0.00    +0.000 A 
ATOM     21  C   UNL     1      11.096  12.298  17.646  0.00  0.00    +0.000 A 
ATOM     22  C   UNL     1      10.312  11.163  17.857  0.00  0.00    +0.000 A 
ATOM     23  C   UNL     1       9.685  10.910  19.093  0.00  0.00    +0.000 A 
ENDBRANCH  16  23
ENDBRANCH  15  16
ENDBRANCH   1  15
TORSDOF 4
ENDMDL
MODEL 2
REMARK VINA RESULT:      -7.9      4.886      7.839
REMARK  Name = 
REMARK  5 active torsions:
REMARK  status: ('A' for Active; 'I' for Inactive)
REMARK    1  A    between atoms: C_1  and  C_2
REMARK    2  A    between atoms: C_7  and  O_8
REMARK    3  A    between atoms: O_8  and  C_9
REMARK    4  A    between atoms: C_9  and  C_10
REMARK    5  A    between atoms: N_12  and  C_13
REMARK                            x       y       z     vdW  Elec       q    Type
REMARK                         _______ _______ _______ _____ _____    ______ ____
ROOT
ATOM      1  C   UNL     1       2.306   5.611  20.116  0.00  0.00    +0.000 C 
ATOM      2  O   UNL     1       1.241   5.190  20.565  0.00  0.00    +0.000 OA
ATOM      3  N   UNL     1       2.585   6.940  19.848  0.00  0.00    +0.000 N 
ATOM      4  H   UNL     1       3.295   7.105  19.142  0.00  0.00    +0.000 HD
ENDROOT
BRANCH   3   5
ATOM      5  C   UNL     1       1.715   8.002  20.150  0.00  0.00    +0.000 A 
ATOM      6  C   UNL     1       1.467   8.948  19.158  0.00  0.00    +0.000 A 
ATOM      7  C   UNL     1       0.597  10.014  19.403  0.00  0.00    +0.000 A 
ATOM      8  C   UNL     1       0.019  10.213  20.648  0.00  0.00    +0.000 A 
ATOM      9  N   UNL     1      -0.763  11.288  20.839  0.00  0.00    +0.000 NA
ATOM     10  C   UNL     1      -1.271  11.491  22.075  0.00  0.00    +0.000 A 
ATOM     11  C   UNL     1      -1.027  10.663  23.153  0.00  0.00    +0.000 A 
ATOM     12  C   UNL     1      -0.232   9.542  22.946  0.00  0.00    +0.000 A 
ATOM     13  C   UNL     1       0.311   9.291  21.674  0.00  0.00    +0.000 A 
ATOM     14  C   UNL     1       1.133   8.170  21.411  0.00  0.00    +0.000 A 
ENDBRANCH   3   5
BRANCH   1  15
ATOM     15  C   UNL     1       3.483   4.679  19.828  0.00  0.00    +0.000 C 
BRANCH  15  16
ATOM     16  O   UNL     1       4.665   5.390  19.516  0.00  0.00    +0.000 OA
BRANCH  16  23
ATOM     17  C   UNL     1       7.795   5.797  19.109  0.00  0.00    +0.000 C 
ATOM     18  C   UNL     1       6.788   5.193  18.171  0.00  0.00    +0.000 A 
ATOM     19  C   UNL     1       7.299   4.767  16.924  0.00  0.00    +0.000 A 
ATOM     20  C   UNL     1       6.483   4.201  15.945  0.00  0.00    +0.000 A 
ATOM     21  C   UNL     1       5.135   4.030  16.201  0.00  0.00    +0.000 A 
ATOM     22  C   UNL     1       4.607   4.444  17.426  0.00  0.00    +0.000 A 
ATOM     23  C   UNL     1       5.411   5.034  18.421  0.00  0.00    +0.000 A 
ENDBRANCH  16  23
ENDBRANCH  15  16
ENDBRANCH   1  15
TORSDOF 4
ENDMDL
MODEL 3
REMARK VINA RESULT:      -7.8      4.149      6.854
REMARK  Name = 
REMARK  5 active torsions:
REMARK  status: ('A' for Active; 'I' for Inactive)
REMARK    1  A    between atoms: C_1  and  C_2
REMARK    2  A    between atoms: C_7  and  O_8
REMARK    3  A    between atoms: O_8  and  C_9
REMARK    4  A    between atoms: C_9  and  C_10
REMARK    5  A    between atoms: N_12  and  C_13
REMARK                            x       y       z     vdW  Elec       q    Type
REMARK                         _______ _______ _______ _____ _____    ______ ____
ROOT
ATOM      1  C   UNL     1       2.856   5.062  18.529  0.00  0.00    +0.000 C 
ATOM      2  O   UNL     1       1.805   4.904  17.911  0.00  0.00    +0.000 OA
ATOM      3  N   UNL     1       3.220   6.219  19.197  0.00  0.00    +0.000 N 
ATOM      4  H   UNL     1       4.217   6.365  19.310  0.00  0.00    +0.000 HD
ENDROOT
BRANCH   3   5
ATOM      5  C   UNL     1       2.383   7.339  19.342  0.00  0.00    +0.000 A 
ATOM      6  C   UNL     1       2.250   8.201  18.256  0.00  0.00    +0.000 A 
ATOM      7  C   UNL     1       1.416   9.320  18.343  0.00  0.00    +0.000 A 
ATOM      8  C   UNL     1       0.762   9.653  19.519  0.00  0.00    +0.000 A 
ATOM      9  N   UNL     1       0.021  10.772  19.559  0.00  0.00    +0.000 NA
ATOM     10  C   UNL     1      -0.563  11.105  20.732  0.00  0.00    +0.000 A 
ATOM     11  C   UNL     1      -0.435  10.367  21.892  0.00  0.00    +0.000 A 
ATOM     12  C   UNL     1       0.319   9.201  21.842  0.00  0.00    +0.000 A 
ATOM     13  C   UNL     1       0.937   8.815  20.640  0.00  0.00    +0.000 A 
ATOM     14  C   UNL     1       1.721   7.642  20.537  0.00  0.00    +0.000 A 
ENDBRANCH   3   5
BRANCH   1  15
ATOM     15  C   UNL     1       3.893   3.945  18.653  0.00  0.00    +0.000 C 
BRANCH  15  16
ATOM     16  O   UNL     1       4.927   4.066  17.696  0.00  0.00    +0.000 OA
BRANCH  16  23
ATOM     17  C   UNL     1       5.139   6.596  15.779  0.00  0.00    +0.000 C 
ATOM     18  C   UNL     1       5.983   6.236  16.969  0.00  0.00    +0.000 A 
ATOM     19  C   UNL     1       7.031   7.137  17.265  0.00  0.00    +0.000 A 
ATOM     20  C   UNL     1       7.906   6.929  18.330  0.00  0.00    +0.000 A 
ATOM     21  C   UNL     1       7.738   5.820  19.139  0.00  0.00    +0.000 A 
ATOM     22  C   UNL     1       6.710   4.916  18.866  0.00  0.00    +0.000 A 
ATOM     23  C   UNL     1       5.826   5.099  17.784  0.00  0.00    +0.000 A 
ENDBRANCH  16  23
ENDBRANCH  15  16
ENDBRANCH   1  15
TORSDOF 4
ENDMDL
MODEL 4
REMARK VINA RESULT:      -7.7      0.531      1.606
REMARK  Name = 
REMARK  5 active torsions:
REMARK  status: ('A' for Active; 'I' for Inactive)
REMARK    1  A    between atoms: C_1  and  C_2
REMARK    2  A    between atoms: C_7  and  O_8
REMARK    3  A    between atoms: O_8  and  C_9
REMARK    4  A    between atoms: C_9  and  C_10
REMARK    5  A    between atoms: N_12  and  C_13
REMARK                            x       y       z     vdW  Elec       q    Type
REMARK                         _______ _______ _______ _____ _____    ______ ____
ROOT
ATOM      1  C   UNL     1       7.899   8.081  18.046  0.00  0.00    +0.000 C 
ATOM      2  O   UNL     1       8.340   7.194  18.776  0.00  0.00    +0.000 OA
ATOM      3  N   UNL     1       6.816   7.944  17.195  0.00  0.00    +0.000 N 
ATOM      4  H   UNL     1       6.804   8.569  16.395  0.00  0.00    +0.000 HD
ENDROOT
BRANCH   3   5
ATOM      5  C   UNL     1       6.009   6.794  17.128  0.00  0.00    +0.000 A 
ATOM      6  C   UNL     1       6.494   5.695  16.423  0.00  0.00    +0.000 A 
ATOM      7  C   UNL     1       5.738   4.521  16.341  0.00  0.00    +0.000 A 
ATOM      8  C   UNL     1       4.463   4.435  16.881  0.00  0.00    +0.000 A 
ATOM      9  N   UNL     1       3.762   3.301  16.719  0.00  0.00    +0.000 NA
ATOM     10  C   UNL     1       2.502   3.260  17.206  0.00  0.00    +0.000 A 
ATOM     11  C   UNL     1       1.891   4.317  17.852  0.00  0.00    +0.000 A 
ATOM     12  C   UNL     1       2.626   5.483  18.031  0.00  0.00    +0.000 A 
ATOM     13  C   UNL     1       3.943   5.565  17.546  0.00  0.00    +0.000 A 
ATOM     14  C   UNL     1       4.732   6.730  17.695  0.00  0.00    +0.000 A 
ENDBRANCH   3   5
BRANCH   1  15
ATOM     15  C   UNL     1       8.505   9.484  18.026  0.00  0.00    +0.000 C 
BRANCH  15  16
ATOM     16  O   UNL     1       9.505   9.649  19.012  0.00  0.00    +0.000 OA
BRANCH  16  23
ATOM     17  C   UNL     1      11.148  11.964  17.575  0.00  0.00    +0.000 C 
ATOM     18  C   UNL     1      10.507  11.961  18.935  0.00  0.00    +0.000 A 
ATOM     19  C   UNL     1      10.677  13.144  19.688  0.00  0.00    +0.000 A 
ATOM     20  C   UNL     1      10.151  13.284  20.973  0.00  0.00    +0.000 A 
ATOM     21  C   UNL     1       9.424  12.245  21.525  0.00  0.00    +0.000 A 
ATOM     22  C   UNL     1       9.244  11.067  20.799  0.00  0.00    +0.000 A 
ATOM     23  C   UNL     1       9.782  10.899  19.507  0.00  0.00    +0.000 A 
ENDBRANCH  16  23
ENDBRANCH  15  16
ENDBRANCH   1  15
TORSDOF 4
ENDMDL
MODEL 5
REMARK VINA RESULT:      -7.6      4.915      7.337
REMARK  Name = 
REMARK  5 active torsions:
REMARK  status: ('A' for Active; 'I' for Inactive)
REMARK    1  A    between atoms: C_1  and  C_2
REMARK    2  A    between atoms: C_7  and  O_8
REMARK    3  A    between atoms: O_8  and  C_9
REMARK    4  A    between atoms: C_9  and  C_10
REMARK    5  A    between atoms: N_12  and  C_13
REMARK                            x       y       z     vdW  Elec       q    Type
REMARK                         _______ _______ _______ _____ _____    ______ ____
ROOT
ATOM      1  C   UNL     1       2.517   4.724  18.006  0.00  0.00    +0.000 C 
ATOM      2  O   UNL     1       1.323   4.644  17.726  0.00  0.00    +0.000 OA
ATOM      3  N   UNL     1       3.137   5.846  18.530  0.00  0.00    +0.000 N 
ATOM      4  H   UNL     1       4.131   5.925  18.344  0.00  0.00    +0.000 HD
ENDROOT
BRANCH   3   5
ATOM      5  C   UNL     1       2.455   7.016  18.908  0.00  0.00    +0.000 A 
ATOM      6  C   UNL     1       2.330   8.034  17.966  0.00  0.00    +0.000 A 
ATOM      7  C   UNL     1       1.646   9.211  18.286  0.00  0.00    +0.000 A 
ATOM      8  C   UNL     1       1.143   9.439  19.558  0.00  0.00    +0.000 A 
ATOM      9  N   UNL     1       0.547  10.613  19.823  0.00  0.00    +0.000 NA
ATOM     10  C   UNL     1       0.113  10.834  21.083  0.00  0.00    +0.000 A 
ATOM     11  C   UNL     1       0.254   9.928  22.117  0.00  0.00    +0.000 A 
ATOM     12  C   UNL     1       0.856   8.708  21.834  0.00  0.00    +0.000 A 
ATOM     13  C   UNL     1       1.316   8.435  20.534  0.00  0.00    +0.000 A 
ATOM     14  C   UNL     1       1.943   7.213  20.195  0.00  0.00    +0.000 A 
ENDBRANCH   3   5
BRANCH   1  15
ATOM     15  C   UNL     1       3.469   3.541  17.826  0.00  0.00    +0.000 C 
BRANCH  15  16
ATOM     16  O   UNL     1       4.814   3.892  18.081  0.00  0.00    +0.000 OA
BRANCH  16  23
ATOM     17  C   UNL     1       7.634   5.354  18.278  0.00  0.00    +0.000 C 
ATOM     18  C   UNL     1       6.890   4.891  17.057  0.00  0.00    +0.000 A 
ATOM     19  C   UNL     1       7.521   5.163  15.822  0.00  0.00    +0.000 A 
ATOM     20  C   UNL     1       6.944   4.807  14.603  0.00  0.00    +0.000 A 
ATOM     21  C   UNL     1       5.727   4.150  14.594  0.00  0.00    +0.000 A 
ATOM     22  C   UNL     1       5.086   3.871  15.802  0.00  0.00    +0.000 A 
ATOM     23  C   UNL     1       5.642   4.238  17.043  0.00  0.00    +0.000 A 
ENDBRANCH  16  23
ENDBRANCH  15  16
ENDBRANCH   1  15
TORSDOF 4
ENDMDL
MODEL 6
REMARK VINA RESULT:      -7.6      5.063      7.874
REMARK  Name = 
REMARK  5 active torsions:
REMARK  status: ('A' for Active; 'I' for Inactive)
REMARK    1  A    between atoms: C_1  and  C_2
REMARK    2  A    between atoms: C_7  and  O_8
REMARK    3  A    between atoms: O_8  and  C_9
REMARK    4  A    between atoms: C_9  and  C_10
REMARK    5  A    between atoms: N_12  and  C_13
REMARK                            x       y       z     vdW  Elec       q    Type
REMARK                         _______ _______ _______ _____ _____    ______ ____
ROOT
ATOM      1  C   UNL     1       2.187   5.480  20.079  0.00  0.00    +0.000 C 
ATOM      2  O   UNL     1       1.092   5.096  20.487  0.00  0.00    +0.000 OA
ATOM      3  N   UNL     1       2.529   6.800  19.845  0.00  0.00    +0.000 N 
ATOM      4  H   UNL     1       3.267   6.948  19.164  0.00  0.00    +0.000 HD
ENDROOT
BRANCH   3   5
ATOM      5  C   UNL     1       1.696   7.893  20.141  0.00  0.00    +0.000 A 
ATOM      6  C   UNL     1       1.489   8.847  19.148  0.00  0.00    +0.000 A 
ATOM      7  C   UNL     1       0.655   9.944  19.386  0.00  0.00    +0.000 A 
ATOM      8  C   UNL     1       0.076  10.163  20.627  0.00  0.00    +0.000 A 
ATOM      9  N   UNL     1      -0.668  11.265  20.813  0.00  0.00    +0.000 NA
ATOM     10  C   UNL     1      -1.178  11.486  22.045  0.00  0.00    +0.000 A 
ATOM     11  C   UNL     1      -0.972  10.650  23.125  0.00  0.00    +0.000 A 
ATOM     12  C   UNL     1      -0.215   9.501  22.923  0.00  0.00    +0.000 A 
ATOM     13  C   UNL     1       0.328   9.231  21.655  0.00  0.00    +0.000 A 
ATOM     14  C   UNL     1       1.111   8.081  21.398  0.00  0.00    +0.000 A 
ENDBRANCH   3   5
BRANCH   1  15
ATOM     15  C   UNL     1       3.332   4.504  19.809  0.00  0.00    +0.000 C 
BRANCH  15  16
ATOM     16  O   UNL     1       3.798   4.581  18.476  0.00  0.00    +0.000 OA
BRANCH  16  23
ATOM     17  C   UNL     1       5.351   3.882  15.788  0.00  0.00    +0.000 C 
ATOM     18  C   UNL     1       5.887   4.454  17.071  0.00  0.00    +0.000 A 
ATOM     19  C   UNL     1       7.279   4.695  17.093  0.00  0.00    +0.000 A 
ATOM     20  C   UNL     1       7.922   5.210  18.218  0.00  0.00    +0.000 A 
ATOM     21  C   UNL     1       7.179   5.516  19.344  0.00  0.00    +0.000 A 
ATOM     22  C   UNL     1       5.802   5.286  19.345  0.00  0.00    +0.000 A 
ATOM     23  C   UNL     1       5.136   4.750  18.225  0.00  0.00    +0.000 A 
ENDBRANCH  16  23
ENDBRANCH  15  16
ENDBRANCH   1  15
TORSDOF 4
ENDMDL
MODEL 7
REMARK VINA RESULT:      -7.5      1.106      1.514
REMARK  Name = 
REMARK  5 active torsions:
REMARK  status: ('A' for Active; 'I' for Inactive)
REMARK    1  A    between atoms: C_1  and  C_2
REMARK    2  A    between atoms: C_7  and  O_8
REMARK    3  A    between atoms: O_8  and  C_9
REMARK    4  A    between atoms: C_9  and  C_10
REMARK    5  A    between atoms: N_12  and  C_13
REMARK                            x       y       z     vdW  Elec       q    Type
REMARK                         _______ _______ _______ _____ _____    ______ ____
ROOT
ATOM      1  C   UNL     1       7.627   7.459  17.712  0.00  0.00    +0.000 C 
ATOM      2  O   UNL     1       7.934   6.718  18.645  0.00  0.00    +0.000 OA
ATOM      3  N   UNL     1       6.555   7.260  16.859  0.00  0.00    +0.000 N 
ATOM      4  H   UNL     1       6.642   7.681  15.940  0.00  0.00    +0.000 HD
ENDROOT
BRANCH   3   5
ATOM      5  C   UNL     1       5.609   6.231  17.011  0.00  0.00    +0.000 A 
ATOM      6  C   UNL     1       5.754   5.089  16.228  0.00  0.00    +0.000 A 
ATOM      7  C   UNL     1       4.850   4.029  16.354  0.00  0.00    +0.000 A 
ATOM      8  C   UNL     1       3.747   4.106  17.191  0.00  0.00    +0.000 A 
ATOM      9  N   UNL     1       2.882   3.080  17.226  0.00  0.00    +0.000 NA
ATOM     10  C   UNL     1       1.786   3.201  18.007  0.00  0.00    +0.000 A 
ATOM     11  C   UNL     1       1.500   4.319  18.766  0.00  0.00    +0.000 A 
ATOM     12  C   UNL     1       2.407   5.372  18.740  0.00  0.00    +0.000 A 
ATOM     13  C   UNL     1       3.563   5.285  17.945  0.00  0.00    +0.000 A 
ATOM     14  C   UNL     1       4.514   6.330  17.876  0.00  0.00    +0.000 A 
ENDBRANCH   3   5
BRANCH   1  15
ATOM     15  C   UNL     1       8.409   8.737  17.408  0.00  0.00    +0.000 C 
BRANCH  15  16
ATOM     16  O   UNL     1       7.925   9.847  18.139  0.00  0.00    +0.000 OA
BRANCH  16  23
ATOM     17  C   UNL     1       7.723  12.839  17.075  0.00  0.00    +0.000 C 
ATOM     18  C   UNL     1       8.741  12.228  17.996  0.00  0.00    +0.000 A 
ATOM     19  C   UNL     1       9.764  13.099  18.434  0.00  0.00    +0.000 A 
ATOM     20  C   UNL     1      10.787  12.672  19.280  0.00  0.00    +0.000 A 
ATOM     21  C   UNL     1      10.797  11.362  19.725  0.00  0.00    +0.000 A 
ATOM     22  C   UNL     1       9.797  10.484  19.306  0.00  0.00    +0.000 A 
ATOM     23  C   UNL     1       8.765  10.891  18.437  0.00  0.00    +0.000 A 
ENDBRANCH  16  23
ENDBRANCH  15  16
ENDBRANCH   1  15
TORSDOF 4
ENDMDL
MODEL 8
REMARK VINA RESULT:      -7.5      5.103      7.357
REMARK  Name = 
REMARK  5 active torsions:
REMARK  status: ('A' for Active; 'I' for Inactive)
REMARK    1  A    between atoms: C_1  and  C_2
REMARK    2  A    between atoms: C_7  and  O_8
REMARK    3  A    between atoms: O_8  and  C_9
REMARK    4  A    between atoms: C_9  and  C_10
REMARK    5  A    between atoms: N_12  and  C_13
REMARK                            x       y       z     vdW  Elec       q    Type
REMARK                         _______ _______ _______ _____ _____    ______ ____
ROOT
ATOM      1  C   UNL     1       2.799   5.046  19.291  0.00  0.00    +0.000 C 
ATOM      2  O   UNL     1       1.785   4.752  18.660  0.00  0.00    +0.000 OA
ATOM      3  N   UNL     1       3.154   6.328  19.674  0.00  0.00    +0.000 N 
ATOM      4  H   UNL     1       4.146   6.485  19.817  0.00  0.00    +0.000 HD
ENDROOT
BRANCH   3   5
ATOM      5  C   UNL     1       2.342   7.459  19.478  0.00  0.00    +0.000 A 
ATOM      6  C   UNL     1       2.348   8.059  18.221  0.00  0.00    +0.000 A 
ATOM      7  C   UNL     1       1.545   9.176  17.970  0.00  0.00    +0.000 A 
ATOM      8  C   UNL     1       0.786   9.769  18.968  0.00  0.00    +0.000 A 
ATOM      9  N   UNL     1       0.081  10.875  18.681  0.00  0.00    +0.000 NA
ATOM     10  C   UNL     1      -0.607  11.466  19.682  0.00  0.00    +0.000 A 
ATOM     11  C   UNL     1      -0.621  11.005  20.984  0.00  0.00    +0.000 A 
ATOM     12  C   UNL     1       0.097   9.850  21.273  0.00  0.00    +0.000 A 
ATOM     13  C   UNL     1       0.821   9.200  20.259  0.00  0.00    +0.000 A 
ATOM     14  C   UNL     1       1.574   8.027  20.500  0.00  0.00    +0.000 A 
ENDBRANCH   3   5
BRANCH   1  15
ATOM     15  C   UNL     1       3.793   3.982  19.759  0.00  0.00    +0.000 C 
BRANCH  15  16
ATOM     16  O   UNL     1       4.462   3.362  18.679  0.00  0.00    +0.000 OA
BRANCH  16  23
ATOM     17  C   UNL     1       6.773   5.440  19.363  0.00  0.00    +0.000 C 
ATOM     18  C   UNL     1       6.204   5.062  18.024  0.00  0.00    +0.000 A 
ATOM     19  C   UNL     1       6.759   5.740  16.915  0.00  0.00    +0.000 A 
ATOM     20  C   UNL     1       6.324   5.505  15.611  0.00  0.00    +0.000 A 
ATOM     21  C   UNL     1       5.332   4.568  15.385  0.00  0.00    +0.000 A 
ATOM     22  C   UNL     1       4.770   3.886  16.465  0.00  0.00    +0.000 A 
ATOM     23  C   UNL     1       5.183   4.121  17.791  0.00  0.00    +0.000 A 
ENDBRANCH  16  23
ENDBRANCH  15  16
ENDBRANCH   1  15
TORSDOF 4
ENDMDL
MODEL 9
REMARK VINA RESULT:      -7.4      4.698      8.181
REMARK  Name = 
REMARK  5 active torsions:
REMARK  status: ('A' for Active; 'I' for Inactive)
REMARK    1  A    between atoms: C_1  and  C_2
REMARK    2  A    between atoms: C_7  and  O_8
REMARK    3  A    between atoms: O_8  and  C_9
REMARK    4  A    between atoms: C_9  and  C_10
REMARK    5  A    between atoms: N_12  and  C_13
REMARK                            x       y       z     vdW  Elec       q    Type
REMARK                         _______ _______ _______ _____ _____    ______ ____
ROOT
ATOM      1  C   UNL     1       3.058   6.750  18.836  0.00  0.00    +0.000 C 
ATOM      2  O   UNL     1       2.695   7.405  17.861  0.00  0.00    +0.000 OA
ATOM      3  N   UNL     1       4.136   5.881  18.852  0.00  0.00    +0.000 N 
ATOM      4  H   UNL     1       4.090   5.138  19.542  0.00  0.00    +0.000 HD
ENDROOT
BRANCH   3   5
ATOM      5  C   UNL     1       5.024   5.710  17.776  0.00  0.00    +0.000 A 
ATOM      6  C   UNL     1       6.225   6.416  17.800  0.00  0.00    +0.000 A 
ATOM      7  C   UNL     1       7.150   6.268  16.762  0.00  0.00    +0.000 A 
ATOM      8  C   UNL     1       6.879   5.487  15.648  0.00  0.00    +0.000 A 
ATOM      9  N   UNL     1       7.782   5.430  14.656  0.00  0.00    +0.000 NA
ATOM     10  C   UNL     1       7.472   4.707  13.557  0.00  0.00    +0.000 A 
ATOM     11  C   UNL     1       6.279   4.030  13.392  0.00  0.00    +0.000 A 
ATOM     12  C   UNL     1       5.354   4.078  14.428  0.00  0.00    +0.000 A 
ATOM     13  C   UNL     1       5.640   4.814  15.591  0.00  0.00    +0.000 A 
ATOM     14  C   UNL     1       4.731   4.903  16.672  0.00  0.00    +0.000 A 
ENDBRANCH   3   5
BRANCH   1  15
ATOM     15  C   UNL     1       2.350   6.855  20.187  0.00  0.00    +0.000 C 
BRANCH  15  16
ATOM     16  O   UNL     1       1.311   5.905  20.322  0.00  0.00    +0.000 OA
BRANCH  16  23
ATOM     17  C   UNL     1       1.165   4.144  17.676  0.00  0.00    +0.000 C 
ATOM     18  C   UNL     1       1.531   3.727  19.073  0.00  0.00    +0.000 A 
ATOM     19  C   UNL     1       1.830   2.356  19.237  0.00  0.00    +0.000 A 
ATOM     20  C   UNL     1       2.173   1.818  20.478  0.00  0.00    +0.000 A 
ATOM     21  C   UNL     1       2.243   2.649  21.582  0.00  0.00    +0.000 A 
ATOM     22  C   UNL     1       1.951   4.007  21.442  0.00  0.00    +0.000 A 
ATOM     23  C   UNL     1       1.585   4.566  20.202  0.00  0.00    +0.000 A 
ENDBRANCH  16  23
ENDBRANCH  15  16
ENDBRANCH   1  15
TORSDOF 4
ENDMDL
