MODEL 1
REMARK VINA RESULT:      -6.1      0.000      0.000
REMARK  Name = 
REMARK  10 active torsions:
REMARK  status: ('A' for Active; 'I' for Inactive)
REMARK    1  A    between atoms: C_1  and  C_2
REMARK    2  A    between atoms: C_2  and  C_3
REMARK    3  A    between atoms: C_3  and  C_4
REMARK    4  A    between atoms: C_3  and  C_5
REMARK    5  A    between atoms: C_5  and  N_6
REMARK    6  A    between atoms: C_7  and  O_9
REMARK    7  A    between atoms: O_9  and  C_10
REMARK    8  A    between atoms: C_10  and  C_11
REMARK    9  A    between atoms: C_11  and  C_12
REMARK   10  A    between atoms: C_12  and  C_13
REMARK                            x       y       z     vdW  Elec       q    Type
REMARK                         _______ _______ _______ _____ _____    ______ ____
ROOT
ATOM      1  O   UNL     1       5.961   4.542  19.533  0.00  0.00    +0.000 OA
ENDROOT
BRANCH   1   3
ATOM      2  N   UNL     1       4.200   3.902  18.351  0.00  0.00    +0.000 N 
ATOM      3  C   UNL     1       4.664   4.801  19.251  0.00  0.00    +0.000 C 
ATOM      4  O   UNL     1       3.983   5.659  19.799  0.00  0.00    +0.000 OA
ATOM      5  H   UNL     1       4.838   3.162  18.082  0.00  0.00    +0.000 HD
BRANCH   2   6
ATOM      6  C   UNL     1       2.844   3.939  17.843  0.00  0.00    +0.000 C 
BRANCH   6   7
ATOM      7  C   UNL     1       2.163   2.566  17.911  0.00  0.00    +0.000 C 
ATOM      8  C   UNL     1       3.124   1.542  18.509  0.00  0.00    +0.000 C 
BRANCH   7  10
ATOM      9  C   UNL     1       1.053   3.324  20.081  0.00  0.00    +0.000 C 
ATOM     10  C   UNL     1       0.895   2.571  18.776  0.00  0.00    +0.000 C 
ENDBRANCH   7  10
ENDBRANCH   6   7
ENDBRANCH   2   6
ENDBRANCH   1   3
BRANCH   1  11
ATOM     11  C   UNL     1       6.847   5.659  19.360  0.00  0.00    +0.000 C 
BRANCH  11  12
ATOM     12  C   UNL     1       7.212   5.861  17.895  0.00  0.00    +0.000 C 
BRANCH  12  13
ATOM     13  C   UNL     1       7.604   4.548  17.217  0.00  0.00    +0.000 C 
BRANCH  13  14
ATOM     14  C   UNL     1       7.069   4.480  15.831  0.00  0.00    +0.000 A 
ATOM     15  C   UNL     1       6.018   3.742  15.339  0.00  0.00    +0.000 A 
ATOM     16  N   UNL     1       5.948   4.064  14.007  0.00  0.00    +0.000 N 
ATOM     17  C   UNL     1       6.936   4.962  13.747  0.00  0.00    +0.000 A 
ATOM     18  N   UNL     1       7.623   5.242  14.831  0.00  0.00    +0.000 NA
ATOM     19  H   UNL     1       5.287   3.704  13.340  0.00  0.00    +0.000 HD
ENDBRANCH  13  14
ENDBRANCH  12  13
ENDBRANCH  11  12
ENDBRANCH   1  11
TORSDOF 8
ENDMDL
MODEL 2
REMARK VINA RESULT:      -6.0      3.005      5.834
REMARK  Name = 
REMARK  10 active torsions:
REMARK  status: ('A' for Active; 'I' for Inactive)
REMARK    1  A    between atoms: C_1  and  C_2
REMARK    2  A    between atoms: C_2  and  C_3
REMARK    3  A    between atoms: C_3  and  C_4
REMARK    4  A    between atoms: C_3  and  C_5
REMARK    5  A    between atoms: C_5  and  N_6
REMARK    6  A    between atoms: C_7  and  O_9
REMARK    7  A    between atoms: O_9  and  C_10
REMARK    8  A    between atoms: C_10  and  C_11
REMARK    9  A    between atoms: C_11  and  C_12
REMARK   10  A    between atoms: C_12  and  C_13
REMARK                            x       y       z     vdW  Elec       q    Type
REMARK                         _______ _______ _______ _____ _____    ______ ____
ROOT
ATOM      1  O   UNL     1       5.931   3.609  15.846  0.00  0.00    +0.000 OA
ENDROOT
BRANCH   1   3
ATOM      2  N   UNL     1       6.177   3.321  13.663  0.00  0.00    +0.000 N 
ATOM      3  C   UNL     1       6.341   4.185  14.693  0.00  0.00    +0.000 C 
ATOM      4  O   UNL     1       6.713   5.346  14.580  0.00  0.00    +0.000 OA
ATOM      5  H   UNL     1       5.731   2.437  13.882  0.00  0.00    +0.000 HD
BRANCH   2   6
ATOM      6  C   UNL     1       6.547   3.653  12.302  0.00  0.00    +0.000 C 
BRANCH   6   7
ATOM      7  C   UNL     1       5.644   2.961  11.273  0.00  0.00    +0.000 C 
ATOM      8  C   UNL     1       5.859   1.452  11.328  0.00  0.00    +0.000 C 
BRANCH   7  10
ATOM      9  C   UNL     1       3.397   3.628  10.265  0.00  0.00    +0.000 C 
ATOM     10  C   UNL     1       4.152   3.226  11.515  0.00  0.00    +0.000 C 
ENDBRANCH   7  10
ENDBRANCH   6   7
ENDBRANCH   2   6
ENDBRANCH   1   3
BRANCH   1  11
ATOM     11  C   UNL     1       4.632   4.027  16.295  0.00  0.00    +0.000 C 
BRANCH  11  12
ATOM     12  C   UNL     1       4.483   3.865  17.802  0.00  0.00    +0.000 C 
BRANCH  12  13
ATOM     13  C   UNL     1       4.561   5.205  18.533  0.00  0.00    +0.000 C 
BRANCH  13  14
ATOM     14  C   UNL     1       5.968   5.674  18.643  0.00  0.00    +0.000 A 
ATOM     15  C   UNL     1       6.648   6.580  17.864  0.00  0.00    +0.000 A 
ATOM     16  N   UNL     1       7.904   6.650  18.410  0.00  0.00    +0.000 N 
ATOM     17  C   UNL     1       7.939   5.804  19.474  0.00  0.00    +0.000 A 
ATOM     18  N   UNL     1       6.781   5.208  19.647  0.00  0.00    +0.000 NA
ATOM     19  H   UNL     1       8.664   7.223  18.086  0.00  0.00    +0.000 HD
ENDBRANCH  13  14
ENDBRANCH  12  13
ENDBRANCH  11  12
ENDBRANCH   1  11
TORSDOF 8
ENDMDL
MODEL 3
REMARK VINA RESULT:      -6.0      2.876      6.480
REMARK  Name = 
REMARK  10 active torsions:
REMARK  status: ('A' for Active; 'I' for Inactive)
REMARK    1  A    between atoms: C_1  and  C_2
REMARK    2  A    between atoms: C_2  and  C_3
REMARK    3  A    between atoms: C_3  and  C_4
REMARK    4  A    between atoms: C_3  and  C_5
REMARK    5  A    between atoms: C_5  and  N_6
REMARK    6  A    between atoms: C_7  and  O_9
REMARK    7  A    between atoms: O_9  and  C_10
REMARK    8  A    between atoms: C_10  and  C_11
REMARK    9  A    between atoms: C_11  and  C_12
REMARK   10  A    between atoms: C_12  and  C_13
REMARK                            x       y       z     vdW  Elec       q    Type
REMARK                         _______ _______ _______ _____ _____    ______ ____
ROOT
ATOM      1  O   UNL     1       5.560   3.686  16.049  0.00  0.00    +0.000 OA
ENDROOT
BRANCH   1   3
ATOM      2  N   UNL     1       6.136   3.373  13.932  0.00  0.00    +0.000 N 
ATOM      3  C   UNL     1       5.983   4.291  14.916  0.00  0.00    +0.000 C 
ATOM      4  O   UNL     1       6.115   5.500  14.771  0.00  0.00    +0.000 OA
ATOM      5  H   UNL     1       5.862   2.423  14.156  0.00  0.00    +0.000 HD
BRANCH   2   6
ATOM      6  C   UNL     1       6.597   3.724  12.605  0.00  0.00    +0.000 C 
BRANCH   6   7
ATOM      7  C   UNL     1       5.716   3.114  11.507  0.00  0.00    +0.000 C 
ATOM      8  C   UNL     1       5.896   1.600  11.480  0.00  0.00    +0.000 C 
BRANCH   7  10
ATOM      9  C   UNL     1       3.412   3.352  10.435  0.00  0.00    +0.000 C 
ATOM     10  C   UNL     1       4.222   3.400  11.714  0.00  0.00    +0.000 C 
ENDBRANCH   7  10
ENDBRANCH   6   7
ENDBRANCH   2   6
ENDBRANCH   1   3
BRANCH   1  11
ATOM     11  C   UNL     1       5.411   4.563  17.176  0.00  0.00    +0.000 C 
BRANCH  11  12
ATOM     12  C   UNL     1       3.949   4.708  17.580  0.00  0.00    +0.000 C 
BRANCH  12  13
ATOM     13  C   UNL     1       3.254   3.353  17.714  0.00  0.00    +0.000 C 
BRANCH  13  14
ATOM     14  C   UNL     1       2.187   3.399  18.749  0.00  0.00    +0.000 A 
ATOM     15  C   UNL     1       1.053   2.630  18.865  0.00  0.00    +0.000 A 
ATOM     16  N   UNL     1       0.431   3.080  20.002  0.00  0.00    +0.000 N 
ATOM     17  C   UNL     1       1.191   4.082  20.519  0.00  0.00    +0.000 A 
ATOM     18  N   UNL     1       2.265   4.291  19.791  0.00  0.00    +0.000 NA
ATOM     19  H   UNL     1      -0.431   2.734  20.387  0.00  0.00    +0.000 HD
ENDBRANCH  13  14
ENDBRANCH  12  13
ENDBRANCH  11  12
ENDBRANCH   1  11
TORSDOF 8
ENDMDL
MODEL 4
REMARK VINA RESULT:      -5.9      2.743      5.885
REMARK  Name = 
REMARK  10 active torsions:
REMARK  status: ('A' for Active; 'I' for Inactive)
REMARK    1  A    between atoms: C_1  and  C_2
REMARK    2  A    between atoms: C_2  and  C_3
REMARK    3  A    between atoms: C_3  and  C_4
REMARK    4  A    between atoms: C_3  and  C_5
REMARK    5  A    between atoms: C_5  and  N_6
REMARK    6  A    between atoms: C_7  and  O_9
REMARK    7  A    between atoms: O_9  and  C_10
REMARK    8  A    between atoms: C_10  and  C_11
REMARK    9  A    between atoms: C_11  and  C_12
REMARK   10  A    between atoms: C_12  and  C_13
REMARK                            x       y       z     vdW  Elec       q    Type
REMARK                         _______ _______ _______ _____ _____    ______ ____
ROOT
ATOM      1  O   UNL     1       6.038   4.151  15.939  0.00  0.00    +0.000 OA
ENDROOT
BRANCH   1   3
ATOM      2  N   UNL     1       6.249   3.581  13.808  0.00  0.00    +0.000 N 
ATOM      3  C   UNL     1       6.712   4.389  14.791  0.00  0.00    +0.000 C 
ATOM      4  O   UNL     1       7.549   5.270  14.636  0.00  0.00    +0.000 OA
ATOM      5  H   UNL     1       5.459   2.991  14.045  0.00  0.00    +0.000 HD
BRANCH   2   6
ATOM      6  C   UNL     1       6.794   3.596  12.466  0.00  0.00    +0.000 C 
BRANCH   6   7
ATOM      7  C   UNL     1       5.819   3.003  11.440  0.00  0.00    +0.000 C 
ATOM      8  C   UNL     1       5.982   1.487  11.388  0.00  0.00    +0.000 C 
BRANCH   7  10
ATOM      9  C   UNL     1       3.453   3.357  10.553  0.00  0.00    +0.000 C 
ATOM     10  C   UNL     1       4.350   3.300  11.772  0.00  0.00    +0.000 C 
ENDBRANCH   7  10
ENDBRANCH   6   7
ENDBRANCH   2   6
ENDBRANCH   1   3
BRANCH   1  11
ATOM     11  C   UNL     1       5.842   5.306  16.769  0.00  0.00    +0.000 C 
BRANCH  11  12
ATOM     12  C   UNL     1       5.974   4.961  18.247  0.00  0.00    +0.000 C 
BRANCH  12  13
ATOM     13  C   UNL     1       4.625   4.986  18.964  0.00  0.00    +0.000 C 
BRANCH  13  14
ATOM     14  C   UNL     1       3.787   3.824  18.569  0.00  0.00    +0.000 A 
ATOM     15  C   UNL     1       2.563   3.805  17.942  0.00  0.00    +0.000 A 
ATOM     16  N   UNL     1       2.251   2.477  17.807  0.00  0.00    +0.000 N 
ATOM     17  C   UNL     1       3.271   1.756  18.344  0.00  0.00    +0.000 A 
ATOM     18  N   UNL     1       4.219   2.541  18.802  0.00  0.00    +0.000 NA
ATOM     19  H   UNL     1       1.419   2.099  17.386  0.00  0.00    +0.000 HD
ENDBRANCH  13  14
ENDBRANCH  12  13
ENDBRANCH  11  12
ENDBRANCH   1  11
TORSDOF 8
ENDMDL
MODEL 5
REMARK VINA RESULT:      -5.9      3.038      6.456
REMARK  Name = 
REMARK  10 active torsions:
REMARK  status: ('A' for Active; 'I' for Inactive)
REMARK    1  A    between atoms: C_1  and  C_2
REMARK    2  A    between atoms: C_2  and  C_3
REMARK    3  A    between atoms: C_3  and  C_4
REMARK    4  A    between atoms: C_3  and  C_5
REMARK    5  A    between atoms: C_5  and  N_6
REMARK    6  A    between atoms: C_7  and  O_9
REMARK    7  A    between atoms: O_9  and  C_10
REMARK    8  A    between atoms: C_10  and  C_11
REMARK    9  A    between atoms: C_11  and  C_12
REMARK   10  A    between atoms: C_12  and  C_13
REMARK                            x       y       z     vdW  Elec       q    Type
REMARK                         _______ _______ _______ _____ _____    ______ ____
ROOT
ATOM      1  O   UNL     1       6.979   4.576  15.916  0.00  0.00    +0.000 OA
ENDROOT
BRANCH   1   3
ATOM      2  N   UNL     1       6.450   3.775  13.919  0.00  0.00    +0.000 N 
ATOM      3  C   UNL     1       7.170   4.711  14.584  0.00  0.00    +0.000 C 
ATOM      4  O   UNL     1       7.818   5.603  14.052  0.00  0.00    +0.000 OA
ATOM      5  H   UNL     1       5.851   3.183  14.482  0.00  0.00    +0.000 HD
BRANCH   2   6
ATOM      6  C   UNL     1       6.470   3.660  12.475  0.00  0.00    +0.000 C 
BRANCH   6   7
ATOM      7  C   UNL     1       5.611   2.490  11.977  0.00  0.00    +0.000 C 
ATOM      8  C   UNL     1       4.389   3.023  11.237  0.00  0.00    +0.000 C 
BRANCH   7  10
ATOM      9  C   UNL     1       6.135   0.090  11.285  0.00  0.00    +0.000 C 
ATOM     10  C   UNL     1       6.367   1.562  11.015  0.00  0.00    +0.000 C 
ENDBRANCH   7  10
ENDBRANCH   6   7
ENDBRANCH   2   6
ENDBRANCH   1   3
BRANCH   1  11
ATOM     11  C   UNL     1       5.669   4.121  16.290  0.00  0.00    +0.000 C 
BRANCH  11  12
ATOM     12  C   UNL     1       5.243   4.690  17.637  0.00  0.00    +0.000 C 
BRANCH  12  13
ATOM     13  C   UNL     1       3.961   5.514  17.531  0.00  0.00    +0.000 C 
BRANCH  13  14
ATOM     14  C   UNL     1       2.855   4.885  18.302  0.00  0.00    +0.000 A 
ATOM     15  C   UNL     1       1.855   4.048  17.865  0.00  0.00    +0.000 A 
ATOM     16  N   UNL     1       1.119   3.757  18.985  0.00  0.00    +0.000 N 
ATOM     17  C   UNL     1       1.684   4.413  20.033  0.00  0.00    +0.000 A 
ATOM     18  N   UNL     1       2.742   5.094  19.655  0.00  0.00    +0.000 NA
ATOM     19  H   UNL     1       0.307   3.165  19.027  0.00  0.00    +0.000 HD
ENDBRANCH  13  14
ENDBRANCH  12  13
ENDBRANCH  11  12
ENDBRANCH   1  11
TORSDOF 8
ENDMDL
MODEL 6
REMARK VINA RESULT:      -5.9      2.121      5.428
REMARK  Name = 
REMARK  10 active torsions:
REMARK  status: ('A' for Active; 'I' for Inactive)
REMARK    1  A    between atoms: C_1  and  C_2
REMARK    2  A    between atoms: C_2  and  C_3
REMARK    3  A    between atoms: C_3  and  C_4
REMARK    4  A    between atoms: C_3  and  C_5
REMARK    5  A    between atoms: C_5  and  N_6
REMARK    6  A    between atoms: C_7  and  O_9
REMARK    7  A    between atoms: O_9  and  C_10
REMARK    8  A    between atoms: C_10  and  C_11
REMARK    9  A    between atoms: C_11  and  C_12
REMARK   10  A    between atoms: C_12  and  C_13
REMARK                            x       y       z     vdW  Elec       q    Type
REMARK                         _______ _______ _______ _____ _____    ______ ____
ROOT
ATOM      1  O   UNL     1       2.155   5.608  19.041  0.00  0.00    +0.000 OA
ENDROOT
BRANCH   1   3
ATOM      2  N   UNL     1       3.654   5.967  17.449  0.00  0.00    +0.000 N 
ATOM      3  C   UNL     1       3.476   5.653  18.755  0.00  0.00    +0.000 C 
ATOM      4  O   UNL     1       4.379   5.525  19.573  0.00  0.00    +0.000 OA
ATOM      5  H   UNL     1       2.817   6.178  16.918  0.00  0.00    +0.000 HD
BRANCH   2   6
ATOM      6  C   UNL     1       4.967   6.071  16.846  0.00  0.00    +0.000 C 
BRANCH   6   7
ATOM      7  C   UNL     1       5.505   4.706  16.395  0.00  0.00    +0.000 C 
ATOM      8  C   UNL     1       5.642   4.680  14.876  0.00  0.00    +0.000 C 
BRANCH   7  10
ATOM      9  C   UNL     1       7.459   5.502  17.832  0.00  0.00    +0.000 C 
ATOM     10  C   UNL     1       6.882   4.382  16.990  0.00  0.00    +0.000 C 
ENDBRANCH   7  10
ENDBRANCH   6   7
ENDBRANCH   2   6
ENDBRANCH   1   3
BRANCH   1  11
ATOM     11  C   UNL     1       1.850   5.325  20.416  0.00  0.00    +0.000 C 
BRANCH  11  12
ATOM     12  C   UNL     1       0.943   4.108  20.547  0.00  0.00    +0.000 C 
BRANCH  12  13
ATOM     13  C   UNL     1       1.702   2.880  21.047  0.00  0.00    +0.000 C 
BRANCH  13  14
ATOM     14  C   UNL     1       2.689   2.413  20.038  0.00  0.00    +0.000 A 
ATOM     15  C   UNL     1       4.035   2.173  20.182  0.00  0.00    +0.000 A 
ATOM     16  N   UNL     1       4.458   1.751  18.947  0.00  0.00    +0.000 N 
ATOM     17  C   UNL     1       3.379   1.753  18.119  0.00  0.00    +0.000 A 
ATOM     18  N   UNL     1       2.294   2.137  18.751  0.00  0.00    +0.000 NA
ATOM     19  H   UNL     1       5.395   1.487  18.696  0.00  0.00    +0.000 HD
ENDBRANCH  13  14
ENDBRANCH  12  13
ENDBRANCH  11  12
ENDBRANCH   1  11
TORSDOF 8
ENDMDL
MODEL 7
REMARK VINA RESULT:      -5.9      1.879      5.810
REMARK  Name = 
REMARK  10 active torsions:
REMARK  status: ('A' for Active; 'I' for Inactive)
REMARK    1  A    between atoms: C_1  and  C_2
REMARK    2  A    between atoms: C_2  and  C_3
REMARK    3  A    between atoms: C_3  and  C_4
REMARK    4  A    between atoms: C_3  and  C_5
REMARK    5  A    between atoms: C_5  and  N_6
REMARK    6  A    between atoms: C_7  and  O_9
REMARK    7  A    between atoms: O_9  and  C_10
REMARK    8  A    between atoms: C_10  and  C_11
REMARK    9  A    between atoms: C_11  and  C_12
REMARK   10  A    between atoms: C_12  and  C_13
REMARK                            x       y       z     vdW  Elec       q    Type
REMARK                         _______ _______ _______ _____ _____    ______ ____
ROOT
ATOM      1  O   UNL     1       6.092   5.128  19.019  0.00  0.00    +0.000 OA
ENDROOT
BRANCH   1   3
ATOM      2  N   UNL     1       5.806   4.128  17.063  0.00  0.00    +0.000 N 
ATOM      3  C   UNL     1       6.720   4.603  17.943  0.00  0.00    +0.000 C 
ATOM      4  O   UNL     1       7.928   4.637  17.746  0.00  0.00    +0.000 OA
ATOM      5  H   UNL     1       4.832   4.286  17.295  0.00  0.00    +0.000 HD
BRANCH   2   6
ATOM      6  C   UNL     1       6.183   3.488  15.819  0.00  0.00    +0.000 C 
BRANCH   6   7
ATOM      7  C   UNL     1       5.547   4.172  14.602  0.00  0.00    +0.000 C 
ATOM      8  C   UNL     1       5.447   5.675  14.846  0.00  0.00    +0.000 C 
BRANCH   7  10
ATOM      9  C   UNL     1       5.559   3.321  12.196  0.00  0.00    +0.000 C 
ATOM     10  C   UNL     1       6.354   3.966  13.312  0.00  0.00    +0.000 C 
ENDBRANCH   7  10
ENDBRANCH   6   7
ENDBRANCH   2   6
ENDBRANCH   1   3
BRANCH   1  11
ATOM     11  C   UNL     1       4.769   4.619  19.248  0.00  0.00    +0.000 C 
BRANCH  11  12
ATOM     12  C   UNL     1       3.731   5.734  19.230  0.00  0.00    +0.000 C 
BRANCH  12  13
ATOM     13  C   UNL     1       2.560   5.412  18.301  0.00  0.00    +0.000 C 
BRANCH  13  14
ATOM     14  C   UNL     1       1.738   4.298  18.844  0.00  0.00    +0.000 A 
ATOM     15  C   UNL     1       1.174   4.159  20.091  0.00  0.00    +0.000 A 
ATOM     16  N   UNL     1       0.515   2.957  20.053  0.00  0.00    +0.000 N 
ATOM     17  C   UNL     1       0.699   2.424  18.816  0.00  0.00    +0.000 A 
ATOM     18  N   UNL     1       1.424   3.215  18.059  0.00  0.00    +0.000 NA
ATOM     19  H   UNL     1      -0.012   2.542  20.802  0.00  0.00    +0.000 HD
ENDBRANCH  13  14
ENDBRANCH  12  13
ENDBRANCH  11  12
ENDBRANCH   1  11
TORSDOF 8
ENDMDL
MODEL 8
REMARK VINA RESULT:      -5.9      1.816      2.798
REMARK  Name = 
REMARK  10 active torsions:
REMARK  status: ('A' for Active; 'I' for Inactive)
REMARK    1  A    between atoms: C_1  and  C_2
REMARK    2  A    between atoms: C_2  and  C_3
REMARK    3  A    between atoms: C_3  and  C_4
REMARK    4  A    between atoms: C_3  and  C_5
REMARK    5  A    between atoms: C_5  and  N_6
REMARK    6  A    between atoms: C_7  and  O_9
REMARK    7  A    between atoms: O_9  and  C_10
REMARK    8  A    between atoms: C_10  and  C_11
REMARK    9  A    between atoms: C_11  and  C_12
REMARK   10  A    between atoms: C_12  and  C_13
REMARK                            x       y       z     vdW  Elec       q    Type
REMARK                         _______ _______ _______ _____ _____    ______ ____
ROOT
ATOM      1  O   UNL     1       4.195   3.218  17.553  0.00  0.00    +0.000 OA
ENDROOT
BRANCH   1   3
ATOM      2  N   UNL     1       2.319   2.550  18.526  0.00  0.00    +0.000 N 
ATOM      3  C   UNL     1       3.671   2.547  18.604  0.00  0.00    +0.000 C 
ATOM      4  O   UNL     1       4.321   1.943  19.448  0.00  0.00    +0.000 OA
ATOM      5  H   UNL     1       1.917   2.976  17.698  0.00  0.00    +0.000 HD
BRANCH   2   6
ATOM      6  C   UNL     1       1.480   1.923  19.526  0.00  0.00    +0.000 C 
BRANCH   6   7
ATOM      7  C   UNL     1       1.008   2.920  20.592  0.00  0.00    +0.000 C 
ATOM      8  C   UNL     1       1.947   2.876  21.794  0.00  0.00    +0.000 C 
BRANCH   7  10
ATOM      9  C   UNL     1       1.935   5.288  20.809  0.00  0.00    +0.000 C 
ATOM     10  C   UNL     1       0.976   4.368  20.082  0.00  0.00    +0.000 C 
ENDBRANCH   7  10
ENDBRANCH   6   7
ENDBRANCH   2   6
ENDBRANCH   1   3
BRANCH   1  11
ATOM     11  C   UNL     1       3.519   4.443  17.228  0.00  0.00    +0.000 C 
BRANCH  11  12
ATOM     12  C   UNL     1       4.116   5.625  17.980  0.00  0.00    +0.000 C 
BRANCH  12  13
ATOM     13  C   UNL     1       4.916   6.546  17.058  0.00  0.00    +0.000 C 
BRANCH  13  14
ATOM     14  C   UNL     1       5.984   5.795  16.347  0.00  0.00    +0.000 A 
ATOM     15  C   UNL     1       7.073   5.131  16.863  0.00  0.00    +0.000 A 
ATOM     16  N   UNL     1       7.721   4.607  15.774  0.00  0.00    +0.000 N 
ATOM     17  C   UNL     1       7.020   4.964  14.665  0.00  0.00    +0.000 A 
ATOM     18  N   UNL     1       5.959   5.672  14.979  0.00  0.00    +0.000 NA
ATOM     19  H   UNL     1       8.562   4.056  15.789  0.00  0.00    +0.000 HD
ENDBRANCH  13  14
ENDBRANCH  12  13
ENDBRANCH  11  12
ENDBRANCH   1  11
TORSDOF 8
ENDMDL
MODEL 9
REMARK VINA RESULT:      -5.8      2.106      5.547
REMARK  Name = 
REMARK  10 active torsions:
REMARK  status: ('A' for Active; 'I' for Inactive)
REMARK    1  A    between atoms: C_1  and  C_2
REMARK    2  A    between atoms: C_2  and  C_3
REMARK    3  A    between atoms: C_3  and  C_4
REMARK    4  A    between atoms: C_3  and  C_5
REMARK    5  A    between atoms: C_5  and  N_6
REMARK    6  A    between atoms: C_7  and  O_9
REMARK    7  A    between atoms: O_9  and  C_10
REMARK    8  A    between atoms: C_10  and  C_11
REMARK    9  A    between atoms: C_11  and  C_12
REMARK   10  A    between atoms: C_12  and  C_13
REMARK                            x       y       z     vdW  Elec       q    Type
REMARK                         _______ _______ _______ _____ _____    ______ ____
ROOT
ATOM      1  O   UNL     1       2.625   6.060  19.160  0.00  0.00    +0.000 OA
ENDROOT
BRANCH   1   3
ATOM      2  N   UNL     1       3.766   5.119  17.510  0.00  0.00    +0.000 N 
ATOM      3  C   UNL     1       3.793   5.471  18.818  0.00  0.00    +0.000 C 
ATOM      4  O   UNL     1       4.767   5.358  19.552  0.00  0.00    +0.000 OA
ATOM      5  H   UNL     1       2.943   5.394  16.986  0.00  0.00    +0.000 HD
BRANCH   2   6
ATOM      6  C   UNL     1       4.874   4.449  16.861  0.00  0.00    +0.000 C 
BRANCH   6   7
ATOM      7  C   UNL     1       5.764   5.426  16.082  0.00  0.00    +0.000 C 
ATOM      8  C   UNL     1       5.029   6.748  15.882  0.00  0.00    +0.000 C 
BRANCH   7  10
ATOM      9  C   UNL     1       7.126   7.113  17.428  0.00  0.00    +0.000 C 
ATOM     10  C   UNL     1       7.084   5.734  16.801  0.00  0.00    +0.000 C 
ENDBRANCH   7  10
ENDBRANCH   6   7
ENDBRANCH   2   6
ENDBRANCH   1   3
BRANCH   1  11
ATOM     11  C   UNL     1       2.174   5.766  20.491  0.00  0.00    +0.000 C 
BRANCH  11  12
ATOM     12  C   UNL     1       1.048   4.740  20.485  0.00  0.00    +0.000 C 
BRANCH  12  13
ATOM     13  C   UNL     1       1.539   3.348  20.881  0.00  0.00    +0.000 C 
BRANCH  13  14
ATOM     14  C   UNL     1       2.087   2.620  19.706  0.00  0.00    +0.000 A 
ATOM     15  C   UNL     1       1.504   2.370  18.486  0.00  0.00    +0.000 A 
ATOM     16  N   UNL     1       2.448   1.675  17.773  0.00  0.00    +0.000 N 
ATOM     17  C   UNL     1       3.542   1.532  18.568  0.00  0.00    +0.000 A 
ATOM     18  N   UNL     1       3.359   2.102  19.738  0.00  0.00    +0.000 NA
ATOM     19  H   UNL     1       2.353   1.333  16.833  0.00  0.00    +0.000 HD
ENDBRANCH  13  14
ENDBRANCH  12  13
ENDBRANCH  11  12
ENDBRANCH   1  11
TORSDOF 8
ENDMDL
