MODEL 1
REMARK VINA RESULT:      -7.3      0.000      0.000
REMARK  Name = 
REMARK  4 active torsions:
REMARK  status: ('A' for Active; 'I' for Inactive)
REMARK    1  A    between atoms: C_1  and  S_2
REMARK    2  A    between atoms: S_2  and  C_3
REMARK    3  A    between atoms: C_8  and  N_9
REMARK    4  A    between atoms: C_16  and  N_17
REMARK                            x       y       z     vdW  Elec       q    Type
REMARK                         _______ _______ _______ _____ _____    ______ ____
ROOT
ATOM      1  N   UNL     1       2.543   7.175  18.685  0.00  0.00    +0.000 N 
ATOM      2  C   UNL     1       2.160   6.954  19.989  0.00  0.00    +0.000 C 
ATOM      3  O   UNL     1       2.135   5.958  20.694  0.00  0.00    +0.000 OA
ATOM      4  C   UNL     1       1.547   8.148  20.503  0.00  0.00    +0.000 A 
ATOM      5  C   UNL     1       1.159   8.416  21.804  0.00  0.00    +0.000 A 
ATOM      6  C   UNL     1       0.391   9.553  22.019  0.00  0.00    +0.000 A 
ATOM      7  C   UNL     1      -0.003  10.343  20.927  0.00  0.00    +0.000 A 
ATOM      8  C   UNL     1       0.449  10.037  19.627  0.00  0.00    +0.000 A 
ATOM      9  C   UNL     1       1.283   8.956  19.431  0.00  0.00    +0.000 A 
ATOM     10  C   UNL     1       2.028   8.402  18.291  0.00  0.00    +0.000 C 
ATOM     11  O   UNL     1       2.181   9.100  17.317  0.00  0.00    +0.000 OA
ENDROOT
BRANCH   1  17
ATOM     12  C   UNL     1       3.047   4.888  17.610  0.00  0.00    +0.000 A 
ATOM     13  C   UNL     1       3.994   4.103  16.893  0.00  0.00    +0.000 A 
ATOM     14  C   UNL     1       5.259   4.579  16.555  0.00  0.00    +0.000 A 
ATOM     15  C   UNL     1       5.596   5.865  16.903  0.00  0.00    +0.000 A 
ATOM     16  C   UNL     1       4.663   6.656  17.572  0.00  0.00    +0.000 A 
ATOM     17  C   UNL     1       3.367   6.214  17.973  0.00  0.00    +0.000 A 
BRANCH  12  19
ATOM     18  C   UNL     1       2.263   2.356  18.368  0.00  0.00    +0.000 C 
ATOM     19  S   UNL     1       1.551   3.966  17.955  0.00  0.00    +0.000 S 
ENDBRANCH  12  19
ENDBRANCH   1  17
BRANCH   8  20
ATOM     20  N   UNL     1      -0.152  10.723  18.507  0.00  0.00    +0.000 N 
ATOM     21  O   UNL     1       0.092  11.930  18.391  0.00  0.00    +0.000 OA
ATOM     22  O   UNL     1      -0.967  10.078  17.834  0.00  0.00    +0.000 OA
ENDBRANCH   8  20
TORSDOF 3
ENDMDL
MODEL 2
REMARK VINA RESULT:      -7.3      2.323      3.474
REMARK  Name = 
REMARK  4 active torsions:
REMARK  status: ('A' for Active; 'I' for Inactive)
REMARK    1  A    between atoms: C_1  and  S_2
REMARK    2  A    between atoms: S_2  and  C_3
REMARK    3  A    between atoms: C_8  and  N_9
REMARK    4  A    between atoms: C_16  and  N_17
REMARK                            x       y       z     vdW  Elec       q    Type
REMARK                         _______ _______ _______ _____ _____    ______ ____
ROOT
ATOM      1  N   UNL     1       2.510   6.243  19.054  0.00  0.00    +0.000 N 
ATOM      2  C   UNL     1       2.787   7.266  18.175  0.00  0.00    +0.000 C 
ATOM      3  O   UNL     1       3.586   7.387  17.261  0.00  0.00    +0.000 OA
ATOM      4  C   UNL     1       2.048   8.433  18.573  0.00  0.00    +0.000 A 
ATOM      5  C   UNL     1       1.912   9.630  17.891  0.00  0.00    +0.000 A 
ATOM      6  C   UNL     1       1.329  10.689  18.573  0.00  0.00    +0.000 A 
ATOM      7  C   UNL     1       0.955  10.531  19.917  0.00  0.00    +0.000 A 
ATOM      8  C   UNL     1       1.090   9.277  20.550  0.00  0.00    +0.000 A 
ATOM      9  C   UNL     1       1.590   8.205  19.842  0.00  0.00    +0.000 A 
ATOM     10  C   UNL     1       1.769   6.770  20.103  0.00  0.00    +0.000 C 
ATOM     11  O   UNL     1       1.179   6.283  21.038  0.00  0.00    +0.000 OA
ENDROOT
BRANCH   1  17
ATOM     12  C   UNL     1       4.269   4.371  18.856  0.00  0.00    +0.000 A 
ATOM     13  C   UNL     1       4.503   2.995  18.573  0.00  0.00    +0.000 A 
ATOM     14  C   UNL     1       3.484   2.124  18.195  0.00  0.00    +0.000 A 
ATOM     15  C   UNL     1       2.199   2.604  18.117  0.00  0.00    +0.000 A 
ATOM     16  C   UNL     1       1.951   3.941  18.429  0.00  0.00    +0.000 A 
ATOM     17  C   UNL     1       2.957   4.887  18.790  0.00  0.00    +0.000 A 
BRANCH  12  19
ATOM     18  C   UNL     1       6.724   4.908  17.724  0.00  0.00    +0.000 C 
ATOM     19  S   UNL     1       5.790   5.235  19.237  0.00  0.00    +0.000 S 
ENDBRANCH  12  19
ENDBRANCH   1  17
BRANCH   8  20
ATOM     20  N   UNL     1       0.914   9.205  21.982  0.00  0.00    +0.000 N 
ATOM     21  O   UNL     1       1.926   9.338  22.680  0.00  0.00    +0.000 OA
ATOM     22  O   UNL     1      -0.212   8.883  22.387  0.00  0.00    +0.000 OA
ENDBRANCH   8  20
TORSDOF 3
ENDMDL
MODEL 3
REMARK VINA RESULT:      -7.0      1.789      2.832
REMARK  Name = 
REMARK  4 active torsions:
REMARK  status: ('A' for Active; 'I' for Inactive)
REMARK    1  A    between atoms: C_1  and  S_2
REMARK    2  A    between atoms: S_2  and  C_3
REMARK    3  A    between atoms: C_8  and  N_9
REMARK    4  A    between atoms: C_16  and  N_17
REMARK                            x       y       z     vdW  Elec       q    Type
REMARK                         _______ _______ _______ _____ _____    ______ ____
ROOT
ATOM      1  N   UNL     1       2.309   7.561  18.820  0.00  0.00    +0.000 N 
ATOM      2  C   UNL     1       1.893   8.678  18.129  0.00  0.00    +0.000 C 
ATOM      3  O   UNL     1       2.241   9.182  17.074  0.00  0.00    +0.000 OA
ATOM      4  C   UNL     1       0.970   9.414  18.947  0.00  0.00    +0.000 A 
ATOM      5  C   UNL     1       0.199  10.507  18.591  0.00  0.00    +0.000 A 
ATOM      6  C   UNL     1      -0.456  11.184  19.610  0.00  0.00    +0.000 A 
ATOM      7  C   UNL     1      -0.274  10.781  20.943  0.00  0.00    +0.000 A 
ATOM      8  C   UNL     1       0.499   9.640  21.241  0.00  0.00    +0.000 A 
ATOM      9  C   UNL     1       1.076   8.919  20.218  0.00  0.00    +0.000 A 
ATOM     10  C   UNL     1       1.829   7.660  20.118  0.00  0.00    +0.000 C 
ATOM     11  O   UNL     1       1.800   6.903  21.060  0.00  0.00    +0.000 OA
ENDROOT
BRANCH   1  17
ATOM     12  C   UNL     1       2.824   5.139  18.107  0.00  0.00    +0.000 A 
ATOM     13  C   UNL     1       3.712   4.279  17.400  0.00  0.00    +0.000 A 
ATOM     14  C   UNL     1       4.870   4.744  16.781  0.00  0.00    +0.000 A 
ATOM     15  C   UNL     1       5.155   6.088  16.833  0.00  0.00    +0.000 A 
ATOM     16  C   UNL     1       4.272   6.945  17.491  0.00  0.00    +0.000 A 
ATOM     17  C   UNL     1       3.090   6.524  18.169  0.00  0.00    +0.000 A 
BRANCH  12  19
ATOM     18  C   UNL     1       1.858   2.562  18.259  0.00  0.00    +0.000 C 
ATOM     19  S   UNL     1       1.473   4.228  18.849  0.00  0.00    +0.000 S 
ENDBRANCH  12  19
ENDBRANCH   1  17
BRANCH   8  20
ATOM     20  N   UNL     1       0.853   9.387  22.619  0.00  0.00    +0.000 N 
ATOM     21  O   UNL     1      -0.076   9.194  23.412  0.00  0.00    +0.000 OA
ATOM     22  O   UNL     1       2.049   9.517  22.917  0.00  0.00    +0.000 OA
ENDBRANCH   8  20
TORSDOF 3
ENDMDL
MODEL 4
REMARK VINA RESULT:      -6.9      1.259      2.092
REMARK  Name = 
REMARK  4 active torsions:
REMARK  status: ('A' for Active; 'I' for Inactive)
REMARK    1  A    between atoms: C_1  and  S_2
REMARK    2  A    between atoms: S_2  and  C_3
REMARK    3  A    between atoms: C_8  and  N_9
REMARK    4  A    between atoms: C_16  and  N_17
REMARK                            x       y       z     vdW  Elec       q    Type
REMARK                         _______ _______ _______ _____ _____    ______ ____
ROOT
ATOM      1  N   UNL     1       2.338   6.930  18.776  0.00  0.00    +0.000 N 
ATOM      2  C   UNL     1       1.964   6.814  20.096  0.00  0.00    +0.000 C 
ATOM      3  O   UNL     1       1.789   5.857  20.832  0.00  0.00    +0.000 OA
ATOM      4  C   UNL     1       1.584   8.110  20.588  0.00  0.00    +0.000 A 
ATOM      5  C   UNL     1       1.290   8.475  21.890  0.00  0.00    +0.000 A 
ATOM      6  C   UNL     1       0.738   9.734  22.089  0.00  0.00    +0.000 A 
ATOM      7  C   UNL     1       0.452  10.552  20.984  0.00  0.00    +0.000 A 
ATOM      8  C   UNL     1       0.803  10.137  19.683  0.00  0.00    +0.000 A 
ATOM      9  C   UNL     1       1.430   8.923  19.498  0.00  0.00    +0.000 A 
ATOM     10  C   UNL     1       2.031   8.217  18.357  0.00  0.00    +0.000 C 
ATOM     11  O   UNL     1       2.273   8.852  17.358  0.00  0.00    +0.000 OA
ENDROOT
BRANCH   1  17
ATOM     12  C   UNL     1       4.255   5.759  17.514  0.00  0.00    +0.000 A 
ATOM     13  C   UNL     1       4.690   4.564  16.872  0.00  0.00    +0.000 A 
ATOM     14  C   UNL     1       3.872   3.445  16.738  0.00  0.00    +0.000 A 
ATOM     15  C   UNL     1       2.605   3.485  17.268  0.00  0.00    +0.000 A 
ATOM     16  C   UNL     1       2.181   4.636  17.933  0.00  0.00    +0.000 A 
ATOM     17  C   UNL     1       2.960   5.822  18.073  0.00  0.00    +0.000 A 
BRANCH  12  19
ATOM     18  C   UNL     1       6.951   6.037  17.012  0.00  0.00    +0.000 C 
ATOM     19  S   UNL     1       5.509   7.034  17.456  0.00  0.00    +0.000 S 
ENDBRANCH  12  19
ENDBRANCH   1  17
BRANCH   8  20
ATOM     20  N   UNL     1       0.295  10.888  18.558  0.00  0.00    +0.000 N 
ATOM     21  O   UNL     1       0.774  12.012  18.371  0.00  0.00    +0.000 OA
ATOM     22  O   UNL     1      -0.671  10.399  17.955  0.00  0.00    +0.000 OA
ENDBRANCH   8  20
TORSDOF 3
ENDMDL
MODEL 5
REMARK VINA RESULT:      -6.9      2.233      6.155
REMARK  Name = 
REMARK  4 active torsions:
REMARK  status: ('A' for Active; 'I' for Inactive)
REMARK    1  A    between atoms: C_1  and  S_2
REMARK    2  A    between atoms: S_2  and  C_3
REMARK    3  A    between atoms: C_8  and  N_9
REMARK    4  A    between atoms: C_16  and  N_17
REMARK                            x       y       z     vdW  Elec       q    Type
REMARK                         _______ _______ _______ _____ _____    ______ ____
ROOT
ATOM      1  N   UNL     1       2.050   7.518  19.528  0.00  0.00    +0.000 N 
ATOM      2  C   UNL     1       2.003   6.180  19.851  0.00  0.00    +0.000 C 
ATOM      3  O   UNL     1       1.656   5.575  20.852  0.00  0.00    +0.000 OA
ATOM      4  C   UNL     1       2.640   5.427  18.805  0.00  0.00    +0.000 A 
ATOM      5  C   UNL     1       2.682   4.053  18.648  0.00  0.00    +0.000 A 
ATOM      6  C   UNL     1       3.540   3.548  17.680  0.00  0.00    +0.000 A 
ATOM      7  C   UNL     1       4.358   4.425  16.949  0.00  0.00    +0.000 A 
ATOM      8  C   UNL     1       4.248   5.819  17.132  0.00  0.00    +0.000 A 
ATOM      9  C   UNL     1       3.332   6.320  18.032  0.00  0.00    +0.000 A 
ATOM     10  C   UNL     1       2.858   7.659  18.409  0.00  0.00    +0.000 C 
ATOM     11  O   UNL     1       3.109   8.581  17.669  0.00  0.00    +0.000 OA
ENDROOT
BRANCH   1  17
ATOM     12  C   UNL     1       0.436   9.504  19.828  0.00  0.00    +0.000 A 
ATOM     13  C   UNL     1      -0.213  10.369  20.755  0.00  0.00    +0.000 A 
ATOM     14  C   UNL     1       0.003  10.293  22.129  0.00  0.00    +0.000 A 
ATOM     15  C   UNL     1       0.855   9.329  22.612  0.00  0.00    +0.000 A 
ATOM     16  C   UNL     1       1.467   8.451  21.717  0.00  0.00    +0.000 A 
ATOM     17  C   UNL     1       1.310   8.501  20.300  0.00  0.00    +0.000 A 
BRANCH  12  19
ATOM     18  C   UNL     1      -1.678  10.519  18.379  0.00  0.00    +0.000 C 
ATOM     19  S   UNL     1       0.006   9.905  18.138  0.00  0.00    +0.000 S 
ENDBRANCH  12  19
ENDBRANCH   1  17
BRANCH   8  20
ATOM     20  N   UNL     1       5.250   6.674  16.540  0.00  0.00    +0.000 N 
ATOM     21  O   UNL     1       5.188   6.851  15.318  0.00  0.00    +0.000 OA
ATOM     22  O   UNL     1       6.167   7.051  17.283  0.00  0.00    +0.000 OA
ENDBRANCH   8  20
TORSDOF 3
ENDMDL
MODEL 6
REMARK VINA RESULT:      -6.9      3.376      5.086
REMARK  Name = 
REMARK  4 active torsions:
REMARK  status: ('A' for Active; 'I' for Inactive)
REMARK    1  A    between atoms: C_1  and  S_2
REMARK    2  A    between atoms: S_2  and  C_3
REMARK    3  A    between atoms: C_8  and  N_9
REMARK    4  A    between atoms: C_16  and  N_17
REMARK                            x       y       z     vdW  Elec       q    Type
REMARK                         _______ _______ _______ _____ _____    ______ ____
ROOT
ATOM      1  N   UNL     1       4.262   5.014  17.614  0.00  0.00    +0.000 N 
ATOM      2  C   UNL     1       4.015   6.306  18.023  0.00  0.00    +0.000 C 
ATOM      3  O   UNL     1       4.601   7.362  17.851  0.00  0.00    +0.000 OA
ATOM      4  C   UNL     1       2.915   6.297  18.948  0.00  0.00    +0.000 A 
ATOM      5  C   UNL     1       2.242   7.382  19.483  0.00  0.00    +0.000 A 
ATOM      6  C   UNL     1       1.355   7.133  20.522  0.00  0.00    +0.000 A 
ATOM      7  C   UNL     1       1.216   5.827  21.020  0.00  0.00    +0.000 A 
ATOM      8  C   UNL     1       1.905   4.757  20.413  0.00  0.00    +0.000 A 
ATOM      9  C   UNL     1       2.718   4.997  19.326  0.00  0.00    +0.000 A 
ATOM     10  C   UNL     1       3.483   4.164  18.387  0.00  0.00    +0.000 C 
ATOM     11  O   UNL     1       3.236   2.983  18.341  0.00  0.00    +0.000 OA
ENDROOT
BRANCH   1  17
ATOM     12  C   UNL     1       6.593   4.633  16.583  0.00  0.00    +0.000 A 
ATOM     13  C   UNL     1       7.327   4.336  15.399  0.00  0.00    +0.000 A 
ATOM     14  C   UNL     1       6.714   4.171  14.159  0.00  0.00    +0.000 A 
ATOM     15  C   UNL     1       5.346   4.274  14.079  0.00  0.00    +0.000 A 
ATOM     16  C   UNL     1       4.613   4.527  15.239  0.00  0.00    +0.000 A 
ATOM     17  C   UNL     1       5.186   4.737  16.528  0.00  0.00    +0.000 A 
BRANCH  12  19
ATOM     18  C   UNL     1       7.725   6.664  18.063  0.00  0.00    +0.000 C 
ATOM     19  S   UNL     1       7.675   4.858  17.991  0.00  0.00    +0.000 S 
ENDBRANCH  12  19
ENDBRANCH   1  17
BRANCH   8  20
ATOM     20  N   UNL     1       1.920   3.477  21.083  0.00  0.00    +0.000 N 
ATOM     21  O   UNL     1       1.164   2.604  20.644  0.00  0.00    +0.000 OA
ATOM     22  O   UNL     1       2.591   3.404  22.123  0.00  0.00    +0.000 OA
ENDBRANCH   8  20
TORSDOF 3
ENDMDL
MODEL 7
REMARK VINA RESULT:      -6.8      2.347      6.552
REMARK  Name = 
REMARK  4 active torsions:
REMARK  status: ('A' for Active; 'I' for Inactive)
REMARK    1  A    between atoms: C_1  and  S_2
REMARK    2  A    between atoms: S_2  and  C_3
REMARK    3  A    between atoms: C_8  and  N_9
REMARK    4  A    between atoms: C_16  and  N_17
REMARK                            x       y       z     vdW  Elec       q    Type
REMARK                         _______ _______ _______ _____ _____    ______ ____
ROOT
ATOM      1  N   UNL     1       1.239   9.113  19.504  0.00  0.00    +0.000 N 
ATOM      2  C   UNL     1       1.956   8.917  18.345  0.00  0.00    +0.000 C 
ATOM      3  O   UNL     1       1.960   9.478  17.261  0.00  0.00    +0.000 OA
ATOM      4  C   UNL     1       2.723   7.708  18.472  0.00  0.00    +0.000 A 
ATOM      5  C   UNL     1       3.691   7.218  17.613  0.00  0.00    +0.000 A 
ATOM      6  C   UNL     1       4.141   5.923  17.831  0.00  0.00    +0.000 A 
ATOM      7  C   UNL     1       3.571   5.152  18.858  0.00  0.00    +0.000 A 
ATOM      8  C   UNL     1       2.609   5.717  19.721  0.00  0.00    +0.000 A 
ATOM      9  C   UNL     1       2.229   7.031  19.554  0.00  0.00    +0.000 A 
ATOM     10  C   UNL     1       1.375   7.976  20.288  0.00  0.00    +0.000 C 
ATOM     11  O   UNL     1       1.064   7.700  21.422  0.00  0.00    +0.000 OA
ENDROOT
BRANCH   1  17
ATOM     12  C   UNL     1      -0.631  10.839  19.098  0.00  0.00    +0.000 A 
ATOM     13  C   UNL     1      -1.192  12.088  19.491  0.00  0.00    +0.000 A 
ATOM     14  C   UNL     1      -0.622  12.887  20.478  0.00  0.00    +0.000 A 
ATOM     15  C   UNL     1       0.511  12.442  21.117  0.00  0.00    +0.000 A 
ATOM     16  C   UNL     1       1.048  11.203  20.767  0.00  0.00    +0.000 A 
ATOM     17  C   UNL     1       0.528  10.356  19.743  0.00  0.00    +0.000 A 
BRANCH  12  19
ATOM     18  C   UNL     1      -3.032  11.134  17.777  0.00  0.00    +0.000 C 
ATOM     19  S   UNL     1      -1.553  10.094  17.756  0.00  0.00    +0.000 S 
ENDBRANCH  12  19
ENDBRANCH   1  17
BRANCH   8  20
ATOM     20  N   UNL     1       1.882   4.841  20.611  0.00  0.00    +0.000 N 
ATOM     21  O   UNL     1       2.475   4.449  21.622  0.00  0.00    +0.000 OA
ATOM     22  O   UNL     1       0.773   4.450  20.220  0.00  0.00    +0.000 OA
ENDBRANCH   8  20
TORSDOF 3
ENDMDL
MODEL 8
REMARK VINA RESULT:      -6.7      3.611      5.417
REMARK  Name = 
REMARK  4 active torsions:
REMARK  status: ('A' for Active; 'I' for Inactive)
REMARK    1  A    between atoms: C_1  and  S_2
REMARK    2  A    between atoms: S_2  and  C_3
REMARK    3  A    between atoms: C_8  and  N_9
REMARK    4  A    between atoms: C_16  and  N_17
REMARK                            x       y       z     vdW  Elec       q    Type
REMARK                         _______ _______ _______ _____ _____    ______ ____
ROOT
ATOM      1  N   UNL     1       4.465   4.926  17.294  0.00  0.00    +0.000 N 
ATOM      2  C   UNL     1       4.089   6.133  17.840  0.00  0.00    +0.000 C 
ATOM      3  O   UNL     1       4.546   7.262  17.764  0.00  0.00    +0.000 OA
ATOM      4  C   UNL     1       3.031   5.907  18.785  0.00  0.00    +0.000 A 
ATOM      5  C   UNL     1       2.260   6.848  19.445  0.00  0.00    +0.000 A 
ATOM      6  C   UNL     1       1.444   6.396  20.474  0.00  0.00    +0.000 A 
ATOM      7  C   UNL     1       1.469   5.040  20.838  0.00  0.00    +0.000 A 
ATOM      8  C   UNL     1       2.252   4.122  20.107  0.00  0.00    +0.000 A 
ATOM      9  C   UNL     1       2.994   4.561  19.032  0.00  0.00    +0.000 A 
ATOM     10  C   UNL     1       3.814   3.920  17.993  0.00  0.00    +0.000 C 
ATOM     11  O   UNL     1       3.699   2.728  17.832  0.00  0.00    +0.000 OA
ENDROOT
BRANCH   1  17
ATOM     12  C   UNL     1       6.661   5.437  16.045  0.00  0.00    +0.000 A 
ATOM     13  C   UNL     1       7.410   5.250  14.849  0.00  0.00    +0.000 A 
ATOM     14  C   UNL     1       6.912   4.546  13.755  0.00  0.00    +0.000 A 
ATOM     15  C   UNL     1       5.660   3.987  13.843  0.00  0.00    +0.000 A 
ATOM     16  C   UNL     1       4.932   4.131  15.024  0.00  0.00    +0.000 A 
ATOM     17  C   UNL     1       5.374   4.866  16.163  0.00  0.00    +0.000 A 
BRANCH  12  19
ATOM     18  C   UNL     1       7.680   5.277  18.601  0.00  0.00    +0.000 C 
ATOM     19  S   UNL     1       7.546   6.447  17.229  0.00  0.00    +0.000 S 
ENDBRANCH  12  19
ENDBRANCH   1  17
BRANCH   8  20
ATOM     20  N   UNL     1       2.434   2.792  20.642  0.00  0.00    +0.000 N 
ATOM     21  O   UNL     1       3.409   2.611  21.380  0.00  0.00    +0.000 OA
ATOM     22  O   UNL     1       1.676   1.913  20.210  0.00  0.00    +0.000 OA
ENDBRANCH   8  20
TORSDOF 3
ENDMDL
MODEL 9
REMARK VINA RESULT:      -6.7      2.147      6.567
REMARK  Name = 
REMARK  4 active torsions:
REMARK  status: ('A' for Active; 'I' for Inactive)
REMARK    1  A    between atoms: C_1  and  S_2
REMARK    2  A    between atoms: S_2  and  C_3
REMARK    3  A    between atoms: C_8  and  N_9
REMARK    4  A    between atoms: C_16  and  N_17
REMARK                            x       y       z     vdW  Elec       q    Type
REMARK                         _______ _______ _______ _____ _____    ______ ____
ROOT
ATOM      1  N   UNL     1       1.828   7.713  19.586  0.00  0.00    +0.000 N 
ATOM      2  C   UNL     1       2.588   8.110  18.508  0.00  0.00    +0.000 C 
ATOM      3  O   UNL     1       2.635   9.139  17.855  0.00  0.00    +0.000 OA
ATOM      4  C   UNL     1       3.345   6.984  18.033  0.00  0.00    +0.000 A 
ATOM      5  C   UNL     1       4.343   6.971  17.075  0.00  0.00    +0.000 A 
ATOM      6  C   UNL     1       4.779   5.732  16.625  0.00  0.00    +0.000 A 
ATOM      7  C   UNL     1       4.168   4.562  17.107  0.00  0.00    +0.000 A 
ATOM      8  C   UNL     1       3.176   4.638  18.107  0.00  0.00    +0.000 A 
ATOM      9  C   UNL     1       2.808   5.867  18.612  0.00  0.00    +0.000 A 
ATOM     10  C   UNL     1       1.931   6.333  19.696  0.00  0.00    +0.000 C 
ATOM     11  O   UNL     1       1.576   5.531  20.526  0.00  0.00    +0.000 OA
ENDROOT
BRANCH   1  17
ATOM     12  C   UNL     1       0.177   9.653  19.977  0.00  0.00    +0.000 A 
ATOM     13  C   UNL     1      -0.433  10.510  20.937  0.00  0.00    +0.000 A 
ATOM     14  C   UNL     1      -0.119  10.458  22.293  0.00  0.00    +0.000 A 
ATOM     15  C   UNL     1       0.795   9.527  22.726  0.00  0.00    +0.000 A 
ATOM     16  C   UNL     1       1.371   8.657  21.800  0.00  0.00    +0.000 A 
ATOM     17  C   UNL     1       1.113   8.683  20.397  0.00  0.00    +0.000 A 
BRANCH  12  19
ATOM     18  C   UNL     1      -1.731  11.165  18.685  0.00  0.00    +0.000 C 
ATOM     19  S   UNL     1      -0.383  10.018  18.316  0.00  0.00    +0.000 S 
ENDBRANCH  12  19
ENDBRANCH   1  17
BRANCH   8  20
ATOM     20  N   UNL     1       2.412   3.450  18.413  0.00  0.00    +0.000 N 
ATOM     21  O   UNL     1       2.923   2.639  19.193  0.00  0.00    +0.000 OA
ATOM     22  O   UNL     1       1.369   3.280  17.766  0.00  0.00    +0.000 OA
ENDBRANCH   8  20
TORSDOF 3
ENDMDL
