MODEL 1
REMARK VINA RESULT:      -7.7      0.000      0.000
REMARK  Name = 
REMARK  16 active torsions:
REMARK  status: ('A' for Active; 'I' for Inactive)
REMARK    1  A    between atoms: C_1  and  C_2
REMARK    2  A    between atoms: C_2  and  C_3
REMARK    3  A    between atoms: C_3  and  C_4
REMARK    4  A    between atoms: C_4  and  C_5
REMARK    5  A    between atoms: C_5  and  C_6
REMARK    6  A    between atoms: C_5  and  C_8
REMARK    7  A    between atoms: C_6  and  C_7
REMARK    8  A    between atoms: C_8  and  O_9
REMARK    9  A    between atoms: O_9  and  C_10
REMARK   10  A    between atoms: C_11  and  C_12
REMARK   11  A    between atoms: C_12  and  C_13
REMARK   12  A    between atoms: C_15  and  C_16
REMARK   13  A    between atoms: C_16  and  C_17
REMARK   14  A    between atoms: C_23  and  N_24
REMARK   15  A    between atoms: C_26  and  C_27
REMARK   16  A    between atoms: C_27  and  C_28
REMARK                            x       y       z     vdW  Elec       q    Type
REMARK                         _______ _______ _______ _____ _____    ______ ____
ROOT
ATOM      1  C   UNL     1       5.430   6.332  16.492  0.00  0.00    +0.000 A 
ATOM      2  C   UNL     1       4.196   6.434  17.192  0.00  0.00    +0.000 A 
ATOM      3  C   UNL     1       3.514   5.238  17.515  0.00  0.00    +0.000 A 
ATOM      4  C   UNL     1       3.952   3.991  17.088  0.00  0.00    +0.000 A 
ATOM      5  C   UNL     1       5.058   3.934  16.252  0.00  0.00    +0.000 A 
ATOM      6  C   UNL     1       5.818   5.082  15.934  0.00  0.00    +0.000 A 
ENDROOT
BRANCH   2   7
ATOM      7  C   UNL     1       3.489   7.679  17.721  0.00  0.00    +0.000 C 
ATOM      8  C   UNL     1       2.000   7.628  18.055  0.00  0.00    +0.000 C 
ENDBRANCH   2   7
BRANCH   6   9
ATOM      9  C   UNL     1       7.010   4.735  15.052  0.00  0.00    +0.000 C 
ATOM     10  C   UNL     1       6.953   4.650  13.543  0.00  0.00    +0.000 C 
ENDBRANCH   6   9
BRANCH   1  11
ATOM     11  O   UNL     1       6.300   7.374  16.297  0.00  0.00    +0.000 OA
BRANCH  11  12
ATOM     12  C   UNL     1       6.626   8.185  17.433  0.00  0.00    +0.000 C 
BRANCH  12  13
ATOM     13  C   UNL     1       8.120   8.273  17.755  0.00  0.00    +0.000 C 
BRANCH  13  14
ATOM     14  C   UNL     1       8.457   7.366  18.965  0.00  0.00    +0.000 C 
ATOM     15  C   UNL     1       7.799   5.989  18.954  0.00  0.00    +0.000 C 
ENDBRANCH  13  14
BRANCH  13  16
ATOM     16  C   UNL     1       8.507   9.740  17.963  0.00  0.00    +0.000 C 
BRANCH  16  17
ATOM     17  C   UNL     1       9.257   9.979  19.264  0.00  0.00    +0.000 C 
BRANCH  17  19
ATOM     18  C   UNL     1      10.679  11.714  20.349  0.00  0.00    +0.000 C 
ATOM     19  C   UNL     1       9.446  11.473  19.506  0.00  0.00    +0.000 C 
ENDBRANCH  17  19
ENDBRANCH  16  17
ENDBRANCH  13  16
ENDBRANCH  12  13
ENDBRANCH  11  12
ENDBRANCH   1  11
BRANCH   4  20
ATOM     20  C   UNL     1       3.245   2.733  17.518  0.00  0.00    +0.000 C 
BRANCH  20  21
ATOM     21  C   UNL     1       2.625   2.733  18.884  0.00  0.00    +0.000 A 
ATOM     22  C   UNL     1       1.270   2.869  19.111  0.00  0.00    +0.000 A 
ATOM     23  N   UNL     1       0.695   2.785  20.314  0.00  0.00    +0.000 NA
ATOM     24  C   UNL     1       1.515   2.568  21.349  0.00  0.00    +0.000 A 
ATOM     25  N   UNL     1       0.936   2.429  22.594  0.00  0.00    +0.000 N 
ATOM     26  N   UNL     1       2.833   2.403  21.251  0.00  0.00    +0.000 NA
ATOM     27  C   UNL     1       3.370   2.488  20.025  0.00  0.00    +0.000 A 
ATOM     28  H   UNL     1      -0.032   2.164  22.475  0.00  0.00    +0.000 HD
ATOM     29  H   UNL     1       1.514   1.828  23.164  0.00  0.00    +0.000 HD
BRANCH  27  30
ATOM     30  N   UNL     1       4.757   2.339  19.977  0.00  0.00    +0.000 N 
ATOM     31  H   UNL     1       5.101   2.418  20.931  0.00  0.00    +0.000 HD
ATOM     32  H   UNL     1       5.045   1.469  19.547  0.00  0.00    +0.000 HD
ENDBRANCH  27  30
ENDBRANCH  20  21
ENDBRANCH   4  20
TORSDOF 12
ENDMDL
MODEL 2
REMARK VINA RESULT:      -7.4      4.131      7.252
REMARK  Name = 
REMARK  16 active torsions:
REMARK  status: ('A' for Active; 'I' for Inactive)
REMARK    1  A    between atoms: C_1  and  C_2
REMARK    2  A    between atoms: C_2  and  C_3
REMARK    3  A    between atoms: C_3  and  C_4
REMARK    4  A    between atoms: C_4  and  C_5
REMARK    5  A    between atoms: C_5  and  C_6
REMARK    6  A    between atoms: C_5  and  C_8
REMARK    7  A    between atoms: C_6  and  C_7
REMARK    8  A    between atoms: C_8  and  O_9
REMARK    9  A    between atoms: O_9  and  C_10
REMARK   10  A    between atoms: C_11  and  C_12
REMARK   11  A    between atoms: C_12  and  C_13
REMARK   12  A    between atoms: C_15  and  C_16
REMARK   13  A    between atoms: C_16  and  C_17
REMARK   14  A    between atoms: C_23  and  N_24
REMARK   15  A    between atoms: C_26  and  C_27
REMARK   16  A    between atoms: C_27  and  C_28
REMARK                            x       y       z     vdW  Elec       q    Type
REMARK                         _______ _______ _______ _____ _____    ______ ____
ROOT
ATOM      1  C   UNL     1       2.626   6.319  19.845  0.00  0.00    +0.000 A 
ATOM      2  C   UNL     1       2.585   4.934  20.168  0.00  0.00    +0.000 A 
ATOM      3  C   UNL     1       3.125   4.018  19.236  0.00  0.00    +0.000 A 
ATOM      4  C   UNL     1       3.595   4.412  17.989  0.00  0.00    +0.000 A 
ATOM      5  C   UNL     1       3.455   5.744  17.625  0.00  0.00    +0.000 A 
ATOM      6  C   UNL     1       2.975   6.721  18.526  0.00  0.00    +0.000 A 
ENDROOT
BRANCH   2   7
ATOM      7  C   UNL     1       2.081   4.256  21.439  0.00  0.00    +0.000 C 
ATOM      8  C   UNL     1       2.014   2.733  21.516  0.00  0.00    +0.000 C 
ENDBRANCH   2   7
BRANCH   6   9
ATOM      9  C   UNL     1       2.979   8.108  17.898  0.00  0.00    +0.000 C 
ATOM     10  C   UNL     1       1.729   8.900  17.581  0.00  0.00    +0.000 C 
ENDBRANCH   6   9
BRANCH   1  11
ATOM     11  O   UNL     1       2.339   7.330  20.727  0.00  0.00    +0.000 OA
BRANCH  11  12
ATOM     12  C   UNL     1       0.977   7.769  20.810  0.00  0.00    +0.000 C 
BRANCH  12  13
ATOM     13  C   UNL     1       0.797   9.269  21.057  0.00  0.00    +0.000 C 
BRANCH  13  14
ATOM     14  C   UNL     1       0.841   9.567  22.577  0.00  0.00    +0.000 C 
ATOM     15  C   UNL     1      -0.514   9.592  23.278  0.00  0.00    +0.000 C 
ENDBRANCH  13  14
BRANCH  13  16
ATOM     16  C   UNL     1      -0.491   9.742  20.376  0.00  0.00    +0.000 C 
BRANCH  16  17
ATOM     17  C   UNL     1      -0.426  11.193  19.924  0.00  0.00    +0.000 C 
BRANCH  17  19
ATOM     18  C   UNL     1      -2.643  12.276  19.577  0.00  0.00    +0.000 C 
ATOM     19  C   UNL     1      -1.539  12.007  20.576  0.00  0.00    +0.000 C 
ENDBRANCH  17  19
ENDBRANCH  16  17
ENDBRANCH  13  16
ENDBRANCH  12  13
ENDBRANCH  11  12
ENDBRANCH   1  11
BRANCH   4  20
ATOM     20  C   UNL     1       4.235   3.421  17.054  0.00  0.00    +0.000 C 
BRANCH  20  21
ATOM     21  C   UNL     1       5.328   3.932  16.163  0.00  0.00    +0.000 A 
ATOM     22  C   UNL     1       5.181   4.127  14.804  0.00  0.00    +0.000 A 
ATOM     23  N   UNL     1       6.117   4.663  14.014  0.00  0.00    +0.000 NA
ATOM     24  C   UNL     1       7.266   5.008  14.606  0.00  0.00    +0.000 A 
ATOM     25  N   UNL     1       8.227   5.607  13.816  0.00  0.00    +0.000 N 
ATOM     26  N   UNL     1       7.516   4.883  15.908  0.00  0.00    +0.000 NA
ATOM     27  C   UNL     1       6.548   4.349  16.668  0.00  0.00    +0.000 A 
ATOM     28  H   UNL     1       7.778   6.005  13.004  0.00  0.00    +0.000 HD
ATOM     29  H   UNL     1       8.787   6.225  14.386  0.00  0.00    +0.000 HD
BRANCH  27  30
ATOM     30  N   UNL     1       6.868   4.211  18.020  0.00  0.00    +0.000 N 
ATOM     31  H   UNL     1       6.869   3.215  18.228  0.00  0.00    +0.000 HD
ATOM     32  H   UNL     1       7.751   4.645  18.262  0.00  0.00    +0.000 HD
ENDBRANCH  27  30
ENDBRANCH  20  21
ENDBRANCH   4  20
TORSDOF 12
ENDMDL
MODEL 3
REMARK VINA RESULT:      -7.3      3.382      6.904
REMARK  Name = 
REMARK  16 active torsions:
REMARK  status: ('A' for Active; 'I' for Inactive)
REMARK    1  A    between atoms: C_1  and  C_2
REMARK    2  A    between atoms: C_2  and  C_3
REMARK    3  A    between atoms: C_3  and  C_4
REMARK    4  A    between atoms: C_4  and  C_5
REMARK    5  A    between atoms: C_5  and  C_6
REMARK    6  A    between atoms: C_5  and  C_8
REMARK    7  A    between atoms: C_6  and  C_7
REMARK    8  A    between atoms: C_8  and  O_9
REMARK    9  A    between atoms: O_9  and  C_10
REMARK   10  A    between atoms: C_11  and  C_12
REMARK   11  A    between atoms: C_12  and  C_13
REMARK   12  A    between atoms: C_15  and  C_16
REMARK   13  A    between atoms: C_16  and  C_17
REMARK   14  A    between atoms: C_23  and  N_24
REMARK   15  A    between atoms: C_26  and  C_27
REMARK   16  A    between atoms: C_27  and  C_28
REMARK                            x       y       z     vdW  Elec       q    Type
REMARK                         _______ _______ _______ _____ _____    ______ ____
ROOT
ATOM      1  C   UNL     1       5.580   4.532  16.970  0.00  0.00    +0.000 A 
ATOM      2  C   UNL     1       4.320   3.944  17.273  0.00  0.00    +0.000 A 
ATOM      3  C   UNL     1       3.494   4.592  18.220  0.00  0.00    +0.000 A 
ATOM      4  C   UNL     1       3.910   5.713  18.930  0.00  0.00    +0.000 A 
ATOM      5  C   UNL     1       5.212   6.158  18.749  0.00  0.00    +0.000 A 
ATOM      6  C   UNL     1       6.071   5.593  17.781  0.00  0.00    +0.000 A 
ENDROOT
BRANCH   2   7
ATOM      7  C   UNL     1       3.668   2.703  16.672  0.00  0.00    +0.000 C 
ATOM      8  C   UNL     1       2.810   1.791  17.546  0.00  0.00    +0.000 C 
ENDBRANCH   2   7
BRANCH   6   9
ATOM      9  C   UNL     1       7.417   6.304  17.746  0.00  0.00    +0.000 C 
ATOM     10  C   UNL     1       7.586   7.792  17.531  0.00  0.00    +0.000 C 
ENDBRANCH   6   9
BRANCH   1  11
ATOM     11  O   UNL     1       6.388   4.143  15.933  0.00  0.00    +0.000 OA
BRANCH  11  12
ATOM     12  C   UNL     1       6.120   4.699  14.639  0.00  0.00    +0.000 C 
BRANCH  12  13
ATOM     13  C   UNL     1       6.216   3.707  13.478  0.00  0.00    +0.000 C 
BRANCH  13  14
ATOM     14  C   UNL     1       7.190   4.243  12.399  0.00  0.00    +0.000 C 
ATOM     15  C   UNL     1       7.949   5.512  12.776  0.00  0.00    +0.000 C 
ENDBRANCH  13  14
BRANCH  13  16
ATOM     16  C   UNL     1       4.810   3.415  12.944  0.00  0.00    +0.000 C 
BRANCH  16  17
ATOM     17  C   UNL     1       4.778   3.203  11.439  0.00  0.00    +0.000 C 
BRANCH  17  19
ATOM     18  C   UNL     1       3.218   3.952   9.646  0.00  0.00    +0.000 C 
ATOM     19  C   UNL     1       3.339   3.167  10.934  0.00  0.00    +0.000 C 
ENDBRANCH  17  19
ENDBRANCH  16  17
ENDBRANCH  13  16
ENDBRANCH  12  13
ENDBRANCH  11  12
ENDBRANCH   1  11
BRANCH   4  20
ATOM     20  C   UNL     1       2.975   6.423  19.872  0.00  0.00    +0.000 C 
BRANCH  20  21
ATOM     21  C   UNL     1       2.324   7.678  19.370  0.00  0.00    +0.000 A 
ATOM     22  C   UNL     1       2.334   8.068  18.046  0.00  0.00    +0.000 A 
ATOM     23  N   UNL     1       1.687   9.136  17.571  0.00  0.00    +0.000 NA
ATOM     24  C   UNL     1       1.006   9.863  18.464  0.00  0.00    +0.000 A 
ATOM     25  N   UNL     1       0.290  10.942  17.985  0.00  0.00    +0.000 N 
ATOM     26  N   UNL     1       0.909   9.575  19.761  0.00  0.00    +0.000 NA
ATOM     27  C   UNL     1       1.567   8.491  20.196  0.00  0.00    +0.000 A 
ATOM     28  H   UNL     1       0.112  10.804  17.000  0.00  0.00    +0.000 HD
ATOM     29  H   UNL     1      -0.508  11.102  18.582  0.00  0.00    +0.000 HD
BRANCH  27  30
ATOM     30  N   UNL     1       1.462   8.248  21.567  0.00  0.00    +0.000 N 
ATOM     31  H   UNL     1       1.876   7.336  21.743  0.00  0.00    +0.000 HD
ATOM     32  H   UNL     1       1.895   8.970  22.130  0.00  0.00    +0.000 HD
ENDBRANCH  27  30
ENDBRANCH  20  21
ENDBRANCH   4  20
TORSDOF 12
ENDMDL
MODEL 4
REMARK VINA RESULT:      -7.1      5.508      8.692
REMARK  Name = 
REMARK  16 active torsions:
REMARK  status: ('A' for Active; 'I' for Inactive)
REMARK    1  A    between atoms: C_1  and  C_2
REMARK    2  A    between atoms: C_2  and  C_3
REMARK    3  A    between atoms: C_3  and  C_4
REMARK    4  A    between atoms: C_4  and  C_5
REMARK    5  A    between atoms: C_5  and  C_6
REMARK    6  A    between atoms: C_5  and  C_8
REMARK    7  A    between atoms: C_6  and  C_7
REMARK    8  A    between atoms: C_8  and  O_9
REMARK    9  A    between atoms: O_9  and  C_10
REMARK   10  A    between atoms: C_11  and  C_12
REMARK   11  A    between atoms: C_12  and  C_13
REMARK   12  A    between atoms: C_15  and  C_16
REMARK   13  A    between atoms: C_16  and  C_17
REMARK   14  A    between atoms: C_23  and  N_24
REMARK   15  A    between atoms: C_26  and  C_27
REMARK   16  A    between atoms: C_27  and  C_28
REMARK                            x       y       z     vdW  Elec       q    Type
REMARK                         _______ _______ _______ _____ _____    ______ ____
ROOT
ATOM      1  C   UNL     1       1.612   8.278  20.091  0.00  0.00    +0.000 A 
ATOM      2  C   UNL     1       1.000   9.217  20.968  0.00  0.00    +0.000 A 
ATOM      3  C   UNL     1       0.312  10.311  20.396  0.00  0.00    +0.000 A 
ATOM      4  C   UNL     1       0.299  10.551  19.027  0.00  0.00    +0.000 A 
ATOM      5  C   UNL     1       1.056   9.725  18.209  0.00  0.00    +0.000 A 
ATOM      6  C   UNL     1       1.722   8.583  18.706  0.00  0.00    +0.000 A 
ENDROOT
BRANCH   2   7
ATOM      7  C   UNL     1       0.919   9.199  22.492  0.00  0.00    +0.000 C 
ATOM      8  C   UNL     1      -0.331   9.721  23.196  0.00  0.00    +0.000 C 
ENDBRANCH   2   7
BRANCH   6   9
ATOM      9  C   UNL     1       2.425   7.819  17.592  0.00  0.00    +0.000 C 
ATOM     10  C   UNL     1       3.872   7.379  17.646  0.00  0.00    +0.000 C 
ENDBRANCH   6   9
BRANCH   1  11
ATOM     11  O   UNL     1       2.126   7.069  20.484  0.00  0.00    +0.000 OA
BRANCH  11  12
ATOM     12  C   UNL     1       1.220   5.962  20.573  0.00  0.00    +0.000 C 
BRANCH  12  13
ATOM     13  C   UNL     1       1.701   4.678  19.893  0.00  0.00    +0.000 C 
BRANCH  13  14
ATOM     14  C   UNL     1       0.918   3.459  20.441  0.00  0.00    +0.000 C 
ATOM     15  C   UNL     1       1.577   2.730  21.609  0.00  0.00    +0.000 C 
ENDBRANCH  13  14
BRANCH  13  16
ATOM     16  C   UNL     1       3.219   4.557  20.058  0.00  0.00    +0.000 C 
BRANCH  16  17
ATOM     17  C   UNL     1       3.901   3.930  18.852  0.00  0.00    +0.000 C 
BRANCH  17  19
ATOM     18  C   UNL     1       3.458   1.520  18.400  0.00  0.00    +0.000 C 
ATOM     19  C   UNL     1       4.326   2.498  19.161  0.00  0.00    +0.000 C 
ENDBRANCH  17  19
ENDBRANCH  16  17
ENDBRANCH  13  16
ENDBRANCH  12  13
ENDBRANCH  11  12
ENDBRANCH   1  11
BRANCH   4  20
ATOM     20  C   UNL     1      -0.510  11.681  18.447  0.00  0.00    +0.000 C 
BRANCH  20  21
ATOM     21  C   UNL     1      -1.990  11.469  18.330  0.00  0.00    +0.000 A 
ATOM     22  C   UNL     1      -2.564  10.477  17.561  0.00  0.00    +0.000 A 
ATOM     23  N   UNL     1      -3.875  10.222  17.515  0.00  0.00    +0.000 NA
ATOM     24  C   UNL     1      -4.658  11.007  18.264  0.00  0.00    +0.000 A 
ATOM     25  N   UNL     1      -6.010  10.728  18.268  0.00  0.00    +0.000 N 
ATOM     26  N   UNL     1      -4.218  11.982  19.058  0.00  0.00    +0.000 NA
ATOM     27  C   UNL     1      -2.895  12.200  19.081  0.00  0.00    +0.000 A 
ATOM     28  H   UNL     1      -6.145   9.767  17.986  0.00  0.00    +0.000 HD
ATOM     29  H   UNL     1      -6.404  11.011  19.154  0.00  0.00    +0.000 HD
BRANCH  27  30
ATOM     30  N   UNL     1      -2.486  13.252  19.903  0.00  0.00    +0.000 N 
ATOM     31  H   UNL     1      -1.476  13.327  19.814  0.00  0.00    +0.000 HD
ATOM     32  H   UNL     1      -2.947  14.126  19.684  0.00  0.00    +0.000 HD
ENDBRANCH  27  30
ENDBRANCH  20  21
ENDBRANCH   4  20
TORSDOF 12
ENDMDL
MODEL 5
REMARK VINA RESULT:      -7.1      4.181      7.185
REMARK  Name = 
REMARK  16 active torsions:
REMARK  status: ('A' for Active; 'I' for Inactive)
REMARK    1  A    between atoms: C_1  and  C_2
REMARK    2  A    between atoms: C_2  and  C_3
REMARK    3  A    between atoms: C_3  and  C_4
REMARK    4  A    between atoms: C_4  and  C_5
REMARK    5  A    between atoms: C_5  and  C_6
REMARK    6  A    between atoms: C_5  and  C_8
REMARK    7  A    between atoms: C_6  and  C_7
REMARK    8  A    between atoms: C_8  and  O_9
REMARK    9  A    between atoms: O_9  and  C_10
REMARK   10  A    between atoms: C_11  and  C_12
REMARK   11  A    between atoms: C_12  and  C_13
REMARK   12  A    between atoms: C_15  and  C_16
REMARK   13  A    between atoms: C_16  and  C_17
REMARK   14  A    between atoms: C_23  and  N_24
REMARK   15  A    between atoms: C_26  and  C_27
REMARK   16  A    between atoms: C_27  and  C_28
REMARK                            x       y       z     vdW  Elec       q    Type
REMARK                         _______ _______ _______ _____ _____    ______ ____
ROOT
ATOM      1  C   UNL     1       2.259   6.341  19.690  0.00  0.00    +0.000 A 
ATOM      2  C   UNL     1       2.895   6.783  18.497  0.00  0.00    +0.000 A 
ATOM      3  C   UNL     1       3.559   5.822  17.701  0.00  0.00    +0.000 A 
ATOM      4  C   UNL     1       3.696   4.495  18.093  0.00  0.00    +0.000 A 
ATOM      5  C   UNL     1       3.226   4.129  19.346  0.00  0.00    +0.000 A 
ATOM      6  C   UNL     1       2.506   5.023  20.168  0.00  0.00    +0.000 A 
ENDROOT
BRANCH   2   7
ATOM      7  C   UNL     1       2.927   8.181  17.885  0.00  0.00    +0.000 C 
ATOM      8  C   UNL     1       1.641   8.815  17.361  0.00  0.00    +0.000 C 
ENDBRANCH   2   7
BRANCH   6   9
ATOM      9  C   UNL     1       2.053   4.353  21.458  0.00  0.00    +0.000 C 
ATOM     10  C   UNL     1       2.077   2.859  21.693  0.00  0.00    +0.000 C 
ENDBRANCH   6   9
BRANCH   1  11
ATOM     11  O   UNL     1       1.407   7.105  20.445  0.00  0.00    +0.000 OA
BRANCH  11  12
ATOM     12  C   UNL     1       1.891   8.372  20.910  0.00  0.00    +0.000 C 
BRANCH  12  13
ATOM     13  C   UNL     1       0.802   9.385  21.270  0.00  0.00    +0.000 C 
BRANCH  13  14
ATOM     14  C   UNL     1      -0.130   8.801  22.361  0.00  0.00    +0.000 C 
ATOM     15  C   UNL     1      -0.676   9.812  23.365  0.00  0.00    +0.000 C 
ENDBRANCH  13  14
BRANCH  13  16
ATOM     16  C   UNL     1       0.064   9.808  19.996  0.00  0.00    +0.000 C 
BRANCH  16  17
ATOM     17  C   UNL     1       0.124  11.306  19.743  0.00  0.00    +0.000 C 
BRANCH  17  19
ATOM     18  C   UNL     1      -2.217  11.898  19.126  0.00  0.00    +0.000 C 
ATOM     19  C   UNL     1      -0.812  11.695  18.603  0.00  0.00    +0.000 C 
ENDBRANCH  17  19
ENDBRANCH  16  17
ENDBRANCH  13  16
ENDBRANCH  12  13
ENDBRANCH  11  12
ENDBRANCH   1  11
BRANCH   4  20
ATOM     20  C   UNL     1       4.341   3.483  17.184  0.00  0.00    +0.000 C 
BRANCH  20  21
ATOM     21  C   UNL     1       5.414   3.981  16.262  0.00  0.00    +0.000 A 
ATOM     22  C   UNL     1       5.225   4.194  14.911  0.00  0.00    +0.000 A 
ATOM     23  N   UNL     1       6.145   4.719  14.095  0.00  0.00    +0.000 NA
ATOM     24  C   UNL     1       7.320   5.033  14.651  0.00  0.00    +0.000 A 
ATOM     25  N   UNL     1       8.266   5.621  13.835  0.00  0.00    +0.000 N 
ATOM     26  N   UNL     1       7.611   4.889  15.943  0.00  0.00    +0.000 NA
ATOM     27  C   UNL     1       6.659   4.367  16.729  0.00  0.00    +0.000 A 
ATOM     28  H   UNL     1       7.799   6.038  13.042  0.00  0.00    +0.000 HD
ATOM     29  H   UNL     1       8.858   6.221  14.392  0.00  0.00    +0.000 HD
BRANCH  27  30
ATOM     30  N   UNL     1       7.021   4.206  18.068  0.00  0.00    +0.000 N 
ATOM     31  H   UNL     1       6.352   4.732  18.625  0.00  0.00    +0.000 HD
ATOM     32  H   UNL     1       7.063   3.235  18.351  0.00  0.00    +0.000 HD
ENDBRANCH  27  30
ENDBRANCH  20  21
ENDBRANCH   4  20
TORSDOF 12
ENDMDL
MODEL 6
REMARK VINA RESULT:      -7.1      4.067      7.141
REMARK  Name = 
REMARK  16 active torsions:
REMARK  status: ('A' for Active; 'I' for Inactive)
REMARK    1  A    between atoms: C_1  and  C_2
REMARK    2  A    between atoms: C_2  and  C_3
REMARK    3  A    between atoms: C_3  and  C_4
REMARK    4  A    between atoms: C_4  and  C_5
REMARK    5  A    between atoms: C_5  and  C_6
REMARK    6  A    between atoms: C_5  and  C_8
REMARK    7  A    between atoms: C_6  and  C_7
REMARK    8  A    between atoms: C_8  and  O_9
REMARK    9  A    between atoms: O_9  and  C_10
REMARK   10  A    between atoms: C_11  and  C_12
REMARK   11  A    between atoms: C_12  and  C_13
REMARK   12  A    between atoms: C_15  and  C_16
REMARK   13  A    between atoms: C_16  and  C_17
REMARK   14  A    between atoms: C_23  and  N_24
REMARK   15  A    between atoms: C_26  and  C_27
REMARK   16  A    between atoms: C_27  and  C_28
REMARK                            x       y       z     vdW  Elec       q    Type
REMARK                         _______ _______ _______ _____ _____    ______ ____
ROOT
ATOM      1  C   UNL     1       3.970   6.133  18.915  0.00  0.00    +0.000 A 
ATOM      2  C   UNL     1       4.248   7.023  17.840  0.00  0.00    +0.000 A 
ATOM      3  C   UNL     1       3.327   8.064  17.584  0.00  0.00    +0.000 A 
ATOM      4  C   UNL     1       2.126   8.184  18.273  0.00  0.00    +0.000 A 
ATOM      5  C   UNL     1       1.793   7.198  19.190  0.00  0.00    +0.000 A 
ATOM      6  C   UNL     1       2.689   6.161  19.534  0.00  0.00    +0.000 A 
ENDROOT
BRANCH   2   7
ATOM      7  C   UNL     1       5.462   7.066  16.917  0.00  0.00    +0.000 C 
ATOM      8  C   UNL     1       6.870   7.053  17.507  0.00  0.00    +0.000 C 
ENDBRANCH   2   7
BRANCH   6   9
ATOM      9  C   UNL     1       2.104   5.252  20.606  0.00  0.00    +0.000 C 
ATOM     10  C   UNL     1       1.095   4.157  20.333  0.00  0.00    +0.000 C 
ENDBRANCH   6   9
BRANCH   1  11
ATOM     11  O   UNL     1       4.859   5.217  19.414  0.00  0.00    +0.000 OA
BRANCH  11  12
ATOM     12  C   UNL     1       4.848   3.902  18.842  0.00  0.00    +0.000 C 
BRANCH  12  13
ATOM     13  C   UNL     1       4.199   3.807  17.459  0.00  0.00    +0.000 C 
BRANCH  13  14
ATOM     14  C   UNL     1       3.125   2.690  17.451  0.00  0.00    +0.000 C 
ATOM     15  C   UNL     1       3.271   1.635  18.545  0.00  0.00    +0.000 C 
ENDBRANCH  13  14
BRANCH  13  16
ATOM     16  C   UNL     1       5.290   3.616  16.401  0.00  0.00    +0.000 C 
BRANCH  16  17
ATOM     17  C   UNL     1       4.888   4.141  15.031  0.00  0.00    +0.000 C 
BRANCH  17  19
ATOM     18  C   UNL     1       7.248   4.801  14.580  0.00  0.00    +0.000 C 
ATOM     19  C   UNL     1       6.054   4.035  14.054  0.00  0.00    +0.000 C 
ENDBRANCH  17  19
ENDBRANCH  16  17
ENDBRANCH  13  16
ENDBRANCH  12  13
ENDBRANCH  11  12
ENDBRANCH   1  11
BRANCH   4  20
ATOM     20  C   UNL     1       1.206   9.351  18.027  0.00  0.00    +0.000 C 
BRANCH  20  21
ATOM     21  C   UNL     1       0.626  10.027  19.234  0.00  0.00    +0.000 A 
ATOM     22  C   UNL     1       1.357  10.338  20.363  0.00  0.00    +0.000 A 
ATOM     23  N   UNL     1       0.875  11.015  21.410  0.00  0.00    +0.000 NA
ATOM     24  C   UNL     1      -0.408  11.389  21.335  0.00  0.00    +0.000 A 
ATOM     25  N   UNL     1      -0.911  12.132  22.384  0.00  0.00    +0.000 N 
ATOM     26  N   UNL     1      -1.204  11.161  20.292  0.00  0.00    +0.000 NA
ATOM     27  C   UNL     1      -0.680  10.485  19.259  0.00  0.00    +0.000 A 
ATOM     28  H   UNL     1      -0.141  12.571  22.870  0.00  0.00    +0.000 HD
ATOM     29  H   UNL     1      -1.646  12.734  22.042  0.00  0.00    +0.000 HD
BRANCH  27  30
ATOM     30  N   UNL     1      -1.562  10.244  18.204  0.00  0.00    +0.000 N 
ATOM     31  H   UNL     1      -2.499  10.447  18.543  0.00  0.00    +0.000 HD
ATOM     32  H   UNL     1      -1.340  10.781  17.374  0.00  0.00    +0.000 HD
ENDBRANCH  27  30
ENDBRANCH  20  21
ENDBRANCH   4  20
TORSDOF 12
ENDMDL
MODEL 7
REMARK VINA RESULT:      -7.1      3.485      7.010
REMARK  Name = 
REMARK  16 active torsions:
REMARK  status: ('A' for Active; 'I' for Inactive)
REMARK    1  A    between atoms: C_1  and  C_2
REMARK    2  A    between atoms: C_2  and  C_3
REMARK    3  A    between atoms: C_3  and  C_4
REMARK    4  A    between atoms: C_4  and  C_5
REMARK    5  A    between atoms: C_5  and  C_6
REMARK    6  A    between atoms: C_5  and  C_8
REMARK    7  A    between atoms: C_6  and  C_7
REMARK    8  A    between atoms: C_8  and  O_9
REMARK    9  A    between atoms: O_9  and  C_10
REMARK   10  A    between atoms: C_11  and  C_12
REMARK   11  A    between atoms: C_12  and  C_13
REMARK   12  A    between atoms: C_15  and  C_16
REMARK   13  A    between atoms: C_16  and  C_17
REMARK   14  A    between atoms: C_23  and  N_24
REMARK   15  A    between atoms: C_26  and  C_27
REMARK   16  A    between atoms: C_27  and  C_28
REMARK                            x       y       z     vdW  Elec       q    Type
REMARK                         _______ _______ _______ _____ _____    ______ ____
ROOT
ATOM      1  C   UNL     1       4.804   4.379  17.112  0.00  0.00    +0.000 A 
ATOM      2  C   UNL     1       3.751   3.704  17.791  0.00  0.00    +0.000 A 
ATOM      3  C   UNL     1       2.927   4.459  18.656  0.00  0.00    +0.000 A 
ATOM      4  C   UNL     1       3.170   5.798  18.939  0.00  0.00    +0.000 A 
ATOM      5  C   UNL     1       4.310   6.384  18.408  0.00  0.00    +0.000 A 
ATOM      6  C   UNL     1       5.147   5.706  17.494  0.00  0.00    +0.000 A 
ENDROOT
BRANCH   2   7
ATOM      7  C   UNL     1       3.318   2.245  17.686  0.00  0.00    +0.000 C 
ATOM      8  C   UNL     1       2.180   1.722  18.558  0.00  0.00    +0.000 C 
ENDBRANCH   2   7
BRANCH   6   9
ATOM      9  C   UNL     1       6.289   6.594  17.019  0.00  0.00    +0.000 C 
ATOM     10  C   UNL     1       7.563   6.830  17.800  0.00  0.00    +0.000 C 
ENDBRANCH   6   9
BRANCH   1  11
ATOM     11  O   UNL     1       5.544   3.836  16.093  0.00  0.00    +0.000 OA
BRANCH  11  12
ATOM     12  C   UNL     1       5.163   4.162  14.751  0.00  0.00    +0.000 C 
BRANCH  12  13
ATOM     13  C   UNL     1       6.219   3.853  13.687  0.00  0.00    +0.000 C 
BRANCH  13  14
ATOM     14  C   UNL     1       7.412   4.832  13.821  0.00  0.00    +0.000 C 
ATOM     15  C   UNL     1       7.930   5.416  12.509  0.00  0.00    +0.000 C 
ENDBRANCH  13  14
BRANCH  13  16
ATOM     16  C   UNL     1       5.563   3.871  12.303  0.00  0.00    +0.000 C 
BRANCH  16  17
ATOM     17  C   UNL     1       5.228   2.481  11.785  0.00  0.00    +0.000 C 
BRANCH  17  19
ATOM     18  C   UNL     1       6.263   0.285  11.220  0.00  0.00    +0.000 C 
ATOM     19  C   UNL     1       6.486   1.781  11.280  0.00  0.00    +0.000 C 
ENDBRANCH  17  19
ENDBRANCH  16  17
ENDBRANCH  13  16
ENDBRANCH  12  13
ENDBRANCH  11  12
ENDBRANCH   1  11
BRANCH   4  20
ATOM     20  C   UNL     1       2.226   6.590  19.804  0.00  0.00    +0.000 C 
BRANCH  20  21
ATOM     21  C   UNL     1       1.926   7.996  19.373  0.00  0.00    +0.000 A 
ATOM     22  C   UNL     1       2.141   8.468  18.094  0.00  0.00    +0.000 A 
ATOM     23  N   UNL     1       1.799   9.689  17.674  0.00  0.00    +0.000 NA
ATOM     24  C   UNL     1       1.227  10.490  18.580  0.00  0.00    +0.000 A 
ATOM     25  N   UNL     1       0.822  11.738  18.153  0.00  0.00    +0.000 N 
ATOM     26  N   UNL     1       0.953  10.140  19.836  0.00  0.00    +0.000 NA
ATOM     27  C   UNL     1       1.305   8.902  20.216  0.00  0.00    +0.000 A 
ATOM     28  H   UNL     1       0.704  11.717  17.150  0.00  0.00    +0.000 HD
ATOM     29  H   UNL     1       0.032  12.038  18.706  0.00  0.00    +0.000 HD
BRANCH  27  30
ATOM     30  N   UNL     1       1.027   8.593  21.548  0.00  0.00    +0.000 N 
ATOM     31  H   UNL     1       1.439   9.326  22.120  0.00  0.00    +0.000 HD
ATOM     32  H   UNL     1       0.036   8.490  21.730  0.00  0.00    +0.000 HD
ENDBRANCH  27  30
ENDBRANCH  20  21
ENDBRANCH   4  20
TORSDOF 12
ENDMDL
MODEL 8
REMARK VINA RESULT:      -7.0      3.536      7.053
REMARK  Name = 
REMARK  16 active torsions:
REMARK  status: ('A' for Active; 'I' for Inactive)
REMARK    1  A    between atoms: C_1  and  C_2
REMARK    2  A    between atoms: C_2  and  C_3
REMARK    3  A    between atoms: C_3  and  C_4
REMARK    4  A    between atoms: C_4  and  C_5
REMARK    5  A    between atoms: C_5  and  C_6
REMARK    6  A    between atoms: C_5  and  C_8
REMARK    7  A    between atoms: C_6  and  C_7
REMARK    8  A    between atoms: C_8  and  O_9
REMARK    9  A    between atoms: O_9  and  C_10
REMARK   10  A    between atoms: C_11  and  C_12
REMARK   11  A    between atoms: C_12  and  C_13
REMARK   12  A    between atoms: C_15  and  C_16
REMARK   13  A    between atoms: C_16  and  C_17
REMARK   14  A    between atoms: C_23  and  N_24
REMARK   15  A    between atoms: C_26  and  C_27
REMARK   16  A    between atoms: C_27  and  C_28
REMARK                            x       y       z     vdW  Elec       q    Type
REMARK                         _______ _______ _______ _____ _____    ______ ____
ROOT
ATOM      1  C   UNL     1       4.678   4.840  16.874  0.00  0.00    +0.000 A 
ATOM      2  C   UNL     1       5.117   6.154  17.198  0.00  0.00    +0.000 A 
ATOM      3  C   UNL     1       4.395   6.873  18.178  0.00  0.00    +0.000 A 
ATOM      4  C   UNL     1       3.227   6.385  18.753  0.00  0.00    +0.000 A 
ATOM      5  C   UNL     1       2.720   5.181  18.286  0.00  0.00    +0.000 A 
ATOM      6  C   UNL     1       3.417   4.385  17.350  0.00  0.00    +0.000 A 
ENDROOT
BRANCH   2   7
ATOM      7  C   UNL     1       6.327   6.921  16.674  0.00  0.00    +0.000 C 
ATOM      8  C   UNL     1       7.204   7.715  17.639  0.00  0.00    +0.000 C 
ENDBRANCH   2   7
BRANCH   6   9
ATOM      9  C   UNL     1       2.673   3.090  17.056  0.00  0.00    +0.000 C 
ATOM     10  C   UNL     1       2.480   1.973  18.059  0.00  0.00    +0.000 C 
ENDBRANCH   6   9
BRANCH   1  11
ATOM     11  O   UNL     1       5.389   3.951  16.110  0.00  0.00    +0.000 OA
BRANCH  11  12
ATOM     12  C   UNL     1       5.185   3.984  14.692  0.00  0.00    +0.000 C 
BRANCH  12  13
ATOM     13  C   UNL     1       6.448   3.777  13.853  0.00  0.00    +0.000 C 
BRANCH  13  14
ATOM     14  C   UNL     1       7.345   5.039  13.921  0.00  0.00    +0.000 C 
ATOM     15  C   UNL     1       8.030   5.426  12.613  0.00  0.00    +0.000 C 
ENDBRANCH  13  14
BRANCH  13  16
ATOM     16  C   UNL     1       6.050   3.385  12.427  0.00  0.00    +0.000 C 
BRANCH  16  17
ATOM     17  C   UNL     1       4.654   3.854  12.049  0.00  0.00    +0.000 C 
BRANCH  17  19
ATOM     18  C   UNL     1       3.225   3.714  10.012  0.00  0.00    +0.000 C 
ATOM     19  C   UNL     1       4.038   2.920  11.012  0.00  0.00    +0.000 C 
ENDBRANCH  17  19
ENDBRANCH  16  17
ENDBRANCH  13  16
ENDBRANCH  12  13
ENDBRANCH  11  12
ENDBRANCH   1  11
BRANCH   4  20
ATOM     20  C   UNL     1       2.528   7.144  19.849  0.00  0.00    +0.000 C 
BRANCH  20  21
ATOM     21  C   UNL     1       1.804   8.397  19.456  0.00  0.00    +0.000 A 
ATOM     22  C   UNL     1       1.764   8.886  18.165  0.00  0.00    +0.000 A 
ATOM     23  N   UNL     1       1.053   9.951  17.784  0.00  0.00    +0.000 NA
ATOM     24  C   UNL     1       0.358  10.574  18.743  0.00  0.00    +0.000 A 
ATOM     25  N   UNL     1      -0.422  11.647  18.361  0.00  0.00    +0.000 N 
ATOM     26  N   UNL     1       0.306  10.185  20.016  0.00  0.00    +0.000 NA
ATOM     27  C   UNL     1       1.027   9.107  20.355  0.00  0.00    +0.000 A 
ATOM     28  H   UNL     1      -0.615  11.573  17.372  0.00  0.00    +0.000 HD
ATOM     29  H   UNL     1      -1.213  11.721  18.983  0.00  0.00    +0.000 HD
BRANCH  27  30
ATOM     30  N   UNL     1       0.965   8.757  21.706  0.00  0.00    +0.000 N 
ATOM     31  H   UNL     1       1.850   8.315  21.942  0.00  0.00    +0.000 HD
ATOM     32  H   UNL     1       0.769   9.547  22.308  0.00  0.00    +0.000 HD
ENDBRANCH  27  30
ENDBRANCH  20  21
ENDBRANCH   4  20
TORSDOF 12
ENDMDL
MODEL 9
REMARK VINA RESULT:      -7.0      4.254      7.531
REMARK  Name = 
REMARK  16 active torsions:
REMARK  status: ('A' for Active; 'I' for Inactive)
REMARK    1  A    between atoms: C_1  and  C_2
REMARK    2  A    between atoms: C_2  and  C_3
REMARK    3  A    between atoms: C_3  and  C_4
REMARK    4  A    between atoms: C_4  and  C_5
REMARK    5  A    between atoms: C_5  and  C_6
REMARK    6  A    between atoms: C_5  and  C_8
REMARK    7  A    between atoms: C_6  and  C_7
REMARK    8  A    between atoms: C_8  and  O_9
REMARK    9  A    between atoms: O_9  and  C_10
REMARK   10  A    between atoms: C_11  and  C_12
REMARK   11  A    between atoms: C_12  and  C_13
REMARK   12  A    between atoms: C_15  and  C_16
REMARK   13  A    between atoms: C_16  and  C_17
REMARK   14  A    between atoms: C_23  and  N_24
REMARK   15  A    between atoms: C_26  and  C_27
REMARK   16  A    between atoms: C_27  and  C_28
REMARK                            x       y       z     vdW  Elec       q    Type
REMARK                         _______ _______ _______ _____ _____    ______ ____
ROOT
ATOM      1  C   UNL     1       2.089   6.554  19.615  0.00  0.00    +0.000 A 
ATOM      2  C   UNL     1       2.666   5.392  20.201  0.00  0.00    +0.000 A 
ATOM      3  C   UNL     1       3.955   5.001  19.771  0.00  0.00    +0.000 A 
ATOM      4  C   UNL     1       4.625   5.646  18.738  0.00  0.00    +0.000 A 
ATOM      5  C   UNL     1       3.965   6.661  18.061  0.00  0.00    +0.000 A 
ATOM      6  C   UNL     1       2.701   7.138  18.471  0.00  0.00    +0.000 A 
ENDROOT
BRANCH   2   7
ATOM      7  C   UNL     1       2.113   4.496  21.305  0.00  0.00    +0.000 C 
ATOM      8  C   UNL     1       1.333   3.234  20.945  0.00  0.00    +0.000 C 
ENDBRANCH   2   7
BRANCH   6   9
ATOM      9  C   UNL     1       2.230   8.293  17.597  0.00  0.00    +0.000 C 
ATOM     10  C   UNL     1       2.371   9.753  17.969  0.00  0.00    +0.000 C 
ENDBRANCH   6   9
BRANCH   1  11
ATOM     11  O   UNL     1       0.954   7.172  20.073  0.00  0.00    +0.000 OA
BRANCH  11  12
ATOM     12  C   UNL     1       1.109   8.182  21.078  0.00  0.00    +0.000 C 
BRANCH  12  13
ATOM     13  C   UNL     1      -0.057   9.167  21.188  0.00  0.00    +0.000 C 
BRANCH  13  14
ATOM     14  C   UNL     1       0.060  10.255  20.091  0.00  0.00    +0.000 C 
ATOM     15  C   UNL     1      -1.108  10.324  19.111  0.00  0.00    +0.000 C 
ENDBRANCH  13  14
BRANCH  13  16
ATOM     16  C   UNL     1      -0.109   9.733  22.610  0.00  0.00    +0.000 C 
BRANCH  16  17
ATOM     17  C   UNL     1      -0.529  11.194  22.653  0.00  0.00    +0.000 C 
BRANCH  17  19
ATOM     18  C   UNL     1      -2.369  12.780  23.211  0.00  0.00    +0.000 C 
ATOM     19  C   UNL     1      -1.944  11.327  23.207  0.00  0.00    +0.000 C 
ENDBRANCH  17  19
ENDBRANCH  16  17
ENDBRANCH  13  16
ENDBRANCH  12  13
ENDBRANCH  11  12
ENDBRANCH   1  11
BRANCH   4  20
ATOM     20  C   UNL     1       6.028   5.251  18.361  0.00  0.00    +0.000 C 
BRANCH  20  21
ATOM     21  C   UNL     1       6.270   4.886  16.926  0.00  0.00    +0.000 A 
ATOM     22  C   UNL     1       5.685   3.803  16.302  0.00  0.00    +0.000 A 
ATOM     23  N   UNL     1       5.823   3.516  15.004  0.00  0.00    +0.000 NA
ATOM     24  C   UNL     1       6.599   4.342  14.293  0.00  0.00    +0.000 A 
ATOM     25  N   UNL     1       6.715   4.091  12.941  0.00  0.00    +0.000 N 
ATOM     26  N   UNL     1       7.199   5.426  14.781  0.00  0.00    +0.000 NA
ATOM     27  C   UNL     1       7.029   5.684  16.086  0.00  0.00    +0.000 A 
ATOM     28  H   UNL     1       5.923   3.537  12.644  0.00  0.00    +0.000 HD
ATOM     29  H   UNL     1       6.881   4.960  12.455  0.00  0.00    +0.000 HD
BRANCH  27  30
ATOM     30  N   UNL     1       7.703   6.812  16.557  0.00  0.00    +0.000 N 
ATOM     31  H   UNL     1       7.553   7.556  15.880  0.00  0.00    +0.000 HD
ATOM     32  H   UNL     1       7.408   7.087  17.486  0.00  0.00    +0.000 HD
ENDBRANCH  27  30
ENDBRANCH  20  21
ENDBRANCH   4  20
TORSDOF 12
ENDMDL
