MODEL 1
REMARK VINA RESULT:      -8.9      0.000      0.000
REMARK  Name = 
REMARK  6 active torsions:
REMARK  status: ('A' for Active; 'I' for Inactive)
REMARK    1  A    between atoms: C_2  and  C_17
REMARK    2  A    between atoms: N_3  and  C_4
REMARK    3  A    between atoms: C_4  and  C_5
REMARK    4  A    between atoms: C_4  and  C_11
REMARK    5  A    between atoms: C_19  and  C_20
REMARK    6  A    between atoms: N_28  and  C_29
REMARK                            x       y       z     vdW  Elec       q    Type
REMARK                         _______ _______ _______ _____ _____    ______ ____
ROOT
ATOM      1  C   UNL     1       5.862   5.081  17.270  0.00  0.00    +0.000 A 
ATOM      2  C   UNL     1       5.780   4.166  16.234  0.00  0.00    +0.000 A 
ATOM      3  C   UNL     1       6.421   4.765  15.124  0.00  0.00    +0.000 A 
ATOM      4  N   UNL     1       7.004   5.913  15.493  0.00  0.00    +0.000 NA
ATOM      5  N   UNL     1       6.751   6.047  16.823  0.00  0.00    +0.000 N 
ENDROOT
BRANCH   3   6
ATOM      6  C   UNL     1       6.477   4.302  13.729  0.00  0.00    +0.000 A 
ATOM      7  C   UNL     1       5.539   3.340  13.301  0.00  0.00    +0.000 A 
ATOM      8  C   UNL     1       5.562   2.832  11.997  0.00  0.00    +0.000 A 
ATOM      9  C   UNL     1       6.521   3.275  11.094  0.00  0.00    +0.000 A 
ATOM     10  C   UNL     1       7.457   4.225  11.495  0.00  0.00    +0.000 A 
ATOM     11  C   UNL     1       7.444   4.735  12.802  0.00  0.00    +0.000 A 
ATOM     12 CL   UNL     1       8.712   5.851  13.186  0.00  0.00    +0.000 Cl
ENDBRANCH   3   6
BRANCH   5  13
ATOM     13  C   UNL     1       7.433   7.060  17.559  0.00  0.00    +0.000 A 
ATOM     14  C   UNL     1       8.123   6.712  18.731  0.00  0.00    +0.000 A 
ATOM     15  C   UNL     1       8.828   7.684  19.446  0.00  0.00    +0.000 A 
ATOM     16  C   UNL     1       8.815   9.012  19.019  0.00  0.00    +0.000 A 
ATOM     17  C   UNL     1       8.089   9.365  17.885  0.00  0.00    +0.000 A 
ATOM     18 CL   UNL     1       8.030  11.013  17.388  0.00  0.00    +0.000 Cl
ATOM     19  C   UNL     1       7.397   8.401  17.152  0.00  0.00    +0.000 A 
ENDBRANCH   5  13
BRANCH   1  21
ATOM     20  O   UNL     1       5.476   4.564  19.533  0.00  0.00    +0.000 OA
ATOM     21  C   UNL     1       5.118   5.132  18.507  0.00  0.00    +0.000 C 
ATOM     22  N   UNL     1       3.975   5.888  18.463  0.00  0.00    +0.000 N 
ATOM     23  H   UNL     1       3.708   6.369  17.618  0.00  0.00    +0.000 HD
BRANCH  22  24
ATOM     24  C   UNL     1       3.074   6.017  19.596  0.00  0.00    +0.000 C 
BRANCH  24  25
ATOM     25  C   UNL     1       2.291   7.318  19.408  0.00  0.00    +0.000 A 
ATOM     26  C   UNL     1       2.228   7.983  18.172  0.00  0.00    +0.000 A 
ATOM     27  C   UNL     1       1.509   9.174  18.032  0.00  0.00    +0.000 A 
ATOM     28  C   UNL     1       0.873   9.736  19.135  0.00  0.00    +0.000 A 
ATOM     29  C   UNL     1       0.953   9.107  20.377  0.00  0.00    +0.000 A 
ATOM     30  C   UNL     1       1.657   7.911  20.513  0.00  0.00    +0.000 A 
ENDBRANCH  24  25
BRANCH  24  31
ATOM     31  C   UNL     1       2.193   4.775  19.772  0.00  0.00    +0.000 A 
ATOM     32  C   UNL     1       1.936   4.200  21.030  0.00  0.00    +0.000 A 
ATOM     33  C   UNL     1       1.233   2.997  21.138  0.00  0.00    +0.000 A 
ATOM     34  C   UNL     1       0.759   2.359  19.997  0.00  0.00    +0.000 A 
ATOM     35  C   UNL     1       0.940   2.948  18.748  0.00  0.00    +0.000 A 
ATOM     36  C   UNL     1       1.633   4.154  18.638  0.00  0.00    +0.000 A 
ENDBRANCH  24  31
ENDBRANCH  22  24
ENDBRANCH   1  21
TORSDOF 6
ENDMDL
MODEL 2
REMARK VINA RESULT:      -8.5      8.300     11.567
REMARK  Name = 
REMARK  6 active torsions:
REMARK  status: ('A' for Active; 'I' for Inactive)
REMARK    1  A    between atoms: C_2  and  C_17
REMARK    2  A    between atoms: N_3  and  C_4
REMARK    3  A    between atoms: C_4  and  C_5
REMARK    4  A    between atoms: C_4  and  C_11
REMARK    5  A    between atoms: C_19  and  C_20
REMARK    6  A    between atoms: N_28  and  C_29
REMARK                            x       y       z     vdW  Elec       q    Type
REMARK                         _______ _______ _______ _____ _____    ______ ____
ROOT
ATOM      1  C   UNL     1      -1.302  12.441  19.045  0.00  0.00    +0.000 A 
ATOM      2  C   UNL     1      -0.682  13.339  18.194  0.00  0.00    +0.000 A 
ATOM      3  C   UNL     1       0.512  13.740  18.841  0.00  0.00    +0.000 A 
ATOM      4  N   UNL     1       0.698  13.015  19.952  0.00  0.00    +0.000 NA
ATOM      5  N   UNL     1      -0.353  12.154  20.014  0.00  0.00    +0.000 N 
ENDROOT
BRANCH   3   6
ATOM      6  C   UNL     1       1.460  14.797  18.458  0.00  0.00    +0.000 A 
ATOM      7  C   UNL     1       2.763  14.424  18.069  0.00  0.00    +0.000 A 
ATOM      8  C   UNL     1       3.723  15.384  17.730  0.00  0.00    +0.000 A 
ATOM      9  C   UNL     1       3.401  16.734  17.767  0.00  0.00    +0.000 A 
ATOM     10  C   UNL     1       2.119  17.126  18.147  0.00  0.00    +0.000 A 
ATOM     11  C   UNL     1       1.152  16.170  18.496  0.00  0.00    +0.000 A 
ATOM     12 CL   UNL     1      -0.372  16.801  19.022  0.00  0.00    +0.000 Cl
ENDBRANCH   3   6
BRANCH   5  13
ATOM     13  C   UNL     1      -0.322  11.094  20.967  0.00  0.00    +0.000 A 
ATOM     14  C   UNL     1      -0.895  11.290  22.234  0.00  0.00    +0.000 A 
ATOM     15  C   UNL     1      -0.908  10.253  23.168  0.00  0.00    +0.000 A 
ATOM     16  C   UNL     1      -0.314   9.028  22.861  0.00  0.00    +0.000 A 
ATOM     17  C   UNL     1       0.299   8.850  21.624  0.00  0.00    +0.000 A 
ATOM     18 CL   UNL     1       1.078   7.357  21.264  0.00  0.00    +0.000 Cl
ATOM     19  C   UNL     1       0.301   9.872  20.675  0.00  0.00    +0.000 A 
ENDBRANCH   5  13
BRANCH   1  21
ATOM     20  O   UNL     1      -3.035  10.971  18.437  0.00  0.00    +0.000 OA
ATOM     21  C   UNL     1      -2.668  11.971  19.042  0.00  0.00    +0.000 C 
ATOM     22  N   UNL     1      -3.539  12.720  19.792  0.00  0.00    +0.000 N 
ATOM     23  H   UNL     1      -3.215  13.526  20.304  0.00  0.00    +0.000 HD
BRANCH  22  24
ATOM     24  C   UNL     1      -4.960  12.428  19.871  0.00  0.00    +0.000 C 
BRANCH  24  25
ATOM     25  C   UNL     1      -5.374  12.579  21.336  0.00  0.00    +0.000 A 
ATOM     26  C   UNL     1      -4.449  12.879  22.349  0.00  0.00    +0.000 A 
ATOM     27  C   UNL     1      -4.857  13.003  23.681  0.00  0.00    +0.000 A 
ATOM     28  C   UNL     1      -6.190  12.793  24.023  0.00  0.00    +0.000 A 
ATOM     29  C   UNL     1      -7.115  12.461  23.035  0.00  0.00    +0.000 A 
ATOM     30  C   UNL     1      -6.711  12.353  21.704  0.00  0.00    +0.000 A 
ENDBRANCH  24  25
BRANCH  24  31
ATOM     31  C   UNL     1      -5.776  13.288  18.898  0.00  0.00    +0.000 A 
ATOM     32  C   UNL     1      -6.179  12.825  17.632  0.00  0.00    +0.000 A 
ATOM     33  C   UNL     1      -6.811  13.678  16.724  0.00  0.00    +0.000 A 
ATOM     34  C   UNL     1      -7.068  15.000  17.071  0.00  0.00    +0.000 A 
ATOM     35  C   UNL     1      -6.742  15.459  18.344  0.00  0.00    +0.000 A 
ATOM     36  C   UNL     1      -6.120  14.606  19.256  0.00  0.00    +0.000 A 
ENDBRANCH  24  31
ENDBRANCH  22  24
ENDBRANCH   1  21
TORSDOF 6
ENDMDL
MODEL 3
REMARK VINA RESULT:      -8.3      8.261     11.533
REMARK  Name = 
REMARK  6 active torsions:
REMARK  status: ('A' for Active; 'I' for Inactive)
REMARK    1  A    between atoms: C_2  and  C_17
REMARK    2  A    between atoms: N_3  and  C_4
REMARK    3  A    between atoms: C_4  and  C_5
REMARK    4  A    between atoms: C_4  and  C_11
REMARK    5  A    between atoms: C_19  and  C_20
REMARK    6  A    between atoms: N_28  and  C_29
REMARK                            x       y       z     vdW  Elec       q    Type
REMARK                         _______ _______ _______ _____ _____    ______ ____
ROOT
ATOM      1  C   UNL     1      -1.353  12.540  19.125  0.00  0.00    +0.000 A 
ATOM      2  C   UNL     1      -0.754  13.471  18.294  0.00  0.00    +0.000 A 
ATOM      3  C   UNL     1       0.425  13.893  18.953  0.00  0.00    +0.000 A 
ATOM      4  N   UNL     1       0.627  13.152  20.051  0.00  0.00    +0.000 NA
ATOM      5  N   UNL     1      -0.400  12.261  20.093  0.00  0.00    +0.000 N 
ENDROOT
BRANCH   3   6
ATOM      6  C   UNL     1       1.345  14.982  18.594  0.00  0.00    +0.000 A 
ATOM      7  C   UNL     1       0.861  16.307  18.619  0.00  0.00    +0.000 A 
ATOM      8  C   UNL     1       1.675  17.384  18.252  0.00  0.00    +0.000 A 
ATOM      9  C   UNL     1       2.988  17.162  17.856  0.00  0.00    +0.000 A 
ATOM     10  C   UNL     1       3.487  15.862  17.825  0.00  0.00    +0.000 A 
ATOM     11  C   UNL     1       2.676  14.775  18.184  0.00  0.00    +0.000 A 
ATOM     12 CL   UNL     1       3.401  13.210  18.024  0.00  0.00    +0.000 Cl
ENDBRANCH   3   6
BRANCH   5  13
ATOM     13  C   UNL     1      -0.344  11.185  21.026  0.00  0.00    +0.000 A 
ATOM     14  C   UNL     1      -0.919  11.345  22.297  0.00  0.00    +0.000 A 
ATOM     15  C   UNL     1      -0.906  10.290  23.212  0.00  0.00    +0.000 A 
ATOM     16  C   UNL     1      -0.286   9.085  22.881  0.00  0.00    +0.000 A 
ATOM     17  C   UNL     1       0.328   8.943  21.640  0.00  0.00    +0.000 A 
ATOM     18 CL   UNL     1       1.139   7.475  21.251  0.00  0.00    +0.000 Cl
ATOM     19  C   UNL     1       0.305   9.983  20.710  0.00  0.00    +0.000 A 
ENDBRANCH   5  13
BRANCH   1  21
ATOM     20  O   UNL     1      -3.030  10.998  18.537  0.00  0.00    +0.000 OA
ATOM     21  C   UNL     1      -2.706  12.033  19.107  0.00  0.00    +0.000 C 
ATOM     22  N   UNL     1      -3.615  12.789  19.802  0.00  0.00    +0.000 N 
ATOM     23  H   UNL     1      -3.327  13.624  20.286  0.00  0.00    +0.000 HD
BRANCH  22  24
ATOM     24  C   UNL     1      -5.030  12.461  19.856  0.00  0.00    +0.000 C 
BRANCH  24  25
ATOM     25  C   UNL     1      -5.462  12.557  21.321  0.00  0.00    +0.000 A 
ATOM     26  C   UNL     1      -6.792  12.354  21.724  0.00  0.00    +0.000 A 
ATOM     27  C   UNL     1      -7.158  12.456  23.070  0.00  0.00    +0.000 A 
ATOM     28  C   UNL     1      -6.206  12.796  24.026  0.00  0.00    +0.000 A 
ATOM     29  C   UNL     1      -4.889  13.034  23.639  0.00  0.00    +0.000 A 
ATOM     30  C   UNL     1      -4.520  12.917  22.299  0.00  0.00    +0.000 A 
ENDBRANCH  24  25
BRANCH  24  31
ATOM     31  C   UNL     1      -5.857  13.330  18.901  0.00  0.00    +0.000 A 
ATOM     32  C   UNL     1      -6.309  12.867  17.653  0.00  0.00    +0.000 A 
ATOM     33  C   UNL     1      -6.950  13.726  16.757  0.00  0.00    +0.000 A 
ATOM     34  C   UNL     1      -7.167  15.056  17.100  0.00  0.00    +0.000 A 
ATOM     35  C   UNL     1      -6.792  15.518  18.359  0.00  0.00    +0.000 A 
ATOM     36  C   UNL     1      -6.160  14.659  19.259  0.00  0.00    +0.000 A 
ENDBRANCH  24  31
ENDBRANCH  22  24
ENDBRANCH   1  21
TORSDOF 6
ENDMDL
MODEL 4
REMARK VINA RESULT:      -8.2      5.141      8.994
REMARK  Name = 
REMARK  6 active torsions:
REMARK  status: ('A' for Active; 'I' for Inactive)
REMARK    1  A    between atoms: C_2  and  C_17
REMARK    2  A    between atoms: N_3  and  C_4
REMARK    3  A    between atoms: C_4  and  C_5
REMARK    4  A    between atoms: C_4  and  C_11
REMARK    5  A    between atoms: C_19  and  C_20
REMARK    6  A    between atoms: N_28  and  C_29
REMARK                            x       y       z     vdW  Elec       q    Type
REMARK                         _______ _______ _______ _____ _____    ______ ____
ROOT
ATOM      1  C   UNL     1       0.560   9.742  21.520  0.00  0.00    +0.000 A 
ATOM      2  C   UNL     1       1.249   8.553  21.684  0.00  0.00    +0.000 A 
ATOM      3  C   UNL     1       1.488   8.049  20.384  0.00  0.00    +0.000 A 
ATOM      4  N   UNL     1       1.110   8.949  19.466  0.00  0.00    +0.000 NA
ATOM      5  N   UNL     1       0.645  10.020  20.164  0.00  0.00    +0.000 N 
ENDROOT
BRANCH   3   6
ATOM      6  C   UNL     1       2.033   6.743  19.984  0.00  0.00    +0.000 A 
ATOM      7  C   UNL     1       1.786   5.629  20.813  0.00  0.00    +0.000 A 
ATOM      8  C   UNL     1       2.308   4.367  20.508  0.00  0.00    +0.000 A 
ATOM      9  C   UNL     1       3.084   4.191  19.370  0.00  0.00    +0.000 A 
ATOM     10  C   UNL     1       3.341   5.277  18.536  0.00  0.00    +0.000 A 
ATOM     11  C   UNL     1       2.826   6.548  18.838  0.00  0.00    +0.000 A 
ATOM     12 CL   UNL     1       3.288   7.821  17.758  0.00  0.00    +0.000 Cl
ENDBRANCH   3   6
BRANCH   5  13
ATOM     13  C   UNL     1       0.378  11.235  19.469  0.00  0.00    +0.000 A 
ATOM     14  C   UNL     1      -0.901  11.453  18.931  0.00  0.00    +0.000 A 
ATOM     15  C   UNL     1      -1.194  12.653  18.278  0.00  0.00    +0.000 A 
ATOM     16  C   UNL     1      -0.204  13.624  18.123  0.00  0.00    +0.000 A 
ATOM     17  C   UNL     1       1.078  13.387  18.613  0.00  0.00    +0.000 A 
ATOM     18 CL   UNL     1       2.313  14.563  18.376  0.00  0.00    +0.000 Cl
ATOM     19  C   UNL     1       1.377  12.201  19.283  0.00  0.00    +0.000 A 
ENDBRANCH   5  13
BRANCH   1  21
ATOM     20  O   UNL     1      -0.631  10.023  23.530  0.00  0.00    +0.000 OA
ATOM     21  C   UNL     1      -0.200  10.501  22.487  0.00  0.00    +0.000 C 
ATOM     22  N   UNL     1      -0.393  11.820  22.164  0.00  0.00    +0.000 N 
ATOM     23  H   UNL     1      -0.010  12.202  21.314  0.00  0.00    +0.000 HD
BRANCH  22  24
ATOM     24  C   UNL     1      -1.173  12.724  22.991  0.00  0.00    +0.000 C 
BRANCH  24  25
ATOM     25  C   UNL     1      -0.530  14.108  22.882  0.00  0.00    +0.000 A 
ATOM     26  C   UNL     1      -0.971  15.202  23.644  0.00  0.00    +0.000 A 
ATOM     27  C   UNL     1      -0.368  16.457  23.517  0.00  0.00    +0.000 A 
ATOM     28  C   UNL     1       0.662  16.644  22.599  0.00  0.00    +0.000 A 
ATOM     29  C   UNL     1       1.090  15.578  21.810  0.00  0.00    +0.000 A 
ATOM     30  C   UNL     1       0.499  14.322  21.949  0.00  0.00    +0.000 A 
ENDBRANCH  24  25
BRANCH  24  31
ATOM     31  C   UNL     1      -2.662  12.695  22.626  0.00  0.00    +0.000 A 
ATOM     32  C   UNL     1      -3.119  12.775  21.298  0.00  0.00    +0.000 A 
ATOM     33  C   UNL     1      -4.483  12.872  21.013  0.00  0.00    +0.000 A 
ATOM     34  C   UNL     1      -5.414  12.873  22.046  0.00  0.00    +0.000 A 
ATOM     35  C   UNL     1      -4.988  12.723  23.364  0.00  0.00    +0.000 A 
ATOM     36  C   UNL     1      -3.627  12.615  23.650  0.00  0.00    +0.000 A 
ENDBRANCH  24  31
ENDBRANCH  22  24
ENDBRANCH   1  21
TORSDOF 6
ENDMDL
MODEL 5
REMARK VINA RESULT:      -8.2      5.205      8.956
REMARK  Name = 
REMARK  6 active torsions:
REMARK  status: ('A' for Active; 'I' for Inactive)
REMARK    1  A    between atoms: C_2  and  C_17
REMARK    2  A    between atoms: N_3  and  C_4
REMARK    3  A    between atoms: C_4  and  C_5
REMARK    4  A    between atoms: C_4  and  C_11
REMARK    5  A    between atoms: C_19  and  C_20
REMARK    6  A    between atoms: N_28  and  C_29
REMARK                            x       y       z     vdW  Elec       q    Type
REMARK                         _______ _______ _______ _____ _____    ______ ____
ROOT
ATOM      1  C   UNL     1       0.545   9.904  21.530  0.00  0.00    +0.000 A 
ATOM      2  C   UNL     1       1.110   8.646  21.650  0.00  0.00    +0.000 A 
ATOM      3  C   UNL     1       1.477   8.249  20.343  0.00  0.00    +0.000 A 
ATOM      4  N   UNL     1       1.296   9.263  19.486  0.00  0.00    +0.000 NA
ATOM      5  N   UNL     1       0.829  10.300  20.232  0.00  0.00    +0.000 N 
ENDROOT
BRANCH   3   6
ATOM      6  C   UNL     1       1.965   6.942  19.877  0.00  0.00    +0.000 A 
ATOM      7  C   UNL     1       1.725   5.808  20.681  0.00  0.00    +0.000 A 
ATOM      8  C   UNL     1       2.196   4.543  20.312  0.00  0.00    +0.000 A 
ATOM      9  C   UNL     1       2.912   4.384  19.133  0.00  0.00    +0.000 A 
ATOM     10  C   UNL     1       3.161   5.490  18.323  0.00  0.00    +0.000 A 
ATOM     11  C   UNL     1       2.698   6.763  18.688  0.00  0.00    +0.000 A 
ATOM     12 CL   UNL     1       3.145   8.058  17.629  0.00  0.00    +0.000 Cl
ENDBRANCH   3   6
BRANCH   5  13
ATOM     13  C   UNL     1       0.752  11.596  19.643  0.00  0.00    +0.000 A 
ATOM     14  C   UNL     1      -0.350  11.920  18.835  0.00  0.00    +0.000 A 
ATOM     15  C   UNL     1      -0.462  13.196  18.278  0.00  0.00    +0.000 A 
ATOM     16  C   UNL     1       0.542  14.142  18.490  0.00  0.00    +0.000 A 
ATOM     17  C   UNL     1       1.659  13.804  19.249  0.00  0.00    +0.000 A 
ATOM     18 CL   UNL     1       2.923  14.953  19.466  0.00  0.00    +0.000 Cl
ATOM     19  C   UNL     1       1.773  12.540  19.826  0.00  0.00    +0.000 A 
ENDBRANCH   5  13
BRANCH   1  21
ATOM     20  O   UNL     1      -0.299  10.390  23.672  0.00  0.00    +0.000 OA
ATOM     21  C   UNL     1      -0.273  10.634  22.471  0.00  0.00    +0.000 C 
ATOM     22  N   UNL     1      -1.016  11.649  21.925  0.00  0.00    +0.000 N 
ATOM     23  H   UNL     1      -0.964  11.852  20.939  0.00  0.00    +0.000 HD
BRANCH  22  24
ATOM     24  C   UNL     1      -1.933  12.460  22.708  0.00  0.00    +0.000 C 
BRANCH  24  25
ATOM     25  C   UNL     1      -1.217  13.774  23.028  0.00  0.00    +0.000 A 
ATOM     26  C   UNL     1      -1.512  14.527  24.176  0.00  0.00    +0.000 A 
ATOM     27  C   UNL     1      -0.846  15.729  24.438  0.00  0.00    +0.000 A 
ATOM     28  C   UNL     1       0.099  16.211  23.537  0.00  0.00    +0.000 A 
ATOM     29  C   UNL     1       0.380  15.492  22.377  0.00  0.00    +0.000 A 
ATOM     30  C   UNL     1      -0.273  14.286  22.123  0.00  0.00    +0.000 A 
ENDBRANCH  24  25
BRANCH  24  31
ATOM     31  C   UNL     1      -3.284  12.638  22.005  0.00  0.00    +0.000 A 
ATOM     32  C   UNL     1      -4.492  12.789  22.710  0.00  0.00    +0.000 A 
ATOM     33  C   UNL     1      -5.716  12.823  22.038  0.00  0.00    +0.000 A 
ATOM     34  C   UNL     1      -5.754  12.724  20.651  0.00  0.00    +0.000 A 
ATOM     35  C   UNL     1      -4.566  12.645  19.929  0.00  0.00    +0.000 A 
ATOM     36  C   UNL     1      -3.342  12.623  20.597  0.00  0.00    +0.000 A 
ENDBRANCH  24  31
ENDBRANCH  22  24
ENDBRANCH   1  21
TORSDOF 6
ENDMDL
MODEL 6
REMARK VINA RESULT:      -8.2      4.316      8.543
REMARK  Name = 
REMARK  6 active torsions:
REMARK  status: ('A' for Active; 'I' for Inactive)
REMARK    1  A    between atoms: C_2  and  C_17
REMARK    2  A    between atoms: N_3  and  C_4
REMARK    3  A    between atoms: C_4  and  C_5
REMARK    4  A    between atoms: C_4  and  C_11
REMARK    5  A    between atoms: C_19  and  C_20
REMARK    6  A    between atoms: N_28  and  C_29
REMARK                            x       y       z     vdW  Elec       q    Type
REMARK                         _______ _______ _______ _____ _____    ______ ____
ROOT
ATOM      1  C   UNL     1       2.077  10.401  18.384  0.00  0.00    +0.000 A 
ATOM      2  C   UNL     1       2.827  11.452  17.884  0.00  0.00    +0.000 A 
ATOM      3  C   UNL     1       2.359  12.618  18.535  0.00  0.00    +0.000 A 
ATOM      4  N   UNL     1       1.482  12.290  19.493  0.00  0.00    +0.000 NA
ATOM      5  N   UNL     1       1.395  10.933  19.467  0.00  0.00    +0.000 N 
ENDROOT
BRANCH   3   6
ATOM      6  C   UNL     1       2.692  14.024  18.262  0.00  0.00    +0.000 A 
ATOM      7  C   UNL     1       4.030  14.354  17.963  0.00  0.00    +0.000 A 
ATOM      8  C   UNL     1       4.419  15.678  17.732  0.00  0.00    +0.000 A 
ATOM      9  C   UNL     1       3.479  16.699  17.791  0.00  0.00    +0.000 A 
ATOM     10  C   UNL     1       2.151  16.398  18.084  0.00  0.00    +0.000 A 
ATOM     11  C   UNL     1       1.755  15.073  18.324  0.00  0.00    +0.000 A 
ATOM     12 CL   UNL     1       0.091  14.853  18.752  0.00  0.00    +0.000 Cl
ENDBRANCH   3   6
BRANCH   5  13
ATOM     13  C   UNL     1       0.709  10.264  20.523  0.00  0.00    +0.000 A 
ATOM     14  C   UNL     1       0.893   8.883  20.697  0.00  0.00    +0.000 A 
ATOM     15  C   UNL     1       0.259   8.216  21.748  0.00  0.00    +0.000 A 
ATOM     16  C   UNL     1      -0.593   8.913  22.605  0.00  0.00    +0.000 A 
ATOM     17  C   UNL     1      -0.816  10.272  22.401  0.00  0.00    +0.000 A 
ATOM     18 CL   UNL     1      -1.908  11.122  23.427  0.00  0.00    +0.000 Cl
ATOM     19  C   UNL     1      -0.173  10.953  21.368  0.00  0.00    +0.000 A 
ENDBRANCH   5  13
BRANCH   1  21
ATOM     20  O   UNL     1       0.866   8.667  17.353  0.00  0.00    +0.000 OA
ATOM     21  C   UNL     1       1.909   9.066  17.858  0.00  0.00    +0.000 C 
ATOM     22  N   UNL     1       3.020   8.267  17.945  0.00  0.00    +0.000 N 
ATOM     23  H   UNL     1       3.877   8.619  18.341  0.00  0.00    +0.000 HD
BRANCH  22  24
ATOM     24  C   UNL     1       3.026   6.880  17.511  0.00  0.00    +0.000 C 
BRANCH  24  25
ATOM     25  C   UNL     1       4.466   6.528  17.134  0.00  0.00    +0.000 A 
ATOM     26  C   UNL     1       4.788   5.373  16.402  0.00  0.00    +0.000 A 
ATOM     27  C   UNL     1       6.115   5.074  16.078  0.00  0.00    +0.000 A 
ATOM     28  C   UNL     1       7.142   5.908  16.513  0.00  0.00    +0.000 A 
ATOM     29  C   UNL     1       6.843   7.040  17.268  0.00  0.00    +0.000 A 
ATOM     30  C   UNL     1       5.518   7.347  17.578  0.00  0.00    +0.000 A 
ENDBRANCH  24  25
BRANCH  24  31
ATOM     31  C   UNL     1       2.408   5.949  18.562  0.00  0.00    +0.000 A 
ATOM     32  C   UNL     1       2.636   6.105  19.941  0.00  0.00    +0.000 A 
ATOM     33  C   UNL     1       2.161   5.164  20.858  0.00  0.00    +0.000 A 
ATOM     34  C   UNL     1       1.435   4.063  20.416  0.00  0.00    +0.000 A 
ATOM     35  C   UNL     1       1.137   3.927  19.062  0.00  0.00    +0.000 A 
ATOM     36  C   UNL     1       1.602   4.871  18.146  0.00  0.00    +0.000 A 
ENDBRANCH  24  31
ENDBRANCH  22  24
ENDBRANCH   1  21
TORSDOF 6
ENDMDL
MODEL 7
REMARK VINA RESULT:      -8.1      5.098      8.855
REMARK  Name = 
REMARK  6 active torsions:
REMARK  status: ('A' for Active; 'I' for Inactive)
REMARK    1  A    between atoms: C_2  and  C_17
REMARK    2  A    between atoms: N_3  and  C_4
REMARK    3  A    between atoms: C_4  and  C_5
REMARK    4  A    between atoms: C_4  and  C_11
REMARK    5  A    between atoms: C_19  and  C_20
REMARK    6  A    between atoms: N_28  and  C_29
REMARK                            x       y       z     vdW  Elec       q    Type
REMARK                         _______ _______ _______ _____ _____    ______ ____
ROOT
ATOM      1  C   UNL     1       1.061  10.072  18.641  0.00  0.00    +0.000 A 
ATOM      2  C   UNL     1       1.623   9.155  17.768  0.00  0.00    +0.000 A 
ATOM      3  C   UNL     1       2.175   8.130  18.572  0.00  0.00    +0.000 A 
ATOM      4  N   UNL     1       1.838   8.319  19.854  0.00  0.00    +0.000 NA
ATOM      5  N   UNL     1       1.072   9.443  19.876  0.00  0.00    +0.000 N 
ENDROOT
BRANCH   3   6
ATOM      6  C   UNL     1       3.027   7.000  18.171  0.00  0.00    +0.000 A 
ATOM      7  C   UNL     1       3.999   7.211  17.170  0.00  0.00    +0.000 A 
ATOM      8  C   UNL     1       4.815   6.169  16.718  0.00  0.00    +0.000 A 
ATOM      9  C   UNL     1       4.681   4.896  17.257  0.00  0.00    +0.000 A 
ATOM     10  C   UNL     1       3.728   4.664  18.247  0.00  0.00    +0.000 A 
ATOM     11  C   UNL     1       2.901   5.702  18.701  0.00  0.00    +0.000 A 
ATOM     12 CL   UNL     1       1.711   5.255  19.878  0.00  0.00    +0.000 Cl
ENDBRANCH   3   6
BRANCH   5  13
ATOM     13  C   UNL     1       0.372   9.779  21.071  0.00  0.00    +0.000 A 
ATOM     14  C   UNL     1       0.678   9.101  22.262  0.00  0.00    +0.000 A 
ATOM     15  C   UNL     1       0.029   9.441  23.451  0.00  0.00    +0.000 A 
ATOM     16  C   UNL     1      -0.956  10.430  23.452  0.00  0.00    +0.000 A 
ATOM     17  C   UNL     1      -1.295  11.067  22.261  0.00  0.00    +0.000 A 
ATOM     18 CL   UNL     1      -2.546  12.250  22.252  0.00  0.00    +0.000 Cl
ATOM     19  C   UNL     1      -0.640  10.750  21.071  0.00  0.00    +0.000 A 
ENDBRANCH   5  13
BRANCH   1  21
ATOM     20  O   UNL     1      -0.417  11.738  17.881  0.00  0.00    +0.000 OA
ATOM     21  C   UNL     1       0.654  11.437  18.397  0.00  0.00    +0.000 C 
ATOM     22  N   UNL     1       1.550  12.390  18.807  0.00  0.00    +0.000 N 
ATOM     23  H   UNL     1       2.415  12.125  19.252  0.00  0.00    +0.000 HD
BRANCH  22  24
ATOM     24  C   UNL     1       1.334  13.812  18.602  0.00  0.00    +0.000 C 
BRANCH  24  25
ATOM     25  C   UNL     1       0.522  14.324  19.794  0.00  0.00    +0.000 A 
ATOM     26  C   UNL     1      -0.671  15.046  19.633  0.00  0.00    +0.000 A 
ATOM     27  C   UNL     1      -1.387  15.508  20.743  0.00  0.00    +0.000 A 
ATOM     28  C   UNL     1      -0.900  15.284  22.027  0.00  0.00    +0.000 A 
ATOM     29  C   UNL     1       0.300  14.598  22.204  0.00  0.00    +0.000 A 
ATOM     30  C   UNL     1       1.006  14.124  21.098  0.00  0.00    +0.000 A 
ENDBRANCH  24  25
BRANCH  24  31
ATOM     31  C   UNL     1       2.650  14.564  18.371  0.00  0.00    +0.000 A 
ATOM     32  C   UNL     1       3.883  13.906  18.215  0.00  0.00    +0.000 A 
ATOM     33  C   UNL     1       5.076  14.627  18.132  0.00  0.00    +0.000 A 
ATOM     34  C   UNL     1       5.057  16.017  18.184  0.00  0.00    +0.000 A 
ATOM     35  C   UNL     1       3.842  16.691  18.266  0.00  0.00    +0.000 A 
ATOM     36  C   UNL     1       2.648  15.973  18.338  0.00  0.00    +0.000 A 
ENDBRANCH  24  31
ENDBRANCH  22  24
ENDBRANCH   1  21
TORSDOF 6
ENDMDL
MODEL 8
REMARK VINA RESULT:      -8.1      7.120     11.484
REMARK  Name = 
REMARK  6 active torsions:
REMARK  status: ('A' for Active; 'I' for Inactive)
REMARK    1  A    between atoms: C_2  and  C_17
REMARK    2  A    between atoms: N_3  and  C_4
REMARK    3  A    between atoms: C_4  and  C_5
REMARK    4  A    between atoms: C_4  and  C_11
REMARK    5  A    between atoms: C_19  and  C_20
REMARK    6  A    between atoms: N_28  and  C_29
REMARK                            x       y       z     vdW  Elec       q    Type
REMARK                         _______ _______ _______ _____ _____    ______ ____
ROOT
ATOM      1  C   UNL     1       0.357  12.742  20.210  0.00  0.00    +0.000 A 
ATOM      2  C   UNL     1       1.250  11.936  19.526  0.00  0.00    +0.000 A 
ATOM      3  C   UNL     1       0.783  10.609  19.674  0.00  0.00    +0.000 A 
ATOM      4  N   UNL     1      -0.413  10.608  20.278  0.00  0.00    +0.000 NA
ATOM      5  N   UNL     1      -0.715  11.914  20.506  0.00  0.00    +0.000 N 
ENDROOT
BRANCH   3   6
ATOM      6  C   UNL     1       1.438   9.350  19.288  0.00  0.00    +0.000 A 
ATOM      7  C   UNL     1       1.824   9.177  17.943  0.00  0.00    +0.000 A 
ATOM      8  C   UNL     1       2.418   7.988  17.505  0.00  0.00    +0.000 A 
ATOM      9  C   UNL     1       2.640   6.950  18.401  0.00  0.00    +0.000 A 
ATOM     10  C   UNL     1       2.268   7.099  19.735  0.00  0.00    +0.000 A 
ATOM     11  C   UNL     1       1.666   8.286  20.181  0.00  0.00    +0.000 A 
ATOM     12 CL   UNL     1       1.184   8.304  21.844  0.00  0.00    +0.000 Cl
ENDBRANCH   3   6
BRANCH   5  13
ATOM     13  C   UNL     1      -2.031  12.255  20.936  0.00  0.00    +0.000 A 
ATOM     14  C   UNL     1      -3.024  12.509  19.977  0.00  0.00    +0.000 A 
ATOM     15  C   UNL     1      -4.329  12.808  20.377  0.00  0.00    +0.000 A 
ATOM     16  C   UNL     1      -4.640  12.896  21.734  0.00  0.00    +0.000 A 
ATOM     17  C   UNL     1      -3.644  12.694  22.685  0.00  0.00    +0.000 A 
ATOM     18 CL   UNL     1      -4.016  12.854  24.359  0.00  0.00    +0.000 Cl
ATOM     19  C   UNL     1      -2.343  12.375  22.298  0.00  0.00    +0.000 A 
ENDBRANCH   5  13
BRANCH   1  21
ATOM     20  O   UNL     1       1.217  14.436  21.599  0.00  0.00    +0.000 OA
ATOM     21  C   UNL     1       0.510  14.109  20.653  0.00  0.00    +0.000 C 
ATOM     22  N   UNL     1      -0.184  15.036  19.917  0.00  0.00    +0.000 N 
ATOM     23  H   UNL     1      -0.741  14.752  19.127  0.00  0.00    +0.000 HD
BRANCH  22  24
ATOM     24  C   UNL     1      -0.188  16.452  20.241  0.00  0.00    +0.000 C 
BRANCH  24  25
ATOM     25  C   UNL     1       0.055  17.217  18.939  0.00  0.00    +0.000 A 
ATOM     26  C   UNL     1      -0.980  17.864  18.245  0.00  0.00    +0.000 A 
ATOM     27  C   UNL     1      -0.728  18.549  17.053  0.00  0.00    +0.000 A 
ATOM     28  C   UNL     1       0.557  18.567  16.519  0.00  0.00    +0.000 A 
ATOM     29  C   UNL     1       1.590  17.901  17.176  0.00  0.00    +0.000 A 
ATOM     30  C   UNL     1       1.341  17.231  18.374  0.00  0.00    +0.000 A 
ENDBRANCH  24  25
BRANCH  24  31
ATOM     31  C   UNL     1      -1.466  16.866  20.982  0.00  0.00    +0.000 A 
ATOM     32  C   UNL     1      -2.640  16.092  20.960  0.00  0.00    +0.000 A 
ATOM     33  C   UNL     1      -3.820  16.561  21.540  0.00  0.00    +0.000 A 
ATOM     34  C   UNL     1      -3.845  17.803  22.167  0.00  0.00    +0.000 A 
ATOM     35  C   UNL     1      -2.676  18.554  22.262  0.00  0.00    +0.000 A 
ATOM     36  C   UNL     1      -1.493  18.082  21.693  0.00  0.00    +0.000 A 
ENDBRANCH  24  31
ENDBRANCH  22  24
ENDBRANCH   1  21
TORSDOF 6
ENDMDL
MODEL 9
REMARK VINA RESULT:      -7.9      5.255      9.062
REMARK  Name = 
REMARK  6 active torsions:
REMARK  status: ('A' for Active; 'I' for Inactive)
REMARK    1  A    between atoms: C_2  and  C_17
REMARK    2  A    between atoms: N_3  and  C_4
REMARK    3  A    between atoms: C_4  and  C_5
REMARK    4  A    between atoms: C_4  and  C_11
REMARK    5  A    between atoms: C_19  and  C_20
REMARK    6  A    between atoms: N_28  and  C_29
REMARK                            x       y       z     vdW  Elec       q    Type
REMARK                         _______ _______ _______ _____ _____    ______ ____
ROOT
ATOM      1  C   UNL     1       0.665   9.582  21.471  0.00  0.00    +0.000 A 
ATOM      2  C   UNL     1       1.504   8.493  21.636  0.00  0.00    +0.000 A 
ATOM      3  C   UNL     1       1.556   7.838  20.383  0.00  0.00    +0.000 A 
ATOM      4  N   UNL     1       0.916   8.565  19.457  0.00  0.00    +0.000 NA
ATOM      5  N   UNL     1       0.468   9.676  20.102  0.00  0.00    +0.000 N 
ENDROOT
BRANCH   3   6
ATOM      6  C   UNL     1       2.164   6.543  20.043  0.00  0.00    +0.000 A 
ATOM      7  C   UNL     1       1.933   5.445  20.897  0.00  0.00    +0.000 A 
ATOM      8  C   UNL     1       2.513   4.196  20.648  0.00  0.00    +0.000 A 
ATOM      9  C   UNL     1       3.333   4.018  19.541  0.00  0.00    +0.000 A 
ATOM     10  C   UNL     1       3.575   5.088  18.683  0.00  0.00    +0.000 A 
ATOM     11  C   UNL     1       3.003   6.345  18.929  0.00  0.00    +0.000 A 
ATOM     12 CL   UNL     1       3.451   7.603  17.826  0.00  0.00    +0.000 Cl
ENDBRANCH   3   6
BRANCH   5  13
ATOM     13  C   UNL     1      -0.059  10.755  19.334  0.00  0.00    +0.000 A 
ATOM     14  C   UNL     1       0.711  11.915  19.158  0.00  0.00    +0.000 A 
ATOM     15  C   UNL     1       0.228  12.969  18.379  0.00  0.00    +0.000 A 
ATOM     16  C   UNL     1      -1.041  12.889  17.805  0.00  0.00    +0.000 A 
ATOM     17  C   UNL     1      -1.826  11.760  18.022  0.00  0.00    +0.000 A 
ATOM     18 CL   UNL     1      -3.414  11.682  17.358  0.00  0.00    +0.000 Cl
ATOM     19  C   UNL     1      -1.347  10.693  18.782  0.00  0.00    +0.000 A 
ENDBRANCH   5  13
BRANCH   1  21
ATOM     20  O   UNL     1      -0.121  10.049  23.639  0.00  0.00    +0.000 OA
ATOM     21  C   UNL     1       0.013  10.396  22.471  0.00  0.00    +0.000 C 
ATOM     22  N   UNL     1      -0.435  11.613  22.024  0.00  0.00    +0.000 N 
ATOM     23  H   UNL     1      -0.294  11.892  21.067  0.00  0.00    +0.000 HD
BRANCH  22  24
ATOM     24  C   UNL     1      -1.155  12.545  22.875  0.00  0.00    +0.000 C 
BRANCH  24  25
ATOM     25  C   UNL     1      -0.462  13.903  22.749  0.00  0.00    +0.000 A 
ATOM     26  C   UNL     1       0.623  14.113  21.883  0.00  0.00    +0.000 A 
ATOM     27  C   UNL     1       1.241  15.365  21.795  0.00  0.00    +0.000 A 
ATOM     28  C   UNL     1       0.803  16.414  22.598  0.00  0.00    +0.000 A 
ATOM     29  C   UNL     1      -0.251  16.214  23.487  0.00  0.00    +0.000 A 
ATOM     30  C   UNL     1      -0.877  14.970  23.564  0.00  0.00    +0.000 A 
ENDBRANCH  24  25
BRANCH  24  31
ATOM     31  C   UNL     1      -2.654  12.574  22.552  0.00  0.00    +0.000 A 
ATOM     32  C   UNL     1      -3.145  12.670  21.237  0.00  0.00    +0.000 A 
ATOM     33  C   UNL     1      -4.511  12.820  20.991  0.00  0.00    +0.000 A 
ATOM     34  C   UNL     1      -5.412  12.859  22.050  0.00  0.00    +0.000 A 
ATOM     35  C   UNL     1      -4.955  12.694  23.355  0.00  0.00    +0.000 A 
ATOM     36  C   UNL     1      -3.592  12.533  23.603  0.00  0.00    +0.000 A 
ENDBRANCH  24  31
ENDBRANCH  22  24
ENDBRANCH   1  21
TORSDOF 6
ENDMDL
