MODEL 1
REMARK VINA RESULT:      -8.0      0.000      0.000
REMARK  Name = 
REMARK  7 active torsions:
REMARK  status: ('A' for Active; 'I' for Inactive)
REMARK    1  A    between atoms: N_2  and  C_4
REMARK    2  A    between atoms: C_8  and  N_9
REMARK    3  A    between atoms: C_10  and  C_11
REMARK    4  A    between atoms: C_11  and  O_12
REMARK    5  A    between atoms: O_12  and  C_13
REMARK    6  A    between atoms: C_21  and  S_22
REMARK    7  A    between atoms: S_22  and  C_23
REMARK                            x       y       z     vdW  Elec       q    Type
REMARK                         _______ _______ _______ _____ _____    ______ ____
ROOT
ATOM      1  N   UNL     1       3.841   5.549  17.498  0.00  0.00    +0.000 N 
ATOM      2  C   UNL     1       3.648   6.918  17.752  0.00  0.00    +0.000 A 
ATOM      3  N   UNL     1       4.451   7.624  16.975  0.00  0.00    +0.000 NA
ATOM      4  N   UNL     1       5.172   6.774  16.196  0.00  0.00    +0.000 NA
ATOM      5  C   UNL     1       4.812   5.547  16.484  0.00  0.00    +0.000 A 
ENDROOT
BRANCH   1  10
ATOM      6  C   UNL     1       3.091   2.789  19.942  0.00  0.00    +0.000 A 
ATOM      7  C   UNL     1       1.976   2.179  19.360  0.00  0.00    +0.000 A 
ATOM      8  C   UNL     1       1.464   2.703  18.178  0.00  0.00    +0.000 A 
ATOM      9  C   UNL     1       2.060   3.824  17.580  0.00  0.00    +0.000 A 
ATOM     10  C   UNL     1       3.190   4.438  18.144  0.00  0.00    +0.000 A 
ATOM     11  C   UNL     1       3.691   3.916  19.346  0.00  0.00    +0.000 A 
BRANCH   6  13
ATOM     12  O   UNL     1       2.947   2.170  22.174  0.00  0.00    +0.000 OA
ATOM     13  N   UNL     1       3.668   2.219  21.167  0.00  0.00    +0.000 N 
ATOM     14  O   UNL     1       4.842   1.822  21.117  0.00  0.00    +0.000 OA
ENDBRANCH   6  13
ENDBRANCH   1  10
BRANCH   2  15
ATOM     15  C   UNL     1       2.606   7.551  18.618  0.00  0.00    +0.000 C 
BRANCH  15  16
ATOM     16  O   UNL     1       1.933   8.527  17.820  0.00  0.00    +0.000 OA
BRANCH  16  17
ATOM     17  C   UNL     1       0.974   9.279  18.447  0.00  0.00    +0.000 A 
ATOM     18  C   UNL     1       1.104   9.367  19.836  0.00  0.00    +0.000 A 
ATOM     19  C   UNL     1       0.203  10.119  20.592  0.00  0.00    +0.000 A 
ATOM     20  C   UNL     1      -0.828  10.808  19.958  0.00  0.00    +0.000 A 
ATOM     21  C   UNL     1      -0.951  10.742  18.571  0.00  0.00    +0.000 A 
ATOM     22  C   UNL     1      -0.052   9.978  17.814  0.00  0.00    +0.000 A 
ENDBRANCH  16  17
ENDBRANCH  15  16
ENDBRANCH   2  15
BRANCH   5  23
ATOM     23  S   UNL     1       5.554   4.144  15.774  0.00  0.00    +0.000 S 
BRANCH  23  24
ATOM     24  C   UNL     1       5.882   4.588  14.031  0.00  0.00    +0.000 C 
ATOM     25  C   UNL     1       7.343   5.044  13.918  0.00  0.00    +0.000 C 
ATOM     26  C   UNL     1       7.701   4.883  12.448  0.00  0.00    +0.000 C 
ATOM     27  C   UNL     1       6.832   3.745  11.932  0.00  0.00    +0.000 C 
ATOM     28  C   UNL     1       5.789   3.450  13.013  0.00  0.00    +0.000 C 
ENDBRANCH  23  24
ENDBRANCH   5  23
TORSDOF 7
ENDMDL
MODEL 2
REMARK VINA RESULT:      -7.9      0.378      1.103
REMARK  Name = 
REMARK  7 active torsions:
REMARK  status: ('A' for Active; 'I' for Inactive)
REMARK    1  A    between atoms: N_2  and  C_4
REMARK    2  A    between atoms: C_8  and  N_9
REMARK    3  A    between atoms: C_10  and  C_11
REMARK    4  A    between atoms: C_11  and  O_12
REMARK    5  A    between atoms: O_12  and  C_13
REMARK    6  A    between atoms: C_21  and  S_22
REMARK    7  A    between atoms: S_22  and  C_23
REMARK                            x       y       z     vdW  Elec       q    Type
REMARK                         _______ _______ _______ _____ _____    ______ ____
ROOT
ATOM      1  N   UNL     1       3.698   5.698  17.570  0.00  0.00    +0.000 N 
ATOM      2  C   UNL     1       3.482   7.070  17.782  0.00  0.00    +0.000 A 
ATOM      3  N   UNL     1       4.308   7.765  17.020  0.00  0.00    +0.000 NA
ATOM      4  N   UNL     1       5.068   6.904  16.291  0.00  0.00    +0.000 NA
ATOM      5  C   UNL     1       4.709   5.681  16.596  0.00  0.00    +0.000 A 
ENDROOT
BRANCH   1  10
ATOM      6  C   UNL     1       2.950   2.902  19.975  0.00  0.00    +0.000 A 
ATOM      7  C   UNL     1       1.785   2.354  19.431  0.00  0.00    +0.000 A 
ATOM      8  C   UNL     1       1.240   2.932  18.290  0.00  0.00    +0.000 A 
ATOM      9  C   UNL     1       1.853   4.044  17.693  0.00  0.00    +0.000 A 
ATOM     10  C   UNL     1       3.033   4.596  18.217  0.00  0.00    +0.000 A 
ATOM     11  C   UNL     1       3.567   4.020  19.380  0.00  0.00    +0.000 A 
BRANCH   6  13
ATOM     12  O   UNL     1       4.732   1.886  21.061  0.00  0.00    +0.000 OA
ATOM     13  N   UNL     1       3.560   2.276  21.156  0.00  0.00    +0.000 N 
ATOM     14  O   UNL     1       2.862   2.178  22.176  0.00  0.00    +0.000 OA
ENDBRANCH   6  13
ENDBRANCH   1  10
BRANCH   2  15
ATOM     15  C   UNL     1       2.400   7.714  18.589  0.00  0.00    +0.000 C 
BRANCH  15  16
ATOM     16  O   UNL     1       1.966   8.868  17.867  0.00  0.00    +0.000 OA
BRANCH  16  17
ATOM     17  C   UNL     1       0.966   9.611  18.439  0.00  0.00    +0.000 A 
ATOM     18  C   UNL     1      -0.218   9.679  17.699  0.00  0.00    +0.000 A 
ATOM     19  C   UNL     1      -1.320  10.388  18.179  0.00  0.00    +0.000 A 
ATOM     20  C   UNL     1      -1.252  11.021  19.418  0.00  0.00    +0.000 A 
ATOM     21  C   UNL     1      -0.082  10.938  20.171  0.00  0.00    +0.000 A 
ATOM     22  C   UNL     1       1.028  10.235  19.683  0.00  0.00    +0.000 A 
ENDBRANCH  16  17
ENDBRANCH  15  16
ENDBRANCH   2  15
BRANCH   5  23
ATOM     23  S   UNL     1       5.492   4.269  15.952  0.00  0.00    +0.000 S 
BRANCH  23  24
ATOM     24  C   UNL     1       5.842   4.655  14.198  0.00  0.00    +0.000 C 
ATOM     25  C   UNL     1       7.296   5.133  14.093  0.00  0.00    +0.000 C 
ATOM     26  C   UNL     1       7.682   4.926  12.636  0.00  0.00    +0.000 C 
ATOM     27  C   UNL     1       6.842   3.754  12.148  0.00  0.00    +0.000 C 
ATOM     28  C   UNL     1       5.786   3.479  13.222  0.00  0.00    +0.000 C 
ENDBRANCH  23  24
ENDBRANCH   5  23
TORSDOF 7
ENDMDL
MODEL 3
REMARK VINA RESULT:      -7.9      1.931      6.981
REMARK  Name = 
REMARK  7 active torsions:
REMARK  status: ('A' for Active; 'I' for Inactive)
REMARK    1  A    between atoms: N_2  and  C_4
REMARK    2  A    between atoms: C_8  and  N_9
REMARK    3  A    between atoms: C_10  and  C_11
REMARK    4  A    between atoms: C_11  and  O_12
REMARK    5  A    between atoms: O_12  and  C_13
REMARK    6  A    between atoms: C_21  and  S_22
REMARK    7  A    between atoms: S_22  and  C_23
REMARK                            x       y       z     vdW  Elec       q    Type
REMARK                         _______ _______ _______ _____ _____    ______ ____
ROOT
ATOM      1  N   UNL     1       4.441   5.604  17.571  0.00  0.00    +0.000 N 
ATOM      2  C   UNL     1       5.668   6.018  17.027  0.00  0.00    +0.000 A 
ATOM      3  N   UNL     1       5.627   7.319  16.797  0.00  0.00    +0.000 NA
ATOM      4  N   UNL     1       4.414   7.798  17.181  0.00  0.00    +0.000 NA
ATOM      5  C   UNL     1       3.708   6.799  17.653  0.00  0.00    +0.000 A 
ENDROOT
BRANCH   1  10
ATOM      6  C   UNL     1       4.011   2.437  19.557  0.00  0.00    +0.000 A 
ATOM      7  C   UNL     1       3.386   1.595  18.631  0.00  0.00    +0.000 A 
ATOM      8  C   UNL     1       3.086   2.092  17.368  0.00  0.00    +0.000 A 
ATOM      9  C   UNL     1       3.410   3.414  17.028  0.00  0.00    +0.000 A 
ATOM     10  C   UNL     1       4.052   4.267  17.940  0.00  0.00    +0.000 A 
ATOM     11  C   UNL     1       4.335   3.766  19.219  0.00  0.00    +0.000 A 
BRANCH   6  13
ATOM     12  O   UNL     1       3.561   2.072  21.804  0.00  0.00    +0.000 OA
ATOM     13  N   UNL     1       4.371   1.912  20.880  0.00  0.00    +0.000 N 
ATOM     14  O   UNL     1       5.466   1.340  20.991  0.00  0.00    +0.000 OA
ENDBRANCH   6  13
ENDBRANCH   1  10
BRANCH   2  15
ATOM     15  C   UNL     1       6.917   5.212  16.864  0.00  0.00    +0.000 C 
BRANCH  15  16
ATOM     16  O   UNL     1       7.509   5.599  15.622  0.00  0.00    +0.000 OA
BRANCH  16  17
ATOM     17  C   UNL     1       7.077   4.937  14.502  0.00  0.00    +0.000 A 
ATOM     18  C   UNL     1       7.774   5.239  13.330  0.00  0.00    +0.000 A 
ATOM     19  C   UNL     1       7.447   4.619  12.123  0.00  0.00    +0.000 A 
ATOM     20  C   UNL     1       6.427   3.671  12.085  0.00  0.00    +0.000 A 
ATOM     21  C   UNL     1       5.742   3.349  13.255  0.00  0.00    +0.000 A 
ATOM     22  C   UNL     1       6.064   3.981  14.464  0.00  0.00    +0.000 A 
ENDBRANCH  16  17
ENDBRANCH  15  16
ENDBRANCH   2  15
BRANCH   5  23
ATOM     23  S   UNL     1       2.059   6.961  18.175  0.00  0.00    +0.000 S 
BRANCH  23  24
ATOM     24  C   UNL     1       2.087   8.189  19.529  0.00  0.00    +0.000 C 
ATOM     25  C   UNL     1       1.185   9.365  19.130  0.00  0.00    +0.000 C 
ATOM     26  C   UNL     1       0.825  10.057  20.436  0.00  0.00    +0.000 C 
ATOM     27  C   UNL     1       0.856   8.971  21.502  0.00  0.00    +0.000 C 
ATOM     28  C   UNL     1       1.501   7.736  20.868  0.00  0.00    +0.000 C 
ENDBRANCH  23  24
ENDBRANCH   5  23
TORSDOF 7
ENDMDL
MODEL 4
REMARK VINA RESULT:      -7.9      2.464      3.205
REMARK  Name = 
REMARK  7 active torsions:
REMARK  status: ('A' for Active; 'I' for Inactive)
REMARK    1  A    between atoms: N_2  and  C_4
REMARK    2  A    between atoms: C_8  and  N_9
REMARK    3  A    between atoms: C_10  and  C_11
REMARK    4  A    between atoms: C_11  and  O_12
REMARK    5  A    between atoms: O_12  and  C_13
REMARK    6  A    between atoms: C_21  and  S_22
REMARK    7  A    between atoms: S_22  and  C_23
REMARK                            x       y       z     vdW  Elec       q    Type
REMARK                         _______ _______ _______ _____ _____    ______ ____
ROOT
ATOM      1  N   UNL     1       5.020   5.318  17.568  0.00  0.00    +0.000 N 
ATOM      2  C   UNL     1       4.509   6.542  18.029  0.00  0.00    +0.000 A 
ATOM      3  N   UNL     1       5.167   7.534  17.456  0.00  0.00    +0.000 NA
ATOM      4  N   UNL     1       6.100   7.017  16.613  0.00  0.00    +0.000 NA
ATOM      5  C   UNL     1       6.015   5.709  16.659  0.00  0.00    +0.000 A 
ENDROOT
BRANCH   1  10
ATOM      6  C   UNL     1       4.367   2.262  19.664  0.00  0.00    +0.000 A 
ATOM      7  C   UNL     1       3.903   1.349  18.712  0.00  0.00    +0.000 A 
ATOM      8  C   UNL     1       3.783   1.761  17.389  0.00  0.00    +0.000 A 
ATOM      9  C   UNL     1       4.126   3.070  17.018  0.00  0.00    +0.000 A 
ATOM     10  C   UNL     1       4.609   3.994  17.959  0.00  0.00    +0.000 A 
ATOM     11  C   UNL     1       4.709   3.578  19.295  0.00  0.00    +0.000 A 
BRANCH   6  13
ATOM     12  O   UNL     1       3.601   2.028  21.842  0.00  0.00    +0.000 OA
ATOM     13  N   UNL     1       4.538   1.827  21.057  0.00  0.00    +0.000 N 
ATOM     14  O   UNL     1       5.611   1.285  21.359  0.00  0.00    +0.000 OA
ENDBRANCH   6  13
ENDBRANCH   1  10
BRANCH   2  15
ATOM     15  C   UNL     1       3.309   6.768  18.892  0.00  0.00    +0.000 C 
BRANCH  15  16
ATOM     16  O   UNL     1       2.189   6.192  18.216  0.00  0.00    +0.000 OA
BRANCH  16  17
ATOM     17  C   UNL     1       1.671   5.043  18.754  0.00  0.00    +0.000 A 
ATOM     18  C   UNL     1       1.681   4.984  20.149  0.00  0.00    +0.000 A 
ATOM     19  C   UNL     1       1.163   3.876  20.822  0.00  0.00    +0.000 A 
ATOM     20  C   UNL     1       0.610   2.822  20.099  0.00  0.00    +0.000 A 
ATOM     21  C   UNL     1       0.577   2.884  18.707  0.00  0.00    +0.000 A 
ATOM     22  C   UNL     1       1.107   3.992  18.032  0.00  0.00    +0.000 A 
ENDBRANCH  16  17
ENDBRANCH  15  16
ENDBRANCH   2  15
BRANCH   5  23
ATOM     23  S   UNL     1       7.091   4.654  15.794  0.00  0.00    +0.000 S 
BRANCH  23  24
ATOM     24  C   UNL     1       6.539   4.706  14.051  0.00  0.00    +0.000 C 
ATOM     25  C   UNL     1       7.755   5.026  13.171  0.00  0.00    +0.000 C 
ATOM     26  C   UNL     1       7.382   4.543  11.778  0.00  0.00    +0.000 C 
ATOM     27  C   UNL     1       6.415   3.386  11.987  0.00  0.00    +0.000 C 
ATOM     28  C   UNL     1       6.018   3.392  13.465  0.00  0.00    +0.000 C 
ENDBRANCH  23  24
ENDBRANCH   5  23
TORSDOF 7
ENDMDL
MODEL 5
REMARK VINA RESULT:      -7.9      2.120      2.948
REMARK  Name = 
REMARK  7 active torsions:
REMARK  status: ('A' for Active; 'I' for Inactive)
REMARK    1  A    between atoms: N_2  and  C_4
REMARK    2  A    between atoms: C_8  and  N_9
REMARK    3  A    between atoms: C_10  and  C_11
REMARK    4  A    between atoms: C_11  and  O_12
REMARK    5  A    between atoms: O_12  and  C_13
REMARK    6  A    between atoms: C_21  and  S_22
REMARK    7  A    between atoms: S_22  and  C_23
REMARK                            x       y       z     vdW  Elec       q    Type
REMARK                         _______ _______ _______ _____ _____    ______ ____
ROOT
ATOM      1  N   UNL     1       3.359   5.979  17.874  0.00  0.00    +0.000 N 
ATOM      2  C   UNL     1       2.710   7.093  18.433  0.00  0.00    +0.000 A 
ATOM      3  N   UNL     1       3.187   8.197  17.885  0.00  0.00    +0.000 NA
ATOM      4  N   UNL     1       4.131   7.863  16.966  0.00  0.00    +0.000 NA
ATOM      5  C   UNL     1       4.233   6.556  16.938  0.00  0.00    +0.000 A 
ENDROOT
BRANCH   1  10
ATOM      6  C   UNL     1       3.416   2.723  19.758  0.00  0.00    +0.000 A 
ATOM      7  C   UNL     1       2.877   1.835  18.822  0.00  0.00    +0.000 A 
ATOM      8  C   UNL     1       2.472   2.327  17.586  0.00  0.00    +0.000 A 
ATOM      9  C   UNL     1       2.608   3.690  17.284  0.00  0.00    +0.000 A 
ATOM     10  C   UNL     1       3.162   4.592  18.206  0.00  0.00    +0.000 A 
ATOM     11  C   UNL     1       3.551   4.093  19.459  0.00  0.00    +0.000 A 
BRANCH   6  13
ATOM     12  O   UNL     1       5.033   1.746  21.106  0.00  0.00    +0.000 OA
ATOM     13  N   UNL     1       3.886   2.210  21.052  0.00  0.00    +0.000 N 
ATOM     14  O   UNL     1       3.103   2.275  22.012  0.00  0.00    +0.000 OA
ENDBRANCH   6  13
ENDBRANCH   1  10
BRANCH   2  15
ATOM     15  C   UNL     1       1.544   7.099  19.369  0.00  0.00    +0.000 C 
BRANCH  15  16
ATOM     16  O   UNL     1       1.954   7.795  20.547  0.00  0.00    +0.000 OA
BRANCH  16  17
ATOM     17  C   UNL     1       1.110   8.769  21.013  0.00  0.00    +0.000 A 
ATOM     18  C   UNL     1       0.575   9.608  20.031  0.00  0.00    +0.000 A 
ATOM     19  C   UNL     1      -0.314  10.629  20.370  0.00  0.00    +0.000 A 
ATOM     20  C   UNL     1      -0.693  10.805  21.699  0.00  0.00    +0.000 A 
ATOM     21  C   UNL     1      -0.180   9.959  22.680  0.00  0.00    +0.000 A 
ATOM     22  C   UNL     1       0.721   8.941  22.340  0.00  0.00    +0.000 A 
ENDBRANCH  16  17
ENDBRANCH  15  16
ENDBRANCH   2  15
BRANCH   5  23
ATOM     23  S   UNL     1       5.393   5.711  15.958  0.00  0.00    +0.000 S 
BRANCH  23  24
ATOM     24  C   UNL     1       6.955   5.736  16.909  0.00  0.00    +0.000 C 
ATOM     25  C   UNL     1       7.222   7.179  17.357  0.00  0.00    +0.000 C 
ATOM     26  C   UNL     1       8.176   7.063  18.536  0.00  0.00    +0.000 C 
ATOM     27  C   UNL     1       7.873   5.719  19.183  0.00  0.00    +0.000 C 
ATOM     28  C   UNL     1       6.960   4.952  18.223  0.00  0.00    +0.000 C 
ENDBRANCH  23  24
ENDBRANCH   5  23
TORSDOF 7
ENDMDL
MODEL 6
REMARK VINA RESULT:      -7.8      1.156      1.782
REMARK  Name = 
REMARK  7 active torsions:
REMARK  status: ('A' for Active; 'I' for Inactive)
REMARK    1  A    between atoms: N_2  and  C_4
REMARK    2  A    between atoms: C_8  and  N_9
REMARK    3  A    between atoms: C_10  and  C_11
REMARK    4  A    between atoms: C_11  and  O_12
REMARK    5  A    between atoms: O_12  and  C_13
REMARK    6  A    between atoms: C_21  and  S_22
REMARK    7  A    between atoms: S_22  and  C_23
REMARK                            x       y       z     vdW  Elec       q    Type
REMARK                         _______ _______ _______ _____ _____    ______ ____
ROOT
ATOM      1  N   UNL     1       3.636   5.942  18.140  0.00  0.00    +0.000 N 
ATOM      2  C   UNL     1       3.348   7.302  17.935  0.00  0.00    +0.000 A 
ATOM      3  N   UNL     1       4.445   7.926  17.542  0.00  0.00    +0.000 NA
ATOM      4  N   UNL     1       5.462   7.026  17.465  0.00  0.00    +0.000 NA
ATOM      5  C   UNL     1       4.995   5.848  17.802  0.00  0.00    +0.000 A 
ENDROOT
BRANCH   1  10
ATOM      6  C   UNL     1       2.028   3.313  20.300  0.00  0.00    +0.000 A 
ATOM      7  C   UNL     1       1.030   2.815  19.458  0.00  0.00    +0.000 A 
ATOM      8  C   UNL     1       0.878   3.372  18.193  0.00  0.00    +0.000 A 
ATOM      9  C   UNL     1       1.716   4.415  17.770  0.00  0.00    +0.000 A 
ATOM     10  C   UNL     1       2.734   4.915  18.597  0.00  0.00    +0.000 A 
ATOM     11  C   UNL     1       2.870   4.361  19.879  0.00  0.00    +0.000 A 
BRANCH   6  13
ATOM     12  O   UNL     1       1.245   2.627  22.374  0.00  0.00    +0.000 OA
ATOM     13  N   UNL     1       2.227   2.705  21.622  0.00  0.00    +0.000 N 
ATOM     14  O   UNL     1       3.368   2.306  21.903  0.00  0.00    +0.000 OA
ENDBRANCH   6  13
ENDBRANCH   1  10
BRANCH   2  15
ATOM     15  C   UNL     1       2.011   7.971  17.968  0.00  0.00    +0.000 C 
BRANCH  15  16
ATOM     16  O   UNL     1       1.775   8.371  19.319  0.00  0.00    +0.000 OA
BRANCH  16  17
ATOM     17  C   UNL     1       0.852   9.366  19.514  0.00  0.00    +0.000 A 
ATOM     18  C   UNL     1       0.307   9.905  18.347  0.00  0.00    +0.000 A 
ATOM     19  C   UNL     1      -0.658  10.912  18.407  0.00  0.00    +0.000 A 
ATOM     20  C   UNL     1      -1.101  11.374  19.644  0.00  0.00    +0.000 A 
ATOM     21  C   UNL     1      -0.577  10.826  20.813  0.00  0.00    +0.000 A 
ATOM     22  C   UNL     1       0.400   9.823  20.751  0.00  0.00    +0.000 A 
ENDBRANCH  16  17
ENDBRANCH  15  16
ENDBRANCH   2  15
BRANCH   5  23
ATOM     23  S   UNL     1       5.989   4.428  17.921  0.00  0.00    +0.000 S 
BRANCH  23  24
ATOM     24  C   UNL     1       6.372   3.947  16.199  0.00  0.00    +0.000 C 
ATOM     25  C   UNL     1       5.103   4.130  15.355  0.00  0.00    +0.000 C 
ATOM     26  C   UNL     1       5.589   4.240  13.918  0.00  0.00    +0.000 C 
ATOM     27  C   UNL     1       6.985   4.840  13.998  0.00  0.00    +0.000 C 
ATOM     28  C   UNL     1       7.406   4.807  15.470  0.00  0.00    +0.000 C 
ENDBRANCH  23  24
ENDBRANCH   5  23
TORSDOF 7
ENDMDL
MODEL 7
REMARK VINA RESULT:      -7.8      2.159      2.893
REMARK  Name = 
REMARK  7 active torsions:
REMARK  status: ('A' for Active; 'I' for Inactive)
REMARK    1  A    between atoms: N_2  and  C_4
REMARK    2  A    between atoms: C_8  and  N_9
REMARK    3  A    between atoms: C_10  and  C_11
REMARK    4  A    between atoms: C_11  and  O_12
REMARK    5  A    between atoms: O_12  and  C_13
REMARK    6  A    between atoms: C_21  and  S_22
REMARK    7  A    between atoms: S_22  and  C_23
REMARK                            x       y       z     vdW  Elec       q    Type
REMARK                         _______ _______ _______ _____ _____    ______ ____
ROOT
ATOM      1  N   UNL     1       3.054   6.249  18.100  0.00  0.00    +0.000 N 
ATOM      2  C   UNL     1       2.580   7.484  18.573  0.00  0.00    +0.000 A 
ATOM      3  N   UNL     1       3.215   8.463  17.952  0.00  0.00    +0.000 NA
ATOM      4  N   UNL     1       4.095   7.927  17.065  0.00  0.00    +0.000 NA
ATOM      5  C   UNL     1       4.001   6.620  17.132  0.00  0.00    +0.000 A 
ENDROOT
BRANCH   1  10
ATOM      6  C   UNL     1       2.997   2.958  19.923  0.00  0.00    +0.000 A 
ATOM      7  C   UNL     1       1.934   2.299  19.300  0.00  0.00    +0.000 A 
ATOM      8  C   UNL     1       1.226   2.959  18.302  0.00  0.00    +0.000 A 
ATOM      9  C   UNL     1       1.577   4.264  17.925  0.00  0.00    +0.000 A 
ATOM     10  C   UNL     1       2.653   4.934  18.529  0.00  0.00    +0.000 A 
ATOM     11  C   UNL     1       3.351   4.270  19.549  0.00  0.00    +0.000 A 
BRANCH   6  13
ATOM     12  O   UNL     1       4.915   1.867  20.642  0.00  0.00    +0.000 OA
ATOM     13  N   UNL     1       3.780   2.257  20.949  0.00  0.00    +0.000 N 
ATOM     14  O   UNL     1       3.254   2.101  22.062  0.00  0.00    +0.000 OA
ENDBRANCH   6  13
ENDBRANCH   1  10
BRANCH   2  15
ATOM     15  C   UNL     1       1.432   7.732  19.498  0.00  0.00    +0.000 C 
BRANCH  15  16
ATOM     16  O   UNL     1       1.225   9.145  19.544  0.00  0.00    +0.000 OA
BRANCH  16  17
ATOM     17  C   UNL     1       0.529   9.631  20.620  0.00  0.00    +0.000 A 
ATOM     18  C   UNL     1       0.673   8.896  21.800  0.00  0.00    +0.000 A 
ATOM     19  C   UNL     1       0.032   9.295  22.974  0.00  0.00    +0.000 A 
ATOM     20  C   UNL     1      -0.745  10.451  22.980  0.00  0.00    +0.000 A 
ATOM     21  C   UNL     1      -0.876  11.200  21.813  0.00  0.00    +0.000 A 
ATOM     22  C   UNL     1      -0.241  10.793  20.632  0.00  0.00    +0.000 A 
ENDBRANCH  16  17
ENDBRANCH  15  16
ENDBRANCH   2  15
BRANCH   5  23
ATOM     23  S   UNL     1       5.017   5.544  16.222  0.00  0.00    +0.000 S 
BRANCH  23  24
ATOM     24  C   UNL     1       6.647   5.584  17.051  0.00  0.00    +0.000 C 
ATOM     25  C   UNL     1       7.015   7.050  17.315  0.00  0.00    +0.000 C 
ATOM     26  C   UNL     1       8.050   7.010  18.430  0.00  0.00    +0.000 C 
ATOM     27  C   UNL     1       7.734   5.763  19.243  0.00  0.00    +0.000 C 
ATOM     28  C   UNL     1       6.715   4.949  18.441  0.00  0.00    +0.000 C 
ENDBRANCH  23  24
ENDBRANCH   5  23
TORSDOF 7
ENDMDL
MODEL 8
REMARK VINA RESULT:      -7.7      1.320      1.673
REMARK  Name = 
REMARK  7 active torsions:
REMARK  status: ('A' for Active; 'I' for Inactive)
REMARK    1  A    between atoms: N_2  and  C_4
REMARK    2  A    between atoms: C_8  and  N_9
REMARK    3  A    between atoms: C_10  and  C_11
REMARK    4  A    between atoms: C_11  and  O_12
REMARK    5  A    between atoms: O_12  and  C_13
REMARK    6  A    between atoms: C_21  and  S_22
REMARK    7  A    between atoms: S_22  and  C_23
REMARK                            x       y       z     vdW  Elec       q    Type
REMARK                         _______ _______ _______ _____ _____    ______ ____
ROOT
ATOM      1  N   UNL     1       3.608   5.941  18.091  0.00  0.00    +0.000 N 
ATOM      2  C   UNL     1       3.301   7.292  17.858  0.00  0.00    +0.000 A 
ATOM      3  N   UNL     1       4.391   7.927  17.466  0.00  0.00    +0.000 NA
ATOM      4  N   UNL     1       5.424   7.043  17.415  0.00  0.00    +0.000 NA
ATOM      5  C   UNL     1       4.972   5.863  17.768  0.00  0.00    +0.000 A 
ENDROOT
BRANCH   1  10
ATOM      6  C   UNL     1       2.032   3.312  20.273  0.00  0.00    +0.000 A 
ATOM      7  C   UNL     1       1.039   2.795  19.435  0.00  0.00    +0.000 A 
ATOM      8  C   UNL     1       0.880   3.340  18.166  0.00  0.00    +0.000 A 
ATOM      9  C   UNL     1       1.706   4.388  17.734  0.00  0.00    +0.000 A 
ATOM     10  C   UNL     1       2.719   4.907  18.557  0.00  0.00    +0.000 A 
ATOM     11  C   UNL     1       2.861   4.366  19.843  0.00  0.00    +0.000 A 
BRANCH   6  13
ATOM     12  O   UNL     1       1.271   2.689  22.376  0.00  0.00    +0.000 OA
ATOM     13  N   UNL     1       2.238   2.718  21.601  0.00  0.00    +0.000 N 
ATOM     14  O   UNL     1       3.368   2.280  21.863  0.00  0.00    +0.000 OA
ENDBRANCH   6  13
ENDBRANCH   1  10
BRANCH   2  15
ATOM     15  C   UNL     1       1.953   7.940  17.866  0.00  0.00    +0.000 C 
BRANCH  15  16
ATOM     16  O   UNL     1       2.154   9.333  17.621  0.00  0.00    +0.000 OA
BRANCH  16  17
ATOM     17  C   UNL     1       1.521  10.205  18.468  0.00  0.00    +0.000 A 
ATOM     18  C   UNL     1       0.774   9.605  19.486  0.00  0.00    +0.000 A 
ATOM     19  C   UNL     1       0.096  10.381  20.427  0.00  0.00    +0.000 A 
ATOM     20  C   UNL     1       0.177  11.771  20.368  0.00  0.00    +0.000 A 
ATOM     21  C   UNL     1       0.938  12.375  19.369  0.00  0.00    +0.000 A 
ATOM     22  C   UNL     1       1.609  11.595  18.417  0.00  0.00    +0.000 A 
ENDBRANCH  16  17
ENDBRANCH  15  16
ENDBRANCH   2  15
BRANCH   5  23
ATOM     23  S   UNL     1       5.988   4.462  17.923  0.00  0.00    +0.000 S 
BRANCH  23  24
ATOM     24  C   UNL     1       6.393   3.955  16.213  0.00  0.00    +0.000 C 
ATOM     25  C   UNL     1       5.120   4.064  15.364  0.00  0.00    +0.000 C 
ATOM     26  C   UNL     1       5.602   4.159  13.926  0.00  0.00    +0.000 C 
ATOM     27  C   UNL     1       6.973   4.817  13.991  0.00  0.00    +0.000 C 
ATOM     28  C   UNL     1       7.393   4.838  15.463  0.00  0.00    +0.000 C 
ENDBRANCH  23  24
ENDBRANCH   5  23
TORSDOF 7
ENDMDL
MODEL 9
REMARK VINA RESULT:      -7.7      2.190      2.930
REMARK  Name = 
REMARK  7 active torsions:
REMARK  status: ('A' for Active; 'I' for Inactive)
REMARK    1  A    between atoms: N_2  and  C_4
REMARK    2  A    between atoms: C_8  and  N_9
REMARK    3  A    between atoms: C_10  and  C_11
REMARK    4  A    between atoms: C_11  and  O_12
REMARK    5  A    between atoms: O_12  and  C_13
REMARK    6  A    between atoms: C_21  and  S_22
REMARK    7  A    between atoms: S_22  and  C_23
REMARK                            x       y       z     vdW  Elec       q    Type
REMARK                         _______ _______ _______ _____ _____    ______ ____
ROOT
ATOM      1  N   UNL     1       3.059   6.239  18.097  0.00  0.00    +0.000 N 
ATOM      2  C   UNL     1       2.584   7.475  18.569  0.00  0.00    +0.000 A 
ATOM      3  N   UNL     1       3.220   8.453  17.949  0.00  0.00    +0.000 NA
ATOM      4  N   UNL     1       4.102   7.916  17.064  0.00  0.00    +0.000 NA
ATOM      5  C   UNL     1       4.007   6.610  17.131  0.00  0.00    +0.000 A 
ENDROOT
BRANCH   1  10
ATOM      6  C   UNL     1       2.984   2.957  19.935  0.00  0.00    +0.000 A 
ATOM      7  C   UNL     1       1.936   2.289  19.296  0.00  0.00    +0.000 A 
ATOM      8  C   UNL     1       1.244   2.941  18.282  0.00  0.00    +0.000 A 
ATOM      9  C   UNL     1       1.595   4.246  17.905  0.00  0.00    +0.000 A 
ATOM     10  C   UNL     1       2.656   4.924  18.525  0.00  0.00    +0.000 A 
ATOM     11  C   UNL     1       3.338   4.269  19.561  0.00  0.00    +0.000 A 
BRANCH   6  13
ATOM     12  O   UNL     1       3.195   2.072  22.070  0.00  0.00    +0.000 OA
ATOM     13  N   UNL     1       3.751   2.265  20.980  0.00  0.00    +0.000 N 
ATOM     14  O   UNL     1       4.909   1.916  20.704  0.00  0.00    +0.000 OA
ENDBRANCH   6  13
ENDBRANCH   1  10
BRANCH   2  15
ATOM     15  C   UNL     1       1.434   7.722  19.492  0.00  0.00    +0.000 C 
BRANCH  15  16
ATOM     16  O   UNL     1       1.301   9.138  19.629  0.00  0.00    +0.000 OA
BRANCH  16  17
ATOM     17  C   UNL     1       0.641   9.591  20.742  0.00  0.00    +0.000 A 
ATOM     18  C   UNL     1       0.316  10.949  20.727  0.00  0.00    +0.000 A 
ATOM     19  C   UNL     1      -0.373  11.531  21.792  0.00  0.00    +0.000 A 
ATOM     20  C   UNL     1      -0.763  10.748  22.876  0.00  0.00    +0.000 A 
ATOM     21  C   UNL     1      -0.461   9.388  22.887  0.00  0.00    +0.000 A 
ATOM     22  C   UNL     1       0.241   8.807  21.823  0.00  0.00    +0.000 A 
ENDBRANCH  16  17
ENDBRANCH  15  16
ENDBRANCH   2  15
BRANCH   5  23
ATOM     23  S   UNL     1       5.026   5.534  16.223  0.00  0.00    +0.000 S 
BRANCH  23  24
ATOM     24  C   UNL     1       6.652   5.569  17.060  0.00  0.00    +0.000 C 
ATOM     25  C   UNL     1       7.043   7.036  17.287  0.00  0.00    +0.000 C 
ATOM     26  C   UNL     1       8.072   7.008  18.407  0.00  0.00    +0.000 C 
ATOM     27  C   UNL     1       7.732   5.788  19.251  0.00  0.00    +0.000 C 
ATOM     28  C   UNL     1       6.703   4.970  18.466  0.00  0.00    +0.000 C 
ENDBRANCH  23  24
ENDBRANCH   5  23
TORSDOF 7
ENDMDL
