MODEL 1
REMARK VINA RESULT:      -8.3      0.000      0.000
REMARK  Name = 
REMARK  11 active torsions:
REMARK  status: ('A' for Active; 'I' for Inactive)
REMARK    1  A    between atoms: C_1  and  O_2
REMARK    2  A    between atoms: O_2  and  C_3
REMARK    3  A    between atoms: C_3  and  C_5
REMARK    4  A    between atoms: C_5  and  C_6
REMARK    5  A    between atoms: C_5  and  C_16
REMARK    6  A    between atoms: C_6  and  C_7
REMARK    7  A    between atoms: C_11  and  C_12
REMARK    8  A    between atoms: C_16  and  C_17
REMARK    9  A    between atoms: C_16  and  N_25
REMARK   10  A    between atoms: C_18  and  C_19
REMARK   11  A    between atoms: C_26  and  C_28
REMARK                            x       y       z     vdW  Elec       q    Type
REMARK                         _______ _______ _______ _____ _____    ______ ____
ROOT
ATOM      1  C   UNL     1       5.332   6.967  17.195  0.00  0.00    +0.000 C 
ENDROOT
BRANCH   1   2
ATOM      2  N   UNL     1       4.457   6.033  17.899  0.00  0.00    +0.000 N 
ATOM      3  C   UNL     1       3.163   6.366  18.256  0.00  0.00    +0.000 C 
ATOM      4  O   UNL     1       2.680   7.485  18.143  0.00  0.00    +0.000 OA
ATOM      5  H   UNL     1       4.670   5.051  17.806  0.00  0.00    +0.000 HD
BRANCH   3   6
ATOM      6  C   UNL     1       2.339   5.243  18.785  0.00  0.00    +0.000 A 
ATOM      7  C   UNL     1       1.970   5.188  20.136  0.00  0.00    +0.000 A 
ATOM      8  C   UNL     1       1.218   4.113  20.612  0.00  0.00    +0.000 A 
ATOM      9  C   UNL     1       0.823   3.099  19.741  0.00  0.00    +0.000 A 
ATOM     10  C   UNL     1       1.169   3.158  18.392  0.00  0.00    +0.000 A 
ATOM     11  C   UNL     1       1.921   4.234  17.910  0.00  0.00    +0.000 A 
ENDBRANCH   3   6
ENDBRANCH   1   2
BRANCH   1  12
ATOM     12  C   UNL     1       5.737   6.330  15.884  0.00  0.00    +0.000 C 
ATOM     13  C   UNL     1       5.447   5.096  15.441  0.00  0.00    +0.000 C 
BRANCH  13  14
ATOM     14  C   UNL     1       5.933   4.593  14.151  0.00  0.00    +0.000 A 
ATOM     15  C   UNL     1       5.197   3.667  13.400  0.00  0.00    +0.000 A 
ATOM     16  C   UNL     1       5.682   3.200  12.178  0.00  0.00    +0.000 A 
ATOM     17  C   UNL     1       6.898   3.670  11.688  0.00  0.00    +0.000 A 
ATOM     18  C   UNL     1       7.624   4.614  12.413  0.00  0.00    +0.000 A 
ATOM     19  C   UNL     1       7.140   5.080  13.637  0.00  0.00    +0.000 A 
ENDBRANCH  13  14
ENDBRANCH   1  12
BRANCH   1  20
ATOM     20  C   UNL     1       6.571   7.335  18.047  0.00  0.00    +0.000 C 
BRANCH  20  21
ATOM     21  C   UNL     1       7.104   6.121  18.802  0.00  0.00    +0.000 C 
ATOM     22  O   UNL     1       6.664   5.679  19.853  0.00  0.00    +0.000 OA
BRANCH  21  24
ATOM     23  C   UNL     1       7.915   4.224  17.627  0.00  0.00    +0.000 C 
ATOM     24  O   UNL     1       8.134   5.556  18.103  0.00  0.00    +0.000 OA
ENDBRANCH  21  24
ENDBRANCH  20  21
BRANCH  20  25
ATOM     25  C   UNL     1       7.714   7.979  17.225  0.00  0.00    +0.000 C 
BRANCH  25  26
ATOM     26  C   UNL     1       8.379   9.133  17.937  0.00  0.00    +0.000 A 
ATOM     27  C   UNL     1       8.884   8.979  19.232  0.00  0.00    +0.000 A 
ATOM     28  C   UNL     1       9.308  10.089  19.961  0.00  0.00    +0.000 A 
ATOM     29  C   UNL     1       9.226  11.369  19.407  0.00  0.00    +0.000 A 
ATOM     30  C   UNL     1       8.760  11.532  18.101  0.00  0.00    +0.000 A 
ATOM     31  C   UNL     1       8.372  10.411  17.359  0.00  0.00    +0.000 A 
BRANCH  30  32
ATOM     32  C   UNL     1       8.576  12.885  17.509  0.00  0.00    +0.000 C 
ATOM     33  N   UNL     1       7.412  13.406  17.279  0.00  0.00    +0.000 NA
ATOM     34  N   UNL     1       9.661  13.629  17.149  0.00  0.00    +0.000 N 
ATOM     35  H   UNL     1       6.663  12.787  17.596  0.00  0.00    +0.000 HD
ATOM     36  H   UNL     1      10.387  13.099  16.677  0.00  0.00    +0.000 HD
ATOM     37  H   UNL     1       9.363  14.422  16.586  0.00  0.00    +0.000 HD
ENDBRANCH  30  32
ENDBRANCH  25  26
ENDBRANCH  20  25
ENDBRANCH   1  20
TORSDOF 10
ENDMDL
MODEL 2
REMARK VINA RESULT:      -8.3      0.065      1.012
REMARK  Name = 
REMARK  11 active torsions:
REMARK  status: ('A' for Active; 'I' for Inactive)
REMARK    1  A    between atoms: C_1  and  O_2
REMARK    2  A    between atoms: O_2  and  C_3
REMARK    3  A    between atoms: C_3  and  C_5
REMARK    4  A    between atoms: C_5  and  C_6
REMARK    5  A    between atoms: C_5  and  C_16
REMARK    6  A    between atoms: C_6  and  C_7
REMARK    7  A    between atoms: C_11  and  C_12
REMARK    8  A    between atoms: C_16  and  C_17
REMARK    9  A    between atoms: C_16  and  N_25
REMARK   10  A    between atoms: C_18  and  C_19
REMARK   11  A    between atoms: C_26  and  C_28
REMARK                            x       y       z     vdW  Elec       q    Type
REMARK                         _______ _______ _______ _____ _____    ______ ____
ROOT
ATOM      1  C   UNL     1       5.333   6.944  17.204  0.00  0.00    +0.000 C 
ENDROOT
BRANCH   1   2
ATOM      2  N   UNL     1       4.460   6.003  17.901  0.00  0.00    +0.000 N 
ATOM      3  C   UNL     1       3.144   6.307  18.202  0.00  0.00    +0.000 C 
ATOM      4  O   UNL     1       2.634   7.408  18.041  0.00  0.00    +0.000 OA
ATOM      5  H   UNL     1       4.704   5.025  17.842  0.00  0.00    +0.000 HD
BRANCH   3   6
ATOM      6  C   UNL     1       2.334   5.174  18.731  0.00  0.00    +0.000 A 
ATOM      7  C   UNL     1       1.961   4.103  17.907  0.00  0.00    +0.000 A 
ATOM      8  C   UNL     1       1.182   3.065  18.420  0.00  0.00    +0.000 A 
ATOM      9  C   UNL     1       0.784   3.088  19.756  0.00  0.00    +0.000 A 
ATOM     10  C   UNL     1       1.170   4.139  20.586  0.00  0.00    +0.000 A 
ATOM     11  C   UNL     1       1.952   5.180  20.077  0.00  0.00    +0.000 A 
ENDBRANCH   3   6
ENDBRANCH   1   2
BRANCH   1  12
ATOM     12  C   UNL     1       5.735   6.319  15.886  0.00  0.00    +0.000 C 
ATOM     13  C   UNL     1       5.494   5.071  15.456  0.00  0.00    +0.000 C 
BRANCH  13  14
ATOM     14  C   UNL     1       5.971   4.585  14.157  0.00  0.00    +0.000 A 
ATOM     15  C   UNL     1       5.224   3.677  13.394  0.00  0.00    +0.000 A 
ATOM     16  C   UNL     1       5.701   3.226  12.162  0.00  0.00    +0.000 A 
ATOM     17  C   UNL     1       6.919   3.693  11.675  0.00  0.00    +0.000 A 
ATOM     18  C   UNL     1       7.656   4.618  12.413  0.00  0.00    +0.000 A 
ATOM     19  C   UNL     1       7.180   5.069  13.646  0.00  0.00    +0.000 A 
ENDBRANCH  13  14
ENDBRANCH   1  12
BRANCH   1  20
ATOM     20  C   UNL     1       6.574   7.304  18.058  0.00  0.00    +0.000 C 
BRANCH  20  21
ATOM     21  C   UNL     1       7.102   6.085  18.808  0.00  0.00    +0.000 C 
ATOM     22  O   UNL     1       6.630   5.613  19.832  0.00  0.00    +0.000 OA
BRANCH  21  24
ATOM     23  C   UNL     1       7.983   4.245  17.594  0.00  0.00    +0.000 C 
ATOM     24  O   UNL     1       8.170   5.555  18.141  0.00  0.00    +0.000 OA
ENDBRANCH  21  24
ENDBRANCH  20  21
BRANCH  20  25
ATOM     25  C   UNL     1       7.720   7.945  17.237  0.00  0.00    +0.000 C 
BRANCH  25  26
ATOM     26  C   UNL     1       8.390   9.095  17.951  0.00  0.00    +0.000 A 
ATOM     27  C   UNL     1       8.859   8.947  19.261  0.00  0.00    +0.000 A 
ATOM     28  C   UNL     1       9.286  10.058  19.987  0.00  0.00    +0.000 A 
ATOM     29  C   UNL     1       9.244  11.331  19.416  0.00  0.00    +0.000 A 
ATOM     30  C   UNL     1       8.815  11.487  18.097  0.00  0.00    +0.000 A 
ATOM     31  C   UNL     1       8.424  10.365  17.359  0.00  0.00    +0.000 A 
BRANCH  30  32
ATOM     32  C   UNL     1       8.673  12.836  17.484  0.00  0.00    +0.000 C 
ATOM     33  N   UNL     1       9.684  13.575  17.153  0.00  0.00    +0.000 NA
ATOM     34  N   UNL     1       7.433  13.366  17.273  0.00  0.00    +0.000 N 
ATOM     35  H   UNL     1      10.567  13.091  17.329  0.00  0.00    +0.000 HD
ATOM     36  H   UNL     1       6.788  13.225  18.044  0.00  0.00    +0.000 HD
ATOM     37  H   UNL     1       7.516  14.353  17.042  0.00  0.00    +0.000 HD
ENDBRANCH  30  32
ENDBRANCH  25  26
ENDBRANCH  20  25
ENDBRANCH   1  20
TORSDOF 10
ENDMDL
MODEL 3
REMARK VINA RESULT:      -8.2      0.076      1.192
REMARK  Name = 
REMARK  11 active torsions:
REMARK  status: ('A' for Active; 'I' for Inactive)
REMARK    1  A    between atoms: C_1  and  O_2
REMARK    2  A    between atoms: O_2  and  C_3
REMARK    3  A    between atoms: C_3  and  C_5
REMARK    4  A    between atoms: C_5  and  C_6
REMARK    5  A    between atoms: C_5  and  C_16
REMARK    6  A    between atoms: C_6  and  C_7
REMARK    7  A    between atoms: C_11  and  C_12
REMARK    8  A    between atoms: C_16  and  C_17
REMARK    9  A    between atoms: C_16  and  N_25
REMARK   10  A    between atoms: C_18  and  C_19
REMARK   11  A    between atoms: C_26  and  C_28
REMARK                            x       y       z     vdW  Elec       q    Type
REMARK                         _______ _______ _______ _____ _____    ______ ____
ROOT
ATOM      1  C   UNL     1       5.365   7.006  17.168  0.00  0.00    +0.000 C 
ENDROOT
BRANCH   1   2
ATOM      2  N   UNL     1       4.486   6.069  17.864  0.00  0.00    +0.000 N 
ATOM      3  C   UNL     1       3.181   6.390  18.190  0.00  0.00    +0.000 C 
ATOM      4  O   UNL     1       2.687   7.502  18.053  0.00  0.00    +0.000 OA
ATOM      5  H   UNL     1       4.713   5.089  17.787  0.00  0.00    +0.000 HD
BRANCH   3   6
ATOM      6  C   UNL     1       2.359   5.263  18.713  0.00  0.00    +0.000 A 
ATOM      7  C   UNL     1       1.938   4.222  17.874  0.00  0.00    +0.000 A 
ATOM      8  C   UNL     1       1.149   3.190  18.383  0.00  0.00    +0.000 A 
ATOM      9  C   UNL     1       0.790   3.187  19.730  0.00  0.00    +0.000 A 
ATOM     10  C   UNL     1       1.224   4.207  20.575  0.00  0.00    +0.000 A 
ATOM     11  C   UNL     1       2.016   5.243  20.070  0.00  0.00    +0.000 A 
ENDBRANCH   3   6
ENDBRANCH   1   2
BRANCH   1  12
ATOM     12  C   UNL     1       5.772   6.377  15.855  0.00  0.00    +0.000 C 
ATOM     13  C   UNL     1       5.447   5.162  15.385  0.00  0.00    +0.000 C 
BRANCH  13  14
ATOM     14  C   UNL     1       5.940   4.664  14.096  0.00  0.00    +0.000 A 
ATOM     15  C   UNL     1       7.151   5.110  13.551  0.00  0.00    +0.000 A 
ATOM     16  C   UNL     1       7.598   4.624  12.321  0.00  0.00    +0.000 A 
ATOM     17  C   UNL     1       6.845   3.674  11.635  0.00  0.00    +0.000 A 
ATOM     18  C   UNL     1       5.653   3.202  12.183  0.00  0.00    +0.000 A 
ATOM     19  C   UNL     1       5.205   3.689  13.412  0.00  0.00    +0.000 A 
ENDBRANCH  13  14
ENDBRANCH   1  12
BRANCH   1  20
ATOM     20  C   UNL     1       6.603   7.366  18.027  0.00  0.00    +0.000 C 
BRANCH  20  21
ATOM     21  C   UNL     1       7.133   6.145  18.772  0.00  0.00    +0.000 C 
ATOM     22  O   UNL     1       6.708   5.711  19.833  0.00  0.00    +0.000 OA
BRANCH  21  24
ATOM     23  C   UNL     1       7.926   4.205  17.656  0.00  0.00    +0.000 C 
ATOM     24  O   UNL     1       8.141   5.564  18.054  0.00  0.00    +0.000 OA
ENDBRANCH  21  24
ENDBRANCH  20  21
BRANCH  20  25
ATOM     25  C   UNL     1       7.748   8.015  17.212  0.00  0.00    +0.000 C 
BRANCH  25  26
ATOM     26  C   UNL     1       8.398   9.178  17.925  0.00  0.00    +0.000 A 
ATOM     27  C   UNL     1       8.924   9.023  19.212  0.00  0.00    +0.000 A 
ATOM     28  C   UNL     1       9.334  10.135  19.945  0.00  0.00    +0.000 A 
ATOM     29  C   UNL     1       9.217  11.418  19.405  0.00  0.00    +0.000 A 
ATOM     30  C   UNL     1       8.729  11.583  18.107  0.00  0.00    +0.000 A 
ATOM     31  C   UNL     1       8.355  10.460  17.360  0.00  0.00    +0.000 A 
BRANCH  30  32
ATOM     32  C   UNL     1       8.507  12.936  17.531  0.00  0.00    +0.000 C 
ATOM     33  N   UNL     1       7.334  13.393  17.224  0.00  0.00    +0.000 NA
ATOM     34  N   UNL     1       9.568  13.752  17.268  0.00  0.00    +0.000 N 
ATOM     35  H   UNL     1       6.602  12.724  17.471  0.00  0.00    +0.000 HD
ATOM     36  H   UNL     1      10.358  13.278  16.842  0.00  0.00    +0.000 HD
ATOM     37  H   UNL     1       9.265  14.540  16.701  0.00  0.00    +0.000 HD
ENDBRANCH  30  32
ENDBRANCH  25  26
ENDBRANCH  20  25
ENDBRANCH   1  20
TORSDOF 10
ENDMDL
MODEL 4
REMARK VINA RESULT:      -7.7      4.644      8.067
REMARK  Name = 
REMARK  11 active torsions:
REMARK  status: ('A' for Active; 'I' for Inactive)
REMARK    1  A    between atoms: C_1  and  O_2
REMARK    2  A    between atoms: O_2  and  C_3
REMARK    3  A    between atoms: C_3  and  C_5
REMARK    4  A    between atoms: C_5  and  C_6
REMARK    5  A    between atoms: C_5  and  C_16
REMARK    6  A    between atoms: C_6  and  C_7
REMARK    7  A    between atoms: C_11  and  C_12
REMARK    8  A    between atoms: C_16  and  C_17
REMARK    9  A    between atoms: C_16  and  N_25
REMARK   10  A    between atoms: C_18  and  C_19
REMARK   11  A    between atoms: C_26  and  C_28
REMARK                            x       y       z     vdW  Elec       q    Type
REMARK                         _______ _______ _______ _____ _____    ______ ____
ROOT
ATOM      1  C   UNL     1       1.785   8.612  19.466  0.00  0.00    +0.000 C 
ENDROOT
BRANCH   1   2
ATOM      2  N   UNL     1       0.480   8.965  18.911  0.00  0.00    +0.000 N 
ATOM      3  C   UNL     1      -0.011  10.257  18.956  0.00  0.00    +0.000 C 
ATOM      4  O   UNL     1       0.519  11.179  19.563  0.00  0.00    +0.000 OA
ATOM      5  H   UNL     1       0.109   8.357  18.196  0.00  0.00    +0.000 HD
BRANCH   3   6
ATOM      6  C   UNL     1      -1.257  10.493  18.174  0.00  0.00    +0.000 A 
ATOM      7  C   UNL     1      -2.185  11.467  18.565  0.00  0.00    +0.000 A 
ATOM      8  C   UNL     1      -3.357  11.652  17.829  0.00  0.00    +0.000 A 
ATOM      9  C   UNL     1      -3.598  10.875  16.697  0.00  0.00    +0.000 A 
ATOM     10  C   UNL     1      -2.669   9.920  16.291  0.00  0.00    +0.000 A 
ATOM     11  C   UNL     1      -1.493   9.731  17.024  0.00  0.00    +0.000 A 
ENDBRANCH   3   6
ENDBRANCH   1   2
BRANCH   1  12
ATOM     12  C   UNL     1       2.546   7.839  18.411  0.00  0.00    +0.000 C 
ATOM     13  C   UNL     1       3.342   6.772  18.583  0.00  0.00    +0.000 C 
BRANCH  13  14
ATOM     14  C   UNL     1       4.047   6.134  17.466  0.00  0.00    +0.000 A 
ATOM     15  C   UNL     1       4.671   6.889  16.464  0.00  0.00    +0.000 A 
ATOM     16  C   UNL     1       5.333   6.259  15.409  0.00  0.00    +0.000 A 
ATOM     17  C   UNL     1       5.392   4.869  15.358  0.00  0.00    +0.000 A 
ATOM     18  C   UNL     1       4.800   4.108  16.365  0.00  0.00    +0.000 A 
ATOM     19  C   UNL     1       4.136   4.738  17.420  0.00  0.00    +0.000 A 
ENDBRANCH  13  14
ENDBRANCH   1  12
BRANCH   1  20
ATOM     20  C   UNL     1       1.641   7.791  20.770  0.00  0.00    +0.000 C 
BRANCH  20  21
ATOM     21  C   UNL     1       1.251   8.682  21.946  0.00  0.00    +0.000 C 
ATOM     22  O   UNL     1       2.020   9.323  22.647  0.00  0.00    +0.000 OA
BRANCH  21  24
ATOM     23  C   UNL     1      -0.657   9.837  22.760  0.00  0.00    +0.000 C 
ATOM     24  O   UNL     1      -0.109   8.700  22.082  0.00  0.00    +0.000 OA
ENDBRANCH  21  24
ENDBRANCH  20  21
BRANCH  20  25
ATOM     25  C   UNL     1       0.637   6.618  20.651  0.00  0.00    +0.000 C 
BRANCH  25  26
ATOM     26  C   UNL     1       1.300   5.262  20.701  0.00  0.00    +0.000 A 
ATOM     27  C   UNL     1       2.357   5.015  21.584  0.00  0.00    +0.000 A 
ATOM     28  C   UNL     1       3.098   3.838  21.485  0.00  0.00    +0.000 A 
ATOM     29  C   UNL     1       2.797   2.897  20.499  0.00  0.00    +0.000 A 
ATOM     30  C   UNL     1       1.721   3.113  19.636  0.00  0.00    +0.000 A 
ATOM     31  C   UNL     1       0.955   4.277  19.764  0.00  0.00    +0.000 A 
BRANCH  30  32
ATOM     32  C   UNL     1       1.424   2.177  18.518  0.00  0.00    +0.000 C 
ATOM     33  N   UNL     1       0.230   1.760  18.241  0.00  0.00    +0.000 NA
ATOM     34  N   UNL     1       2.438   1.689  17.746  0.00  0.00    +0.000 N 
ATOM     35  H   UNL     1      -0.463   2.191  18.856  0.00  0.00    +0.000 HD
ATOM     36  H   UNL     1       3.260   1.410  18.273  0.00  0.00    +0.000 HD
ATOM     37  H   UNL     1       2.094   0.923  17.172  0.00  0.00    +0.000 HD
ENDBRANCH  30  32
ENDBRANCH  25  26
ENDBRANCH  20  25
ENDBRANCH   1  20
TORSDOF 10
ENDMDL
MODEL 5
REMARK VINA RESULT:      -7.7      7.050     10.735
REMARK  Name = 
REMARK  11 active torsions:
REMARK  status: ('A' for Active; 'I' for Inactive)
REMARK    1  A    between atoms: C_1  and  O_2
REMARK    2  A    between atoms: O_2  and  C_3
REMARK    3  A    between atoms: C_3  and  C_5
REMARK    4  A    between atoms: C_5  and  C_6
REMARK    5  A    between atoms: C_5  and  C_16
REMARK    6  A    between atoms: C_6  and  C_7
REMARK    7  A    between atoms: C_11  and  C_12
REMARK    8  A    between atoms: C_16  and  C_17
REMARK    9  A    between atoms: C_16  and  N_25
REMARK   10  A    between atoms: C_18  and  C_19
REMARK   11  A    between atoms: C_26  and  C_28
REMARK                            x       y       z     vdW  Elec       q    Type
REMARK                         _______ _______ _______ _____ _____    ______ ____
ROOT
ATOM      1  C   UNL     1       0.768  11.081  20.790  0.00  0.00    +0.000 C 
ENDROOT
BRANCH   1   2
ATOM      2  N   UNL     1       1.191  12.186  19.934  0.00  0.00    +0.000 N 
ATOM      3  C   UNL     1       1.608  13.399  20.452  0.00  0.00    +0.000 C 
ATOM      4  O   UNL     1       1.540  13.706  21.635  0.00  0.00    +0.000 OA
ATOM      5  H   UNL     1       1.513  11.948  19.007  0.00  0.00    +0.000 HD
BRANCH   3   6
ATOM      6  C   UNL     1       2.194  14.347  19.463  0.00  0.00    +0.000 A 
ATOM      7  C   UNL     1       1.620  15.605  19.237  0.00  0.00    +0.000 A 
ATOM      8  C   UNL     1       2.173  16.466  18.287  0.00  0.00    +0.000 A 
ATOM      9  C   UNL     1       3.306  16.079  17.574  0.00  0.00    +0.000 A 
ATOM     10  C   UNL     1       3.895  14.838  17.810  0.00  0.00    +0.000 A 
ATOM     11  C   UNL     1       3.345  13.973  18.760  0.00  0.00    +0.000 A 
ENDBRANCH   3   6
ENDBRANCH   1   2
BRANCH   1  12
ATOM     12  C   UNL     1       1.242   9.792  20.156  0.00  0.00    +0.000 C 
ATOM     13  C   UNL     1       1.338   8.579  20.722  0.00  0.00    +0.000 C 
BRANCH  13  14
ATOM     14  C   UNL     1       1.845   7.412  19.992  0.00  0.00    +0.000 A 
ATOM     15  C   UNL     1       2.474   7.542  18.747  0.00  0.00    +0.000 A 
ATOM     16  C   UNL     1       2.946   6.416  18.069  0.00  0.00    +0.000 A 
ATOM     17  C   UNL     1       2.808   5.154  18.640  0.00  0.00    +0.000 A 
ATOM     18  C   UNL     1       2.210   5.017  19.893  0.00  0.00    +0.000 A 
ATOM     19  C   UNL     1       1.737   6.142  20.570  0.00  0.00    +0.000 A 
ENDBRANCH  13  14
ENDBRANCH   1  12
BRANCH   1  20
ATOM     20  C   UNL     1      -0.767  11.077  20.992  0.00  0.00    +0.000 C 
BRANCH  20  21
ATOM     21  C   UNL     1      -1.133  11.289  22.458  0.00  0.00    +0.000 C 
ATOM     22  O   UNL     1      -0.713  10.637  23.404  0.00  0.00    +0.000 OA
BRANCH  21  24
ATOM     23  C   UNL     1      -3.053  12.208  23.509  0.00  0.00    +0.000 C 
ATOM     24  O   UNL     1      -1.977  12.357  22.576  0.00  0.00    +0.000 OA
ENDBRANCH  21  24
ENDBRANCH  20  21
BRANCH  20  25
ATOM     25  C   UNL     1      -1.505  12.119  20.117  0.00  0.00    +0.000 C 
BRANCH  25  26
ATOM     26  C   UNL     1      -2.317  11.493  19.007  0.00  0.00    +0.000 A 
ATOM     27  C   UNL     1      -1.710  10.666  18.056  0.00  0.00    +0.000 A 
ATOM     28  C   UNL     1      -2.414  10.260  16.923  0.00  0.00    +0.000 A 
ATOM     29  C   UNL     1      -3.731  10.679  16.724  0.00  0.00    +0.000 A 
ATOM     30  C   UNL     1      -4.361  11.473  17.684  0.00  0.00    +0.000 A 
ATOM     31  C   UNL     1      -3.663  11.846  18.838  0.00  0.00    +0.000 A 
BRANCH  30  32
ATOM     32  C   UNL     1      -5.730  12.012  17.466  0.00  0.00    +0.000 C 
ATOM     33  N   UNL     1      -5.960  13.190  16.980  0.00  0.00    +0.000 NA
ATOM     34  N   UNL     1      -6.822  11.270  17.813  0.00  0.00    +0.000 N 
ATOM     35  H   UNL     1      -5.088  13.663  16.733  0.00  0.00    +0.000 HD
ATOM     36  H   UNL     1      -6.733  10.798  18.707  0.00  0.00    +0.000 HD
ATOM     37  H   UNL     1      -7.656  11.852  17.788  0.00  0.00    +0.000 HD
ENDBRANCH  30  32
ENDBRANCH  25  26
ENDBRANCH  20  25
ENDBRANCH   1  20
TORSDOF 10
ENDMDL
MODEL 6
REMARK VINA RESULT:      -7.6      7.284     11.067
REMARK  Name = 
REMARK  11 active torsions:
REMARK  status: ('A' for Active; 'I' for Inactive)
REMARK    1  A    between atoms: C_1  and  O_2
REMARK    2  A    between atoms: O_2  and  C_3
REMARK    3  A    between atoms: C_3  and  C_5
REMARK    4  A    between atoms: C_5  and  C_6
REMARK    5  A    between atoms: C_5  and  C_16
REMARK    6  A    between atoms: C_6  and  C_7
REMARK    7  A    between atoms: C_11  and  C_12
REMARK    8  A    between atoms: C_16  and  C_17
REMARK    9  A    between atoms: C_16  and  N_25
REMARK   10  A    between atoms: C_18  and  C_19
REMARK   11  A    between atoms: C_26  and  C_28
REMARK                            x       y       z     vdW  Elec       q    Type
REMARK                         _______ _______ _______ _____ _____    ______ ____
ROOT
ATOM      1  C   UNL     1       0.510  11.755  21.025  0.00  0.00    +0.000 C 
ENDROOT
BRANCH   1   2
ATOM      2  N   UNL     1       0.904  12.893  20.198  0.00  0.00    +0.000 N 
ATOM      3  C   UNL     1       2.059  13.614  20.442  0.00  0.00    +0.000 C 
ATOM      4  O   UNL     1       2.776  13.460  21.422  0.00  0.00    +0.000 OA
ATOM      5  H   UNL     1       0.531  12.926  19.260  0.00  0.00    +0.000 HD
BRANCH   3   6
ATOM      6  C   UNL     1       2.421  14.610  19.395  0.00  0.00    +0.000 A 
ATOM      7  C   UNL     1       3.494  14.387  18.522  0.00  0.00    +0.000 A 
ATOM      8  C   UNL     1       3.829  15.348  17.566  0.00  0.00    +0.000 A 
ATOM      9  C   UNL     1       3.087  16.524  17.471  0.00  0.00    +0.000 A 
ATOM     10  C   UNL     1       2.005  16.742  18.322  0.00  0.00    +0.000 A 
ATOM     11  C   UNL     1       1.665  15.782  19.281  0.00  0.00    +0.000 A 
ENDBRANCH   3   6
ENDBRANCH   1   2
BRANCH   1  12
ATOM     12  C   UNL     1       1.042  10.498  20.372  0.00  0.00    +0.000 C 
ATOM     13  C   UNL     1       0.971   9.237  20.827  0.00  0.00    +0.000 C 
BRANCH  13  14
ATOM     14  C   UNL     1       1.560   8.108  20.100  0.00  0.00    +0.000 A 
ATOM     15  C   UNL     1       1.626   6.827  20.663  0.00  0.00    +0.000 A 
ATOM     16  C   UNL     1       2.195   5.768  19.954  0.00  0.00    +0.000 A 
ATOM     17  C   UNL     1       2.686   5.979  18.668  0.00  0.00    +0.000 A 
ATOM     18  C   UNL     1       2.598   7.243  18.087  0.00  0.00    +0.000 A 
ATOM     19  C   UNL     1       2.031   8.302  18.797  0.00  0.00    +0.000 A 
ENDBRANCH  13  14
ENDBRANCH   1  12
BRANCH   1  20
ATOM     20  C   UNL     1      -1.027  11.689  21.202  0.00  0.00    +0.000 C 
BRANCH  20  21
ATOM     21  C   UNL     1      -1.441  12.101  22.611  0.00  0.00    +0.000 C 
ATOM     22  O   UNL     1      -2.382  11.646  23.245  0.00  0.00    +0.000 OA
BRANCH  21  24
ATOM     23  C   UNL     1      -1.161  14.198  23.688  0.00  0.00    +0.000 C 
ATOM     24  O   UNL     1      -0.570  13.036  23.095  0.00  0.00    +0.000 OA
ENDBRANCH  21  24
ENDBRANCH  20  21
BRANCH  20  25
ATOM     25  C   UNL     1      -1.802  12.537  20.164  0.00  0.00    +0.000 C 
BRANCH  25  26
ATOM     26  C   UNL     1      -2.521  11.699  19.132  0.00  0.00    +0.000 A 
ATOM     27  C   UNL     1      -1.803  10.947  18.196  0.00  0.00    +0.000 A 
ATOM     28  C   UNL     1      -2.459  10.344  17.124  0.00  0.00    +0.000 A 
ATOM     29  C   UNL     1      -3.839  10.490  16.969  0.00  0.00    +0.000 A 
ATOM     30  C   UNL     1      -4.572  11.207  17.917  0.00  0.00    +0.000 A 
ATOM     31  C   UNL     1      -3.916  11.777  19.013  0.00  0.00    +0.000 A 
BRANCH  30  32
ATOM     32  C   UNL     1      -6.028  11.459  17.740  0.00  0.00    +0.000 C 
ATOM     33  N   UNL     1      -6.498  12.395  16.977  0.00  0.00    +0.000 NA
ATOM     34  N   UNL     1      -6.941  10.709  18.422  0.00  0.00    +0.000 N 
ATOM     35  H   UNL     1      -5.745  12.890  16.495  0.00  0.00    +0.000 HD
ATOM     36  H   UNL     1      -6.696  10.542  19.392  0.00  0.00    +0.000 HD
ATOM     37  H   UNL     1      -7.862  11.135  18.346  0.00  0.00    +0.000 HD
ENDBRANCH  30  32
ENDBRANCH  25  26
ENDBRANCH  20  25
ENDBRANCH   1  20
TORSDOF 10
ENDMDL
MODEL 7
REMARK VINA RESULT:      -7.5      5.969      9.672
REMARK  Name = 
REMARK  11 active torsions:
REMARK  status: ('A' for Active; 'I' for Inactive)
REMARK    1  A    between atoms: C_1  and  O_2
REMARK    2  A    between atoms: O_2  and  C_3
REMARK    3  A    between atoms: C_3  and  C_5
REMARK    4  A    between atoms: C_5  and  C_6
REMARK    5  A    between atoms: C_5  and  C_16
REMARK    6  A    between atoms: C_6  and  C_7
REMARK    7  A    between atoms: C_11  and  C_12
REMARK    8  A    between atoms: C_16  and  C_17
REMARK    9  A    between atoms: C_16  and  N_25
REMARK   10  A    between atoms: C_18  and  C_19
REMARK   11  A    between atoms: C_26  and  C_28
REMARK                            x       y       z     vdW  Elec       q    Type
REMARK                         _______ _______ _______ _____ _____    ______ ____
ROOT
ATOM      1  C   UNL     1       0.108  11.545  20.534  0.00  0.00    +0.000 C 
ENDROOT
BRANCH   1   2
ATOM      2  N   UNL     1      -0.747  11.096  19.439  0.00  0.00    +0.000 N 
ATOM      3  C   UNL     1      -1.990  11.656  19.200  0.00  0.00    +0.000 C 
ATOM      4  O   UNL     1      -2.537  12.465  19.939  0.00  0.00    +0.000 OA
ATOM      5  H   UNL     1      -0.292  10.640  18.662  0.00  0.00    +0.000 HD
BRANCH   3   6
ATOM      6  C   UNL     1      -2.648  11.231  17.934  0.00  0.00    +0.000 A 
ATOM      7  C   UNL     1      -1.995  10.386  17.026  0.00  0.00    +0.000 A 
ATOM      8  C   UNL     1      -2.623  10.021  15.834  0.00  0.00    +0.000 A 
ATOM      9  C   UNL     1      -3.906  10.487  15.553  0.00  0.00    +0.000 A 
ATOM     10  C   UNL     1      -4.569  11.309  16.461  0.00  0.00    +0.000 A 
ATOM     11  C   UNL     1      -3.945  11.677  17.657  0.00  0.00    +0.000 A 
ENDBRANCH   3   6
ENDBRANCH   1   2
BRANCH   1  12
ATOM     12  C   UNL     1       1.247  12.344  19.940  0.00  0.00    +0.000 C 
ATOM     13  C   UNL     1       1.585  13.617  20.196  0.00  0.00    +0.000 C 
BRANCH  13  14
ATOM     14  C   UNL     1       2.705  14.282  19.521  0.00  0.00    +0.000 A 
ATOM     15  C   UNL     1       2.616  14.691  18.183  0.00  0.00    +0.000 A 
ATOM     16  C   UNL     1       3.696  15.318  17.561  0.00  0.00    +0.000 A 
ATOM     17  C   UNL     1       4.867  15.556  18.276  0.00  0.00    +0.000 A 
ATOM     18  C   UNL     1       4.955  15.180  19.615  0.00  0.00    +0.000 A 
ATOM     19  C   UNL     1       3.875  14.551  20.238  0.00  0.00    +0.000 A 
ENDBRANCH  13  14
ENDBRANCH   1  12
BRANCH   1  20
ATOM     20  C   UNL     1       0.635  10.350  21.367  0.00  0.00    +0.000 C 
BRANCH  20  21
ATOM     21  C   UNL     1       0.130  10.412  22.806  0.00  0.00    +0.000 C 
ATOM     22  O   UNL     1       0.329   9.573  23.673  0.00  0.00    +0.000 OA
BRANCH  21  24
ATOM     23  C   UNL     1      -1.950  11.453  23.281  0.00  0.00    +0.000 C 
ATOM     24  O   UNL     1      -0.549  11.580  23.009  0.00  0.00    +0.000 OA
ENDBRANCH  21  24
ENDBRANCH  20  21
BRANCH  20  25
ATOM     25  C   UNL     1       0.286   8.972  20.753  0.00  0.00    +0.000 C 
BRANCH  25  26
ATOM     26  C   UNL     1       1.383   8.420  19.873  0.00  0.00    +0.000 A 
ATOM     27  C   UNL     1       1.657   8.995  18.628  0.00  0.00    +0.000 A 
ATOM     28  C   UNL     1       2.522   8.363  17.735  0.00  0.00    +0.000 A 
ATOM     29  C   UNL     1       3.118   7.146  18.072  0.00  0.00    +0.000 A 
ATOM     30  C   UNL     1       2.882   6.582  19.327  0.00  0.00    +0.000 A 
ATOM     31  C   UNL     1       2.045   7.238  20.235  0.00  0.00    +0.000 A 
BRANCH  30  32
ATOM     32  C   UNL     1       3.428   5.245  19.689  0.00  0.00    +0.000 C 
ATOM     33  N   UNL     1       2.726   4.328  20.277  0.00  0.00    +0.000 NA
ATOM     34  N   UNL     1       4.734   4.946  19.434  0.00  0.00    +0.000 N 
ATOM     35  H   UNL     1       1.760   4.633  20.410  0.00  0.00    +0.000 HD
ATOM     36  H   UNL     1       5.380   5.697  19.655  0.00  0.00    +0.000 HD
ATOM     37  H   UNL     1       4.992   4.089  19.916  0.00  0.00    +0.000 HD
ENDBRANCH  30  32
ENDBRANCH  25  26
ENDBRANCH  20  25
ENDBRANCH   1  20
TORSDOF 10
ENDMDL
MODEL 8
REMARK VINA RESULT:      -7.4      6.407      9.851
REMARK  Name = 
REMARK  11 active torsions:
REMARK  status: ('A' for Active; 'I' for Inactive)
REMARK    1  A    between atoms: C_1  and  O_2
REMARK    2  A    between atoms: O_2  and  C_3
REMARK    3  A    between atoms: C_3  and  C_5
REMARK    4  A    between atoms: C_5  and  C_6
REMARK    5  A    between atoms: C_5  and  C_16
REMARK    6  A    between atoms: C_6  and  C_7
REMARK    7  A    between atoms: C_11  and  C_12
REMARK    8  A    between atoms: C_16  and  C_17
REMARK    9  A    between atoms: C_16  and  N_25
REMARK   10  A    between atoms: C_18  and  C_19
REMARK   11  A    between atoms: C_26  and  C_28
REMARK                            x       y       z     vdW  Elec       q    Type
REMARK                         _______ _______ _______ _____ _____    ______ ____
ROOT
ATOM      1  C   UNL     1       0.887  11.429  20.132  0.00  0.00    +0.000 C 
ENDROOT
BRANCH   1   2
ATOM      2  N   UNL     1      -0.224  11.950  20.925  0.00  0.00    +0.000 N 
ATOM      3  C   UNL     1      -0.424  11.578  22.242  0.00  0.00    +0.000 C 
ATOM      4  O   UNL     1       0.210  10.702  22.818  0.00  0.00    +0.000 OA
ATOM      5  H   UNL     1      -0.621  12.830  20.631  0.00  0.00    +0.000 HD
BRANCH   3   6
ATOM      6  C   UNL     1      -1.473  12.345  22.969  0.00  0.00    +0.000 A 
ATOM      7  C   UNL     1      -2.695  11.753  23.315  0.00  0.00    +0.000 A 
ATOM      8  C   UNL     1      -3.673  12.500  23.975  0.00  0.00    +0.000 A 
ATOM      9  C   UNL     1      -3.428  13.833  24.301  0.00  0.00    +0.000 A 
ATOM     10  C   UNL     1      -2.207  14.422  23.979  0.00  0.00    +0.000 A 
ATOM     11  C   UNL     1      -1.224  13.677  23.319  0.00  0.00    +0.000 A 
ENDBRANCH   3   6
ENDBRANCH   1   2
BRANCH   1  12
ATOM     12  C   UNL     1       1.520  12.590  19.397  0.00  0.00    +0.000 C 
ATOM     13  C   UNL     1       1.242  13.898  19.523  0.00  0.00    +0.000 C 
BRANCH  13  14
ATOM     14  C   UNL     1       1.919  14.923  18.720  0.00  0.00    +0.000 A 
ATOM     15  C   UNL     1       1.417  16.227  18.621  0.00  0.00    +0.000 A 
ATOM     16  C   UNL     1       2.076  17.184  17.848  0.00  0.00    +0.000 A 
ATOM     17  C   UNL     1       3.252  16.849  17.183  0.00  0.00    +0.000 A 
ATOM     18  C   UNL     1       3.776  15.562  17.298  0.00  0.00    +0.000 A 
ATOM     19  C   UNL     1       3.116  14.604  18.070  0.00  0.00    +0.000 A 
ENDBRANCH  13  14
ENDBRANCH   1  12
BRANCH   1  20
ATOM     20  C   UNL     1       0.413  10.332  19.147  0.00  0.00    +0.000 C 
BRANCH  20  21
ATOM     21  C   UNL     1      -0.853  10.758  18.410  0.00  0.00    +0.000 C 
ATOM     22  O   UNL     1      -1.285  11.898  18.325  0.00  0.00    +0.000 OA
BRANCH  21  24
ATOM     23  C   UNL     1      -2.286   9.953  16.697  0.00  0.00    +0.000 C 
ATOM     24  O   UNL     1      -1.426   9.673  17.808  0.00  0.00    +0.000 OA
ENDBRANCH  21  24
ENDBRANCH  20  21
BRANCH  20  25
ATOM     25  C   UNL     1       1.497   9.918  18.121  0.00  0.00    +0.000 C 
BRANCH  25  26
ATOM     26  C   UNL     1       2.051   8.535  18.370  0.00  0.00    +0.000 A 
ATOM     27  C   UNL     1       1.710   7.825  19.526  0.00  0.00    +0.000 A 
ATOM     28  C   UNL     1       2.378   6.645  19.852  0.00  0.00    +0.000 A 
ATOM     29  C   UNL     1       3.399   6.163  19.030  0.00  0.00    +0.000 A 
ATOM     30  C   UNL     1       3.722   6.842  17.854  0.00  0.00    +0.000 A 
ATOM     31  C   UNL     1       3.023   8.004  17.510  0.00  0.00    +0.000 A 
BRANCH  30  32
ATOM     32  C   UNL     1       4.862   6.409  17.000  0.00  0.00    +0.000 C 
ATOM     33  N   UNL     1       5.799   5.618  17.415  0.00  0.00    +0.000 NA
ATOM     34  N   UNL     1       4.975   6.873  15.722  0.00  0.00    +0.000 N 
ATOM     35  H   UNL     1       5.622   5.308  18.373  0.00  0.00    +0.000 HD
ATOM     36  H   UNL     1       4.775   7.863  15.623  0.00  0.00    +0.000 HD
ATOM     37  H   UNL     1       5.895   6.647  15.354  0.00  0.00    +0.000 HD
ENDBRANCH  30  32
ENDBRANCH  25  26
ENDBRANCH  20  25
ENDBRANCH   1  20
TORSDOF 10
ENDMDL
MODEL 9
REMARK VINA RESULT:      -7.4      1.285      1.762
REMARK  Name = 
REMARK  11 active torsions:
REMARK  status: ('A' for Active; 'I' for Inactive)
REMARK    1  A    between atoms: C_1  and  O_2
REMARK    2  A    between atoms: O_2  and  C_3
REMARK    3  A    between atoms: C_3  and  C_5
REMARK    4  A    between atoms: C_5  and  C_6
REMARK    5  A    between atoms: C_5  and  C_16
REMARK    6  A    between atoms: C_6  and  C_7
REMARK    7  A    between atoms: C_11  and  C_12
REMARK    8  A    between atoms: C_16  and  C_17
REMARK    9  A    between atoms: C_16  and  N_25
REMARK   10  A    between atoms: C_18  and  C_19
REMARK   11  A    between atoms: C_26  and  C_28
REMARK                            x       y       z     vdW  Elec       q    Type
REMARK                         _______ _______ _______ _____ _____    ______ ____
ROOT
ATOM      1  C   UNL     1       5.663   6.872  17.428  0.00  0.00    +0.000 C 
ENDROOT
BRANCH   1   2
ATOM      2  N   UNL     1       4.668   6.017  18.070  0.00  0.00    +0.000 N 
ATOM      3  C   UNL     1       3.342   6.394  18.189  0.00  0.00    +0.000 C 
ATOM      4  O   UNL     1       2.909   7.501  17.898  0.00  0.00    +0.000 OA
ATOM      5  H   UNL     1       4.869   5.028  18.103  0.00  0.00    +0.000 HD
BRANCH   3   6
ATOM      6  C   UNL     1       2.420   5.334  18.684  0.00  0.00    +0.000 A 
ATOM      7  C   UNL     1       1.985   5.316  20.016  0.00  0.00    +0.000 A 
ATOM      8  C   UNL     1       1.140   4.298  20.462  0.00  0.00    +0.000 A 
ATOM      9  C   UNL     1       0.719   3.306  19.578  0.00  0.00    +0.000 A 
ATOM     10  C   UNL     1       1.131   3.330  18.247  0.00  0.00    +0.000 A 
ATOM     11  C   UNL     1       1.976   4.348  17.795  0.00  0.00    +0.000 A 
ENDBRANCH   3   6
ENDBRANCH   1   2
BRANCH   1  12
ATOM     12  C   UNL     1       5.980   6.282  16.072  0.00  0.00    +0.000 C 
ATOM     13  C   UNL     1       5.695   5.050  15.620  0.00  0.00    +0.000 C 
BRANCH  13  14
ATOM     14  C   UNL     1       6.091   4.597  14.282  0.00  0.00    +0.000 A 
ATOM     15  C   UNL     1       5.303   3.700  13.549  0.00  0.00    +0.000 A 
ATOM     16  C   UNL     1       5.701   3.280  12.279  0.00  0.00    +0.000 A 
ATOM     17  C   UNL     1       6.882   3.768  11.725  0.00  0.00    +0.000 A 
ATOM     18  C   UNL     1       7.658   4.683  12.434  0.00  0.00    +0.000 A 
ATOM     19  C   UNL     1       7.260   5.103  13.704  0.00  0.00    +0.000 A 
ENDBRANCH  13  14
ENDBRANCH   1  12
BRANCH   1  20
ATOM     20  C   UNL     1       6.939   7.006  18.296  0.00  0.00    +0.000 C 
BRANCH  20  21
ATOM     21  C   UNL     1       7.409   5.645  18.802  0.00  0.00    +0.000 C 
ATOM     22  O   UNL     1       8.340   4.994  18.350  0.00  0.00    +0.000 OA
BRANCH  21  24
ATOM     23  C   UNL     1       5.858   4.094  19.710  0.00  0.00    +0.000 C 
ATOM     24  O   UNL     1       6.660   5.268  19.881  0.00  0.00    +0.000 OA
ENDBRANCH  21  24
ENDBRANCH  20  21
BRANCH  20  25
ATOM     25  C   UNL     1       8.104   7.720  17.568  0.00  0.00    +0.000 C 
BRANCH  25  26
ATOM     26  C   UNL     1       8.229   9.179  17.940  0.00  0.00    +0.000 A 
ATOM     27  C   UNL     1       7.509  10.158  17.246  0.00  0.00    +0.000 A 
ATOM     28  C   UNL     1       7.780  11.510  17.450  0.00  0.00    +0.000 A 
ATOM     29  C   UNL     1       8.777  11.902  18.346  0.00  0.00    +0.000 A 
ATOM     30  C   UNL     1       9.476  10.936  19.073  0.00  0.00    +0.000 A 
ATOM     31  C   UNL     1       9.174   9.582  18.894  0.00  0.00    +0.000 A 
BRANCH  30  32
ATOM     32  C   UNL     1      10.604  11.309  19.969  0.00  0.00    +0.000 C 
ATOM     33  N   UNL     1      10.459  11.528  21.238  0.00  0.00    +0.000 NA
ATOM     34  N   UNL     1      11.860  11.467  19.461  0.00  0.00    +0.000 N 
ATOM     35  H   UNL     1       9.493  11.369  21.531  0.00  0.00    +0.000 HD
ATOM     36  H   UNL     1      11.888  11.969  18.579  0.00  0.00    +0.000 HD
ATOM     37  H   UNL     1      12.459  11.910  20.153  0.00  0.00    +0.000 HD
ENDBRANCH  30  32
ENDBRANCH  25  26
ENDBRANCH  20  25
ENDBRANCH   1  20
TORSDOF 10
ENDMDL
