MODEL 1
REMARK VINA RESULT:      -7.2      0.000      0.000
REMARK  Name = 
REMARK  12 active torsions:
REMARK  status: ('A' for Active; 'I' for Inactive)
REMARK    1  A    between atoms: C_1  and  N_2
REMARK    2  A    between atoms: N_2  and  C_3
REMARK    3  A    between atoms: C_3  and  C_4
REMARK    4  A    between atoms: C_3  and  C_5
REMARK    5  A    between atoms: N_7  and  C_8
REMARK    6  A    between atoms: C_8  and  C_9
REMARK    7  A    between atoms: C_8  and  C_26
REMARK    8  A    between atoms: C_15  and  C_16
REMARK    9  A    between atoms: N_18  and  N_19
REMARK   10  A    between atoms: N_19  and  C_20
REMARK   11  A    between atoms: C_26  and  C_27
REMARK   12  A    between atoms: C_26  and  C_28
REMARK                            x       y       z     vdW  Elec       q    Type
REMARK                         _______ _______ _______ _____ _____    ______ ____
ROOT
ATOM      1  C   UNL     1       1.840   7.941  18.994  0.00  0.00    +0.000 C 
ATOM      2  O   UNL     1       1.473   8.257  17.857  0.00  0.00    +0.000 OA
ATOM      3  N   UNL     1       1.354   8.622  20.089  0.00  0.00    +0.000 N 
ATOM      4  C   UNL     1       1.707   8.440  21.483  0.00  0.00    +0.000 C 
ATOM      5  C   UNL     1       0.354   8.475  22.173  0.00  0.00    +0.000 C 
ATOM      6  C   UNL     1      -0.414   9.547  21.406  0.00  0.00    +0.000 C 
ATOM      7  C   UNL     1       0.181   9.517  19.987  0.00  0.00    +0.000 C 
ENDROOT
BRANCH   7   8
ATOM      8  C   UNL     1       0.558  10.951  19.515  0.00  0.00    +0.000 C 
ATOM      9  O   UNL     1       1.297  11.694  20.164  0.00  0.00    +0.000 OA
ATOM     10  N   UNL     1       0.080  11.357  18.282  0.00  0.00    +0.000 N 
ATOM     11  H   UNL     1       0.386  12.242  17.897  0.00  0.00    +0.000 HD
BRANCH  10  12
ATOM     12  N   UNL     1      -0.605  10.446  17.479  0.00  0.00    +0.000 N 
ATOM     13  H   UNL     1      -0.153  10.378  16.549  0.00  0.00    +0.000 HD
BRANCH  12  14
ATOM     14  C   UNL     1      -1.978  10.666  17.223  0.00  0.00    +0.000 A 
ATOM     15  C   UNL     1      -2.715  11.290  18.249  0.00  0.00    +0.000 A 
ATOM     16  C   UNL     1      -4.039  11.670  18.068  0.00  0.00    +0.000 A 
ATOM     17  C   UNL     1      -4.646  11.452  16.836  0.00  0.00    +0.000 A 
ATOM     18  C   UNL     1      -3.920  10.855  15.798  0.00  0.00    +0.000 A 
ATOM     19  C   UNL     1      -2.586  10.476  15.985  0.00  0.00    +0.000 A 
ENDBRANCH  12  14
ENDBRANCH  10  12
ENDBRANCH   7   8
BRANCH   1  20
ATOM     20  C   UNL     1       2.866   6.793  19.142  0.00  0.00    +0.000 C 
BRANCH  20  23
ATOM     21  C   UNL     1       4.987   6.270  17.930  0.00  0.00    +0.000 C 
ATOM     22  O   UNL     1       5.515   5.740  18.909  0.00  0.00    +0.000 OA
ATOM     23  N   UNL     1       3.725   6.803  17.959  0.00  0.00    +0.000 N 
ATOM     24  H   UNL     1       3.438   7.322  17.133  0.00  0.00    +0.000 HD
BRANCH  21  25
ATOM     25  C   UNL     1       5.734   6.427  16.580  0.00  0.00    +0.000 C 
ATOM     26  C   UNL     1       5.383   5.238  15.689  0.00  0.00    +0.000 C 
BRANCH  25  28
ATOM     27  C   UNL     1       7.551   7.822  17.442  0.00  0.00    +0.000 C 
ATOM     28  N   UNL     1       7.193   6.539  16.843  0.00  0.00    +0.000 NA
ATOM     29  H   UNL     1       7.439   5.803  17.509  0.00  0.00    +0.000 HD
ENDBRANCH  25  28
ENDBRANCH  21  25
ENDBRANCH  20  23
BRANCH  20  30
ATOM     30  C   UNL     1       2.117   5.427  19.222  0.00  0.00    +0.000 C 
ATOM     31  C   UNL     1       2.159   4.690  17.879  0.00  0.00    +0.000 C 
ATOM     32  C   UNL     1       2.690   4.506  20.309  0.00  0.00    +0.000 C 
ENDBRANCH  20  30
ENDBRANCH   1  20
TORSDOF 8
ENDMDL
MODEL 2
REMARK VINA RESULT:      -7.1      3.052      5.602
REMARK  Name = 
REMARK  12 active torsions:
REMARK  status: ('A' for Active; 'I' for Inactive)
REMARK    1  A    between atoms: C_1  and  N_2
REMARK    2  A    between atoms: N_2  and  C_3
REMARK    3  A    between atoms: C_3  and  C_4
REMARK    4  A    between atoms: C_3  and  C_5
REMARK    5  A    between atoms: N_7  and  C_8
REMARK    6  A    between atoms: C_8  and  C_9
REMARK    7  A    between atoms: C_8  and  C_26
REMARK    8  A    between atoms: C_15  and  C_16
REMARK    9  A    between atoms: N_18  and  N_19
REMARK   10  A    between atoms: N_19  and  C_20
REMARK   11  A    between atoms: C_26  and  C_27
REMARK   12  A    between atoms: C_26  and  C_28
REMARK                            x       y       z     vdW  Elec       q    Type
REMARK                         _______ _______ _______ _____ _____    ______ ____
ROOT
ATOM      1  C   UNL     1       4.635   6.312  17.240  0.00  0.00    +0.000 C 
ATOM      2  O   UNL     1       4.272   7.375  17.756  0.00  0.00    +0.000 OA
ATOM      3  N   UNL     1       3.968   5.142  17.531  0.00  0.00    +0.000 N 
ATOM      4  C   UNL     1       4.278   3.800  17.077  0.00  0.00    +0.000 C 
ATOM      5  C   UNL     1       2.911   3.257  16.699  0.00  0.00    +0.000 C 
ATOM      6  C   UNL     1       1.987   3.824  17.771  0.00  0.00    +0.000 C 
ATOM      7  C   UNL     1       2.648   5.147  18.199  0.00  0.00    +0.000 C 
ENDROOT
BRANCH   7   8
ATOM      8  C   UNL     1       2.758   5.233  19.748  0.00  0.00    +0.000 C 
ATOM      9  O   UNL     1       3.185   4.306  20.440  0.00  0.00    +0.000 OA
ATOM     10  N   UNL     1       2.416   6.436  20.340  0.00  0.00    +0.000 N 
ATOM     11  H   UNL     1       2.571   6.563  21.334  0.00  0.00    +0.000 HD
BRANCH  10  12
ATOM     12  N   UNL     1       2.107   7.532  19.536  0.00  0.00    +0.000 N 
ATOM     13  H   UNL     1       2.975   7.982  19.195  0.00  0.00    +0.000 HD
BRANCH  12  14
ATOM     14  C   UNL     1       1.324   8.574  20.083  0.00  0.00    +0.000 A 
ATOM     15  C   UNL     1       1.014   8.474  21.454  0.00  0.00    +0.000 A 
ATOM     16  C   UNL     1       0.359   9.495  22.131  0.00  0.00    +0.000 A 
ATOM     17  C   UNL     1       0.020  10.656  21.444  0.00  0.00    +0.000 A 
ATOM     18  C   UNL     1       0.342  10.782  20.088  0.00  0.00    +0.000 A 
ATOM     19  C   UNL     1       1.004   9.751  19.412  0.00  0.00    +0.000 A 
ENDBRANCH  12  14
ENDBRANCH  10  12
ENDBRANCH   7   8
BRANCH   1  20
ATOM     20  C   UNL     1       5.859   6.335  16.294  0.00  0.00    +0.000 C 
BRANCH  20  23
ATOM     21  C   UNL     1       6.646   4.925  14.389  0.00  0.00    +0.000 C 
ATOM     22  O   UNL     1       7.667   5.590  14.207  0.00  0.00    +0.000 OA
ATOM     23  N   UNL     1       5.727   5.216  15.362  0.00  0.00    +0.000 N 
ATOM     24  H   UNL     1       4.866   4.676  15.342  0.00  0.00    +0.000 HD
BRANCH  21  25
ATOM     25  C   UNL     1       6.286   3.716  13.487  0.00  0.00    +0.000 C 
ATOM     26  C   UNL     1       7.156   3.768  12.234  0.00  0.00    +0.000 C 
BRANCH  25  28
ATOM     27  C   UNL     1       4.543   3.343  11.809  0.00  0.00    +0.000 C 
ATOM     28  N   UNL     1       4.832   3.756  13.181  0.00  0.00    +0.000 NA
ATOM     29  H   UNL     1       4.370   3.095  13.810  0.00  0.00    +0.000 HD
ENDBRANCH  25  28
ENDBRANCH  21  25
ENDBRANCH  20  23
BRANCH  20  30
ATOM     30  C   UNL     1       7.167   6.161  17.125  0.00  0.00    +0.000 C 
ATOM     31  C   UNL     1       7.709   7.514  17.600  0.00  0.00    +0.000 C 
ATOM     32  C   UNL     1       6.969   5.252  18.348  0.00  0.00    +0.000 C 
ENDBRANCH  20  30
ENDBRANCH   1  20
TORSDOF 8
ENDMDL
MODEL 3
REMARK VINA RESULT:      -7.1      0.743      1.206
REMARK  Name = 
REMARK  12 active torsions:
REMARK  status: ('A' for Active; 'I' for Inactive)
REMARK    1  A    between atoms: C_1  and  N_2
REMARK    2  A    between atoms: N_2  and  C_3
REMARK    3  A    between atoms: C_3  and  C_4
REMARK    4  A    between atoms: C_3  and  C_5
REMARK    5  A    between atoms: N_7  and  C_8
REMARK    6  A    between atoms: C_8  and  C_9
REMARK    7  A    between atoms: C_8  and  C_26
REMARK    8  A    between atoms: C_15  and  C_16
REMARK    9  A    between atoms: N_18  and  N_19
REMARK   10  A    between atoms: N_19  and  C_20
REMARK   11  A    between atoms: C_26  and  C_27
REMARK   12  A    between atoms: C_26  and  C_28
REMARK                            x       y       z     vdW  Elec       q    Type
REMARK                         _______ _______ _______ _____ _____    ______ ____
ROOT
ATOM      1  C   UNL     1       1.994   7.771  19.011  0.00  0.00    +0.000 C 
ATOM      2  O   UNL     1       1.858   8.042  17.814  0.00  0.00    +0.000 OA
ATOM      3  N   UNL     1       1.356   8.531  19.967  0.00  0.00    +0.000 N 
ATOM      4  C   UNL     1       1.440   8.408  21.409  0.00  0.00    +0.000 C 
ATOM      5  C   UNL     1      -0.011   8.543  21.836  0.00  0.00    +0.000 C 
ATOM      6  C   UNL     1      -0.566   9.608  20.895  0.00  0.00    +0.000 C 
ATOM      7  C   UNL     1       0.273   9.474  19.612  0.00  0.00    +0.000 C 
ENDROOT
BRANCH   7   8
ATOM      8  C   UNL     1       0.809  10.861  19.156  0.00  0.00    +0.000 C 
ATOM      9  O   UNL     1       1.820  11.378  19.637  0.00  0.00    +0.000 OA
ATOM     10  N   UNL     1       0.138  11.488  18.120  0.00  0.00    +0.000 N 
ATOM     11  H   UNL     1       0.516  12.343  17.729  0.00  0.00    +0.000 HD
BRANCH  10  12
ATOM     12  N   UNL     1      -0.893  10.816  17.465  0.00  0.00    +0.000 N 
ATOM     13  H   UNL     1      -0.733  10.827  16.441  0.00  0.00    +0.000 HD
BRANCH  12  14
ATOM     14  C   UNL     1      -2.220  11.266  17.651  0.00  0.00    +0.000 A 
ATOM     15  C   UNL     1      -3.128  10.992  16.609  0.00  0.00    +0.000 A 
ATOM     16  C   UNL     1      -4.483  11.273  16.729  0.00  0.00    +0.000 A 
ATOM     17  C   UNL     1      -4.960  11.818  17.917  0.00  0.00    +0.000 A 
ATOM     18  C   UNL     1      -4.076  12.074  18.971  0.00  0.00    +0.000 A 
ATOM     19  C   UNL     1      -2.712  11.786  18.845  0.00  0.00    +0.000 A 
ENDBRANCH  12  14
ENDBRANCH  10  12
ENDBRANCH   7   8
BRANCH   1  20
ATOM     20  C   UNL     1       2.911   6.585  19.396  0.00  0.00    +0.000 C 
BRANCH  20  23
ATOM     21  C   UNL     1       5.105   5.846  18.458  0.00  0.00    +0.000 C 
ATOM     22  O   UNL     1       5.561   5.521  19.556  0.00  0.00    +0.000 OA
ATOM     23  N   UNL     1       3.849   6.367  18.295  0.00  0.00    +0.000 N 
ATOM     24  H   UNL     1       3.623   6.713  17.365  0.00  0.00    +0.000 HD
BRANCH  21  25
ATOM     25  C   UNL     1       5.944   5.739  17.158  0.00  0.00    +0.000 C 
ATOM     26  C   UNL     1       7.092   4.762  17.400  0.00  0.00    +0.000 C 
BRANCH  25  28
ATOM     27  C   UNL     1       7.582   7.517  17.537  0.00  0.00    +0.000 C 
ATOM     28  N   UNL     1       6.413   7.094  16.770  0.00  0.00    +0.000 NA
ATOM     29  H   UNL     1       6.684   7.051  15.784  0.00  0.00    +0.000 HD
ENDBRANCH  25  28
ENDBRANCH  21  25
ENDBRANCH  20  23
BRANCH  20  30
ATOM     30  C   UNL     1       2.049   5.301  19.599  0.00  0.00    +0.000 C 
ATOM     31  C   UNL     1       2.013   4.449  18.325  0.00  0.00    +0.000 C 
ATOM     32  C   UNL     1       2.554   4.432  20.760  0.00  0.00    +0.000 C 
ENDBRANCH  20  30
ENDBRANCH   1  20
TORSDOF 8
ENDMDL
MODEL 4
REMARK VINA RESULT:      -7.1      0.876      1.499
REMARK  Name = 
REMARK  12 active torsions:
REMARK  status: ('A' for Active; 'I' for Inactive)
REMARK    1  A    between atoms: C_1  and  N_2
REMARK    2  A    between atoms: N_2  and  C_3
REMARK    3  A    between atoms: C_3  and  C_4
REMARK    4  A    between atoms: C_3  and  C_5
REMARK    5  A    between atoms: N_7  and  C_8
REMARK    6  A    between atoms: C_8  and  C_9
REMARK    7  A    between atoms: C_8  and  C_26
REMARK    8  A    between atoms: C_15  and  C_16
REMARK    9  A    between atoms: N_18  and  N_19
REMARK   10  A    between atoms: N_19  and  C_20
REMARK   11  A    between atoms: C_26  and  C_27
REMARK   12  A    between atoms: C_26  and  C_28
REMARK                            x       y       z     vdW  Elec       q    Type
REMARK                         _______ _______ _______ _____ _____    ______ ____
ROOT
ATOM      1  C   UNL     1       1.893   7.796  19.158  0.00  0.00    +0.000 C 
ATOM      2  O   UNL     1       1.687   8.031  17.962  0.00  0.00    +0.000 OA
ATOM      3  N   UNL     1       1.328   8.598  20.125  0.00  0.00    +0.000 N 
ATOM      4  C   UNL     1       1.499   8.519  21.563  0.00  0.00    +0.000 C 
ATOM      5  C   UNL     1       0.079   8.695  22.073  0.00  0.00    +0.000 C 
ATOM      6  C   UNL     1      -0.515   9.739  21.134  0.00  0.00    +0.000 C 
ATOM      7  C   UNL     1       0.241   9.549  19.806  0.00  0.00    +0.000 C 
ENDROOT
BRANCH   7   8
ATOM      8  C   UNL     1       0.770  10.911  19.272  0.00  0.00    +0.000 C 
ATOM      9  O   UNL     1       1.722  11.505  19.785  0.00  0.00    +0.000 OA
ATOM     10  N   UNL     1       0.169  11.420  18.135  0.00  0.00    +0.000 N 
ATOM     11  H   UNL     1       0.552  12.252  17.700  0.00  0.00    +0.000 HD
BRANCH  10  12
ATOM     12  N   UNL     1      -0.784  10.656  17.462  0.00  0.00    +0.000 N 
ATOM     13  H   UNL     1      -0.523  10.558  16.464  0.00  0.00    +0.000 HD
BRANCH  12  14
ATOM     14  C   UNL     1      -2.128  11.092  17.467  0.00  0.00    +0.000 A 
ATOM     15  C   UNL     1      -2.855  10.898  16.276  0.00  0.00    +0.000 A 
ATOM     16  C   UNL     1      -4.215  11.171  16.198  0.00  0.00    +0.000 A 
ATOM     17  C   UNL     1      -4.882  11.625  17.331  0.00  0.00    +0.000 A 
ATOM     18  C   UNL     1      -4.180  11.800  18.529  0.00  0.00    +0.000 A 
ATOM     19  C   UNL     1      -2.810  11.522  18.602  0.00  0.00    +0.000 A 
ENDBRANCH  12  14
ENDBRANCH  10  12
ENDBRANCH   7   8
BRANCH   1  20
ATOM     20  C   UNL     1       2.812   6.607  19.524  0.00  0.00    +0.000 C 
BRANCH  20  23
ATOM     21  C   UNL     1       4.990   5.859  18.558  0.00  0.00    +0.000 C 
ATOM     22  O   UNL     1       5.452   5.513  19.646  0.00  0.00    +0.000 OA
ATOM     23  N   UNL     1       3.739   6.396  18.413  0.00  0.00    +0.000 N 
ATOM     24  H   UNL     1       3.509   6.758  17.490  0.00  0.00    +0.000 HD
BRANCH  21  25
ATOM     25  C   UNL     1       5.818   5.764  17.250  0.00  0.00    +0.000 C 
ATOM     26  C   UNL     1       5.045   6.461  16.133  0.00  0.00    +0.000 C 
BRANCH  25  28
ATOM     27  C   UNL     1       4.932   3.650  16.391  0.00  0.00    +0.000 C 
ATOM     28  N   UNL     1       6.094   4.334  16.953  0.00  0.00    +0.000 NA
ATOM     29  H   UNL     1       6.840   4.307  16.254  0.00  0.00    +0.000 HD
ENDBRANCH  25  28
ENDBRANCH  21  25
ENDBRANCH  20  23
BRANCH  20  30
ATOM     30  C   UNL     1       1.950   5.322  19.726  0.00  0.00    +0.000 C 
ATOM     31  C   UNL     1       1.929   4.462  18.457  0.00  0.00    +0.000 C 
ATOM     32  C   UNL     1       2.446   4.461  20.897  0.00  0.00    +0.000 C 
ENDBRANCH  20  30
ENDBRANCH   1  20
TORSDOF 8
ENDMDL
MODEL 5
REMARK VINA RESULT:      -6.7      0.773      1.329
REMARK  Name = 
REMARK  12 active torsions:
REMARK  status: ('A' for Active; 'I' for Inactive)
REMARK    1  A    between atoms: C_1  and  N_2
REMARK    2  A    between atoms: N_2  and  C_3
REMARK    3  A    between atoms: C_3  and  C_4
REMARK    4  A    between atoms: C_3  and  C_5
REMARK    5  A    between atoms: N_7  and  C_8
REMARK    6  A    between atoms: C_8  and  C_9
REMARK    7  A    between atoms: C_8  and  C_26
REMARK    8  A    between atoms: C_15  and  C_16
REMARK    9  A    between atoms: N_18  and  N_19
REMARK   10  A    between atoms: N_19  and  C_20
REMARK   11  A    between atoms: C_26  and  C_27
REMARK   12  A    between atoms: C_26  and  C_28
REMARK                            x       y       z     vdW  Elec       q    Type
REMARK                         _______ _______ _______ _____ _____    ______ ____
ROOT
ATOM      1  C   UNL     1       2.156   7.452  19.081  0.00  0.00    +0.000 C 
ATOM      2  O   UNL     1       1.856   7.602  17.891  0.00  0.00    +0.000 OA
ATOM      3  N   UNL     1       1.599   8.269  20.040  0.00  0.00    +0.000 N 
ATOM      4  C   UNL     1       1.869   8.287  21.464  0.00  0.00    +0.000 C 
ATOM      5  C   UNL     1       0.477   8.396  22.062  0.00  0.00    +0.000 C 
ATOM      6  C   UNL     1      -0.251   9.341  21.110  0.00  0.00    +0.000 C 
ATOM      7  C   UNL     1       0.428   9.124  19.746  0.00  0.00    +0.000 C 
ENDROOT
BRANCH   7   8
ATOM      8  C   UNL     1       0.823  10.485  19.103  0.00  0.00    +0.000 C 
ATOM      9  O   UNL     1       1.716  11.203  19.557  0.00  0.00    +0.000 OA
ATOM     10  N   UNL     1       0.170  10.846  17.938  0.00  0.00    +0.000 N 
ATOM     11  H   UNL     1       0.470  11.674  17.437  0.00  0.00    +0.000 HD
BRANCH  10  12
ATOM     12  N   UNL     1      -0.709   9.946  17.337  0.00  0.00    +0.000 N 
ATOM     13  H   UNL     1      -0.338   9.643  16.418  0.00  0.00    +0.000 HD
BRANCH  12  14
ATOM     14  C   UNL     1      -2.040  10.356  17.098  0.00  0.00    +0.000 A 
ATOM     15  C   UNL     1      -2.720  10.945  18.182  0.00  0.00    +0.000 A 
ATOM     16  C   UNL     1      -3.986  11.499  18.036  0.00  0.00    +0.000 A 
ATOM     17  C   UNL     1      -4.588  11.493  16.782  0.00  0.00    +0.000 A 
ATOM     18  C   UNL     1      -3.916  10.933  15.689  0.00  0.00    +0.000 A 
ATOM     19  C   UNL     1      -2.640  10.379  15.842  0.00  0.00    +0.000 A 
ENDBRANCH  12  14
ENDBRANCH  10  12
ENDBRANCH   7   8
BRANCH   1  20
ATOM     20  C   UNL     1       3.179   6.351  19.446  0.00  0.00    +0.000 C 
BRANCH  20  23
ATOM     21  C   UNL     1       5.469   5.812  18.606  0.00  0.00    +0.000 C 
ATOM     22  O   UNL     1       5.825   5.287  19.662  0.00  0.00    +0.000 OA
ATOM     23  N   UNL     1       4.223   6.349  18.422  0.00  0.00    +0.000 N 
ATOM     24  H   UNL     1       4.079   6.864  17.556  0.00  0.00    +0.000 HD
BRANCH  21  25
ATOM     25  C   UNL     1       6.430   5.956  17.398  0.00  0.00    +0.000 C 
ATOM     26  C   UNL     1       6.915   7.402  17.332  0.00  0.00    +0.000 C 
BRANCH  25  28
ATOM     27  C   UNL     1       6.626   4.901  15.198  0.00  0.00    +0.000 C 
ATOM     28  N   UNL     1       5.725   5.529  16.162  0.00  0.00    +0.000 NA
ATOM     29  H   UNL     1       5.026   4.833  16.435  0.00  0.00    +0.000 HD
ENDBRANCH  25  28
ENDBRANCH  21  25
ENDBRANCH  20  23
BRANCH  20  30
ATOM     30  C   UNL     1       2.471   4.961  19.461  0.00  0.00    +0.000 C 
ATOM     31  C   UNL     1       1.356   4.916  20.512  0.00  0.00    +0.000 C 
ATOM     32  C   UNL     1       1.877   4.590  18.094  0.00  0.00    +0.000 C 
ENDBRANCH  20  30
ENDBRANCH   1  20
TORSDOF 8
ENDMDL
MODEL 6
REMARK VINA RESULT:      -6.7      0.956      1.283
REMARK  Name = 
REMARK  12 active torsions:
REMARK  status: ('A' for Active; 'I' for Inactive)
REMARK    1  A    between atoms: C_1  and  N_2
REMARK    2  A    between atoms: N_2  and  C_3
REMARK    3  A    between atoms: C_3  and  C_4
REMARK    4  A    between atoms: C_3  and  C_5
REMARK    5  A    between atoms: N_7  and  C_8
REMARK    6  A    between atoms: C_8  and  C_9
REMARK    7  A    between atoms: C_8  and  C_26
REMARK    8  A    between atoms: C_15  and  C_16
REMARK    9  A    between atoms: N_18  and  N_19
REMARK   10  A    between atoms: N_19  and  C_20
REMARK   11  A    between atoms: C_26  and  C_27
REMARK   12  A    between atoms: C_26  and  C_28
REMARK                            x       y       z     vdW  Elec       q    Type
REMARK                         _______ _______ _______ _____ _____    ______ ____
ROOT
ATOM      1  C   UNL     1       2.055   7.874  18.827  0.00  0.00    +0.000 C 
ATOM      2  O   UNL     1       1.947   8.207  17.641  0.00  0.00    +0.000 OA
ATOM      3  N   UNL     1       1.413   8.597  19.807  0.00  0.00    +0.000 N 
ATOM      4  C   UNL     1       1.466   8.401  21.242  0.00  0.00    +0.000 C 
ATOM      5  C   UNL     1       0.010   8.543  21.649  0.00  0.00    +0.000 C 
ATOM      6  C   UNL     1      -0.507   9.663  20.753  0.00  0.00    +0.000 C 
ATOM      7  C   UNL     1       0.354   9.577  19.480  0.00  0.00    +0.000 C 
ENDROOT
BRANCH   7   8
ATOM      8  C   UNL     1       0.924  10.975  19.103  0.00  0.00    +0.000 C 
ATOM      9  O   UNL     1       2.040  11.359  19.459  0.00  0.00    +0.000 OA
ATOM     10  N   UNL     1       0.148  11.773  18.281  0.00  0.00    +0.000 N 
ATOM     11  H   UNL     1       0.528  12.646  17.933  0.00  0.00    +0.000 HD
BRANCH  10  12
ATOM     12  N   UNL     1      -1.030  11.260  17.741  0.00  0.00    +0.000 N 
ATOM     13  H   UNL     1      -1.142  11.575  16.760  0.00  0.00    +0.000 HD
BRANCH  12  14
ATOM     14  C   UNL     1      -2.255  11.557  18.381  0.00  0.00    +0.000 A 
ATOM     15  C   UNL     1      -2.187  12.404  19.505  0.00  0.00    +0.000 A 
ATOM     16  C   UNL     1      -3.332  12.867  20.142  0.00  0.00    +0.000 A 
ATOM     17  C   UNL     1      -4.578  12.504  19.642  0.00  0.00    +0.000 A 
ATOM     18  C   UNL     1      -4.664  11.683  18.512  0.00  0.00    +0.000 A 
ATOM     19  C   UNL     1      -3.507  11.222  17.874  0.00  0.00    +0.000 A 
ENDBRANCH  12  14
ENDBRANCH  10  12
ENDBRANCH   7   8
BRANCH   1  20
ATOM     20  C   UNL     1       2.943   6.653  19.168  0.00  0.00    +0.000 C 
BRANCH  20  23
ATOM     21  C   UNL     1       5.137   5.901  18.243  0.00  0.00    +0.000 C 
ATOM     22  O   UNL     1       5.545   5.477  19.325  0.00  0.00    +0.000 OA
ATOM     23  N   UNL     1       3.908   6.482  18.082  0.00  0.00    +0.000 N 
ATOM     24  H   UNL     1       3.725   6.905  17.175  0.00  0.00    +0.000 HD
BRANCH  21  25
ATOM     25  C   UNL     1       6.014   5.858  16.964  0.00  0.00    +0.000 C 
ATOM     26  C   UNL     1       7.131   4.838  17.174  0.00  0.00    +0.000 C 
BRANCH  25  28
ATOM     27  C   UNL     1       7.630   7.596  17.567  0.00  0.00    +0.000 C 
ATOM     28  N   UNL     1       6.528   7.224  16.682  0.00  0.00    +0.000 NA
ATOM     29  H   UNL     1       6.884   7.223  15.723  0.00  0.00    +0.000 HD
ENDBRANCH  25  28
ENDBRANCH  21  25
ENDBRANCH  20  23
BRANCH  20  30
ATOM     30  C   UNL     1       2.056   5.375  19.275  0.00  0.00    +0.000 C 
ATOM     31  C   UNL     1       2.068   4.579  17.965  0.00  0.00    +0.000 C 
ATOM     32  C   UNL     1       2.496   4.449  20.419  0.00  0.00    +0.000 C 
ENDBRANCH  20  30
ENDBRANCH   1  20
TORSDOF 8
ENDMDL
MODEL 7
REMARK VINA RESULT:      -6.5      3.115      5.247
REMARK  Name = 
REMARK  12 active torsions:
REMARK  status: ('A' for Active; 'I' for Inactive)
REMARK    1  A    between atoms: C_1  and  N_2
REMARK    2  A    between atoms: N_2  and  C_3
REMARK    3  A    between atoms: C_3  and  C_4
REMARK    4  A    between atoms: C_3  and  C_5
REMARK    5  A    between atoms: N_7  and  C_8
REMARK    6  A    between atoms: C_8  and  C_9
REMARK    7  A    between atoms: C_8  and  C_26
REMARK    8  A    between atoms: C_15  and  C_16
REMARK    9  A    between atoms: N_18  and  N_19
REMARK   10  A    between atoms: N_19  and  C_20
REMARK   11  A    between atoms: C_26  and  C_27
REMARK   12  A    between atoms: C_26  and  C_28
REMARK                            x       y       z     vdW  Elec       q    Type
REMARK                         _______ _______ _______ _____ _____    ______ ____
ROOT
ATOM      1  C   UNL     1       4.300   5.177  18.193  0.00  0.00    +0.000 C 
ATOM      2  O   UNL     1       4.135   6.353  18.536  0.00  0.00    +0.000 OA
ATOM      3  N   UNL     1       3.405   4.210  18.595  0.00  0.00    +0.000 N 
ATOM      4  C   UNL     1       3.461   2.783  18.346  0.00  0.00    +0.000 C 
ATOM      5  C   UNL     1       2.029   2.460  17.956  0.00  0.00    +0.000 C 
ATOM      6  C   UNL     1       1.196   3.342  18.881  0.00  0.00    +0.000 C 
ATOM      7  C   UNL     1       2.088   4.562  19.169  0.00  0.00    +0.000 C 
ENDROOT
BRANCH   7   8
ATOM      8  C   UNL     1       2.155   4.849  20.696  0.00  0.00    +0.000 C 
ATOM      9  O   UNL     1       2.351   3.965  21.534  0.00  0.00    +0.000 OA
ATOM     10  N   UNL     1       2.051   6.169  21.097  0.00  0.00    +0.000 N 
ATOM     11  H   UNL     1       2.191   6.405  22.072  0.00  0.00    +0.000 HD
BRANCH  10  12
ATOM     12  N   UNL     1       2.010   7.176  20.134  0.00  0.00    +0.000 N 
ATOM     13  H   UNL     1       2.969   7.411  19.820  0.00  0.00    +0.000 HD
BRANCH  12  14
ATOM     14  C   UNL     1       1.402   8.408  20.467  0.00  0.00    +0.000 A 
ATOM     15  C   UNL     1       1.146   9.291  19.400  0.00  0.00    +0.000 A 
ATOM     16  C   UNL     1       0.443  10.475  19.585  0.00  0.00    +0.000 A 
ATOM     17  C   UNL     1      -0.040  10.786  20.851  0.00  0.00    +0.000 A 
ATOM     18  C   UNL     1       0.185   9.909  21.918  0.00  0.00    +0.000 A 
ATOM     19  C   UNL     1       0.892   8.716  21.725  0.00  0.00    +0.000 A 
ENDBRANCH  12  14
ENDBRANCH  10  12
ENDBRANCH   7   8
BRANCH   1  20
ATOM     20  C   UNL     1       5.539   4.830  17.334  0.00  0.00    +0.000 C 
BRANCH  20  23
ATOM     21  C   UNL     1       7.510   6.104  18.189  0.00  0.00    +0.000 C 
ATOM     22  O   UNL     1       7.814   5.244  19.017  0.00  0.00    +0.000 OA
ATOM     23  N   UNL     1       6.434   5.987  17.349  0.00  0.00    +0.000 N 
ATOM     24  H   UNL     1       6.206   6.808  16.794  0.00  0.00    +0.000 HD
BRANCH  21  25
ATOM     25  C   UNL     1       8.299   7.433  18.061  0.00  0.00    +0.000 C 
ATOM     26  C   UNL     1       8.722   7.883  19.457  0.00  0.00    +0.000 C 
BRANCH  25  28
ATOM     27  C   UNL     1       7.841   9.808  17.683  0.00  0.00    +0.000 C 
ATOM     28  N   UNL     1       7.451   8.436  17.365  0.00  0.00    +0.000 NA
ATOM     29  H   UNL     1       7.581   8.300  16.360  0.00  0.00    +0.000 HD
ENDBRANCH  25  28
ENDBRANCH  21  25
ENDBRANCH  20  23
BRANCH  20  30
ATOM     30  C   UNL     1       5.095   4.544  15.866  0.00  0.00    +0.000 C 
ATOM     31  C   UNL     1       5.162   5.811  15.007  0.00  0.00    +0.000 C 
ATOM     32  C   UNL     1       5.943   3.450  15.199  0.00  0.00    +0.000 C 
ENDBRANCH  20  30
ENDBRANCH   1  20
TORSDOF 8
ENDMDL
MODEL 8
REMARK VINA RESULT:      -6.5      0.966      1.476
REMARK  Name = 
REMARK  12 active torsions:
REMARK  status: ('A' for Active; 'I' for Inactive)
REMARK    1  A    between atoms: C_1  and  N_2
REMARK    2  A    between atoms: N_2  and  C_3
REMARK    3  A    between atoms: C_3  and  C_4
REMARK    4  A    between atoms: C_3  and  C_5
REMARK    5  A    between atoms: N_7  and  C_8
REMARK    6  A    between atoms: C_8  and  C_9
REMARK    7  A    between atoms: C_8  and  C_26
REMARK    8  A    between atoms: C_15  and  C_16
REMARK    9  A    between atoms: N_18  and  N_19
REMARK   10  A    between atoms: N_19  and  C_20
REMARK   11  A    between atoms: C_26  and  C_27
REMARK   12  A    between atoms: C_26  and  C_28
REMARK                            x       y       z     vdW  Elec       q    Type
REMARK                         _______ _______ _______ _____ _____    ______ ____
ROOT
ATOM      1  C   UNL     1       2.133   7.478  18.854  0.00  0.00    +0.000 C 
ATOM      2  O   UNL     1       1.819   7.590  17.665  0.00  0.00    +0.000 OA
ATOM      3  N   UNL     1       1.624   8.354  19.788  0.00  0.00    +0.000 N 
ATOM      4  C   UNL     1       1.918   8.420  21.205  0.00  0.00    +0.000 C 
ATOM      5  C   UNL     1       0.542   8.607  21.819  0.00  0.00    +0.000 C 
ATOM      6  C   UNL     1      -0.166   9.538  20.841  0.00  0.00    +0.000 C 
ATOM      7  C   UNL     1       0.481   9.240  19.476  0.00  0.00    +0.000 C 
ENDROOT
BRANCH   7   8
ATOM      8  C   UNL     1       0.915  10.557  18.772  0.00  0.00    +0.000 C 
ATOM      9  O   UNL     1       2.076  10.774  18.417  0.00  0.00    +0.000 OA
ATOM     10  N   UNL     1      -0.078  11.478  18.487  0.00  0.00    +0.000 N 
ATOM     11  H   UNL     1       0.149  12.301  17.940  0.00  0.00    +0.000 HD
BRANCH  10  12
ATOM     12  N   UNL     1      -1.410  11.147  18.730  0.00  0.00    +0.000 N 
ATOM     13  H   UNL     1      -1.468  10.245  19.236  0.00  0.00    +0.000 HD
BRANCH  12  14
ATOM     14  C   UNL     1      -2.290  11.028  17.631  0.00  0.00    +0.000 A 
ATOM     15  C   UNL     1      -1.945  10.077  16.650  0.00  0.00    +0.000 A 
ATOM     16  C   UNL     1      -2.792   9.782  15.589  0.00  0.00    +0.000 A 
ATOM     17  C   UNL     1      -4.023  10.423  15.505  0.00  0.00    +0.000 A 
ATOM     18  C   UNL     1      -4.392  11.353  16.484  0.00  0.00    +0.000 A 
ATOM     19  C   UNL     1      -3.535  11.645  17.552  0.00  0.00    +0.000 A 
ENDBRANCH  12  14
ENDBRANCH  10  12
ENDBRANCH   7   8
BRANCH   1  20
ATOM     20  C   UNL     1       3.121   6.355  19.250  0.00  0.00    +0.000 C 
BRANCH  20  23
ATOM     21  C   UNL     1       5.342   5.645  18.354  0.00  0.00    +0.000 C 
ATOM     22  O   UNL     1       5.713   5.158  19.423  0.00  0.00    +0.000 OA
ATOM     23  N   UNL     1       4.120   6.240  18.188  0.00  0.00    +0.000 N 
ATOM     24  H   UNL     1       3.968   6.715  17.301  0.00  0.00    +0.000 HD
BRANCH  21  25
ATOM     25  C   UNL     1       6.259   5.672  17.104  0.00  0.00    +0.000 C 
ATOM     26  C   UNL     1       7.492   4.816  17.387  0.00  0.00    +0.000 C 
BRANCH  25  28
ATOM     27  C   UNL     1       7.669   7.603  17.628  0.00  0.00    +0.000 C 
ATOM     28  N   UNL     1       6.599   7.082  16.781  0.00  0.00    +0.000 NA
ATOM     29  H   UNL     1       6.930   7.101  15.813  0.00  0.00    +0.000 HD
ENDBRANCH  25  28
ENDBRANCH  21  25
ENDBRANCH  20  23
BRANCH  20  30
ATOM     30  C   UNL     1       2.353   5.003  19.380  0.00  0.00    +0.000 C 
ATOM     31  C   UNL     1       1.269   5.082  20.461  0.00  0.00    +0.000 C 
ATOM     32  C   UNL     1       1.702   4.567  18.059  0.00  0.00    +0.000 C 
ENDBRANCH  20  30
ENDBRANCH   1  20
TORSDOF 8
ENDMDL
MODEL 9
REMARK VINA RESULT:      -6.4      2.988      5.355
REMARK  Name = 
REMARK  12 active torsions:
REMARK  status: ('A' for Active; 'I' for Inactive)
REMARK    1  A    between atoms: C_1  and  N_2
REMARK    2  A    between atoms: N_2  and  C_3
REMARK    3  A    between atoms: C_3  and  C_4
REMARK    4  A    between atoms: C_3  and  C_5
REMARK    5  A    between atoms: N_7  and  C_8
REMARK    6  A    between atoms: C_8  and  C_9
REMARK    7  A    between atoms: C_8  and  C_26
REMARK    8  A    between atoms: C_15  and  C_16
REMARK    9  A    between atoms: N_18  and  N_19
REMARK   10  A    between atoms: N_19  and  C_20
REMARK   11  A    between atoms: C_26  and  C_27
REMARK   12  A    between atoms: C_26  and  C_28
REMARK                            x       y       z     vdW  Elec       q    Type
REMARK                         _______ _______ _______ _____ _____    ______ ____
ROOT
ATOM      1  C   UNL     1       4.517   6.218  18.227  0.00  0.00    +0.000 C 
ATOM      2  O   UNL     1       4.061   7.283  18.658  0.00  0.00    +0.000 OA
ATOM      3  N   UNL     1       3.821   5.044  18.417  0.00  0.00    +0.000 N 
ATOM      4  C   UNL     1       4.216   3.700  18.043  0.00  0.00    +0.000 C 
ATOM      5  C   UNL     1       2.939   3.136  17.445  0.00  0.00    +0.000 C 
ATOM      6  C   UNL     1       1.841   3.706  18.336  0.00  0.00    +0.000 C 
ATOM      7  C   UNL     1       2.407   5.042  18.851  0.00  0.00    +0.000 C 
ENDROOT
BRANCH   7   8
ATOM      8  C   UNL     1       2.251   5.149  20.395  0.00  0.00    +0.000 C 
ATOM      9  O   UNL     1       2.541   4.228  21.161  0.00  0.00    +0.000 OA
ATOM     10  N   UNL     1       1.827   6.364  20.904  0.00  0.00    +0.000 N 
ATOM     11  H   UNL     1       1.810   6.504  21.908  0.00  0.00    +0.000 HD
BRANCH  10  12
ATOM     12  N   UNL     1       1.673   7.451  20.045  0.00  0.00    +0.000 N 
ATOM     13  H   UNL     1       2.583   7.699  19.615  0.00  0.00    +0.000 HD
BRANCH  12  14
ATOM     14  C   UNL     1       1.153   8.658  20.566  0.00  0.00    +0.000 A 
ATOM     15  C   UNL     1       0.865   9.673  19.632  0.00  0.00    +0.000 A 
ATOM     16  C   UNL     1       0.238  10.854  20.007  0.00  0.00    +0.000 A 
ATOM     17  C   UNL     1      -0.138  11.030  21.335  0.00  0.00    +0.000 A 
ATOM     18  C   UNL     1       0.119  10.022  22.271  0.00  0.00    +0.000 A 
ATOM     19  C   UNL     1       0.750   8.834  21.886  0.00  0.00    +0.000 A 
ENDBRANCH  12  14
ENDBRANCH  10  12
ENDBRANCH   7   8
BRANCH   1  20
ATOM     20  C   UNL     1       5.884   6.244  17.503  0.00  0.00    +0.000 C 
BRANCH  20  23
ATOM     21  C   UNL     1       5.579   5.530  15.129  0.00  0.00    +0.000 C 
ATOM     22  O   UNL     1       5.333   6.669  14.729  0.00  0.00    +0.000 OA
ATOM     23  N   UNL     1       5.848   5.240  16.440  0.00  0.00    +0.000 N 
ATOM     24  H   UNL     1       5.915   4.253  16.677  0.00  0.00    +0.000 HD
BRANCH  21  25
ATOM     25  C   UNL     1       5.553   4.305  14.178  0.00  0.00    +0.000 C 
ATOM     26  C   UNL     1       5.698   3.037  15.015  0.00  0.00    +0.000 C 
BRANCH  25  28
ATOM     27  C   UNL     1       6.532   3.460  12.100  0.00  0.00    +0.000 C 
ATOM     28  N   UNL     1       6.632   4.453  13.166  0.00  0.00    +0.000 NA
ATOM     29  H   UNL     1       6.526   5.378  12.742  0.00  0.00    +0.000 HD
ENDBRANCH  25  28
ENDBRANCH  21  25
ENDBRANCH  20  23
BRANCH  20  30
ATOM     30  C   UNL     1       7.018   5.884  18.511  0.00  0.00    +0.000 C 
ATOM     31  C   UNL     1       7.754   4.608  18.088  0.00  0.00    +0.000 C 
ATOM     32  C   UNL     1       8.043   7.016  18.670  0.00  0.00    +0.000 C 
ENDBRANCH  20  30
ENDBRANCH   1  20
TORSDOF 8
ENDMDL
