MODEL 1
REMARK VINA RESULT:      -6.1      0.000      0.000
REMARK  Name = 
REMARK  6 active torsions:
REMARK  status: ('A' for Active; 'I' for Inactive)
REMARK    1  A    between atoms: C_1  and  C_2
REMARK    2  A    between atoms: C_2  and  O_3
REMARK    3  A    between atoms: O_3  and  C_4
REMARK    4  A    between atoms: C_4  and  C_5
REMARK    5  A    between atoms: C_5  and  C_6
REMARK    6  A    between atoms: C_13  and  C_14
REMARK                            x       y       z     vdW  Elec       q    Type
REMARK                         _______ _______ _______ _____ _____    ______ ____
ROOT
ATOM      1  C   UNL     1       6.994   5.805  16.873  0.00  0.00    +0.000 C 
ATOM      2  O   UNL     1       7.629   6.808  16.560  0.00  0.00    +0.000 OA
ATOM      3  N   UNL     1       6.622   4.772  16.050  0.00  0.00    +0.000 N 
ATOM      4  C   UNL     1       6.903   4.684  14.694  0.00  0.00    +0.000 A 
ATOM      5  N   UNL     1       7.820   5.481  14.136  0.00  0.00    +0.000 NA
ATOM      6  C   UNL     1       7.996   5.376  12.811  0.00  0.00    +0.000 A 
ATOM      7  C   UNL     1       7.287   4.504  12.025  0.00  0.00    +0.000 A 
ATOM      8  C   UNL     1       6.375   3.706  12.681  0.00  0.00    +0.000 A 
ATOM      9  C   UNL     1       5.517   2.744  11.916  0.00  0.00    +0.000 C 
ATOM     10  N   UNL     1       6.189   3.768  14.020  0.00  0.00    +0.000 NA
ATOM     11  H   UNL     1       5.947   4.094  16.384  0.00  0.00    +0.000 HD
ENDROOT
BRANCH   1  12
ATOM     12  C   UNL     1       6.549   5.618  18.310  0.00  0.00    +0.000 C 
BRANCH  12  13
ATOM     13  C   UNL     1       5.076   5.257  18.411  0.00  0.00    +0.000 C 
BRANCH  13  14
ATOM     14  O   UNL     1       4.918   3.858  18.148  0.00  0.00    +0.000 OA
BRANCH  14  16
ATOM     15  C   UNL     1       2.765   4.826  17.798  0.00  0.00    +0.000 C 
ATOM     16  C   UNL     1       3.572   3.543  17.792  0.00  0.00    +0.000 C 
ENDBRANCH  14  16
ENDBRANCH  13  14
ENDBRANCH  12  13
ENDBRANCH   1  12
TORSDOF 4
ENDMDL
MODEL 2
REMARK VINA RESULT:      -6.0      3.209      6.129
REMARK  Name = 
REMARK  6 active torsions:
REMARK  status: ('A' for Active; 'I' for Inactive)
REMARK    1  A    between atoms: C_1  and  C_2
REMARK    2  A    between atoms: C_2  and  O_3
REMARK    3  A    between atoms: O_3  and  C_4
REMARK    4  A    between atoms: C_4  and  C_5
REMARK    5  A    between atoms: C_5  and  C_6
REMARK    6  A    between atoms: C_13  and  C_14
REMARK                            x       y       z     vdW  Elec       q    Type
REMARK                         _______ _______ _______ _____ _____    ______ ____
ROOT
ATOM      1  C   UNL     1       5.552   4.061  16.736  0.00  0.00    +0.000 C 
ATOM      2  O   UNL     1       4.813   4.030  15.756  0.00  0.00    +0.000 OA
ATOM      3  N   UNL     1       5.241   3.683  18.018  0.00  0.00    +0.000 N 
ATOM      4  C   UNL     1       4.011   3.193  18.435  0.00  0.00    +0.000 A 
ATOM      5  N   UNL     1       3.105   2.780  17.543  0.00  0.00    +0.000 NA
ATOM      6  C   UNL     1       1.919   2.374  18.020  0.00  0.00    +0.000 A 
ATOM      7  C   UNL     1       1.608   2.367  19.355  0.00  0.00    +0.000 A 
ATOM      8  C   UNL     1       2.604   2.791  20.209  0.00  0.00    +0.000 A 
ATOM      9  C   UNL     1       2.360   2.862  21.686  0.00  0.00    +0.000 C 
ATOM     10  N   UNL     1       3.820   3.185  19.764  0.00  0.00    +0.000 NA
ATOM     11  H   UNL     1       5.874   3.925  18.772  0.00  0.00    +0.000 HD
ENDROOT
BRANCH   1  12
ATOM     12  C   UNL     1       6.979   4.549  16.583  0.00  0.00    +0.000 C 
BRANCH  12  13
ATOM     13  C   UNL     1       7.648   4.792  17.926  0.00  0.00    +0.000 C 
BRANCH  13  14
ATOM     14  O   UNL     1       7.115   5.990  18.505  0.00  0.00    +0.000 OA
BRANCH  14  16
ATOM     15  C   UNL     1       7.742   8.094  17.570  0.00  0.00    +0.000 C 
ATOM     16  C   UNL     1       8.101   7.018  18.576  0.00  0.00    +0.000 C 
ENDBRANCH  14  16
ENDBRANCH  13  14
ENDBRANCH  12  13
ENDBRANCH   1  12
TORSDOF 4
ENDMDL
MODEL 3
REMARK VINA RESULT:      -5.9      2.716      6.100
REMARK  Name = 
REMARK  6 active torsions:
REMARK  status: ('A' for Active; 'I' for Inactive)
REMARK    1  A    between atoms: C_1  and  C_2
REMARK    2  A    between atoms: C_2  and  O_3
REMARK    3  A    between atoms: O_3  and  C_4
REMARK    4  A    between atoms: C_4  and  C_5
REMARK    5  A    between atoms: C_5  and  C_6
REMARK    6  A    between atoms: C_13  and  C_14
REMARK                            x       y       z     vdW  Elec       q    Type
REMARK                         _______ _______ _______ _____ _____    ______ ____
ROOT
ATOM      1  C   UNL     1       5.978   4.813  18.685  0.00  0.00    +0.000 C 
ATOM      2  O   UNL     1       6.202   5.342  19.770  0.00  0.00    +0.000 OA
ATOM      3  N   UNL     1       4.792   4.273  18.257  0.00  0.00    +0.000 N 
ATOM      4  C   UNL     1       3.617   4.229  18.995  0.00  0.00    +0.000 A 
ATOM      5  N   UNL     1       3.475   4.977  20.094  0.00  0.00    +0.000 NA
ATOM      6  C   UNL     1       2.334   4.837  20.785  0.00  0.00    +0.000 A 
ATOM      7  C   UNL     1       1.332   3.976  20.416  0.00  0.00    +0.000 A 
ATOM      8  C   UNL     1       1.551   3.256  19.262  0.00  0.00    +0.000 A 
ATOM      9  C   UNL     1       0.540   2.256  18.787  0.00  0.00    +0.000 C 
ATOM     10  N   UNL     1       2.679   3.389  18.527  0.00  0.00    +0.000 NA
ATOM     11  H   UNL     1       4.781   3.705  17.417  0.00  0.00    +0.000 HD
ENDROOT
BRANCH   1  12
ATOM     12  C   UNL     1       7.086   4.722  17.653  0.00  0.00    +0.000 C 
BRANCH  12  13
ATOM     13  C   UNL     1       7.217   5.999  16.839  0.00  0.00    +0.000 C 
BRANCH  13  14
ATOM     14  O   UNL     1       7.202   5.669  15.445  0.00  0.00    +0.000 OA
BRANCH  14  16
ATOM     15  C   UNL     1       6.340   4.152  13.817  0.00  0.00    +0.000 C 
ATOM     16  C   UNL     1       6.850   4.302  15.236  0.00  0.00    +0.000 C 
ENDBRANCH  14  16
ENDBRANCH  13  14
ENDBRANCH  12  13
ENDBRANCH   1  12
TORSDOF 4
ENDMDL
MODEL 4
REMARK VINA RESULT:      -5.6      2.772      6.062
REMARK  Name = 
REMARK  6 active torsions:
REMARK  status: ('A' for Active; 'I' for Inactive)
REMARK    1  A    between atoms: C_1  and  C_2
REMARK    2  A    between atoms: C_2  and  O_3
REMARK    3  A    between atoms: O_3  and  C_4
REMARK    4  A    between atoms: C_4  and  C_5
REMARK    5  A    between atoms: C_5  and  C_6
REMARK    6  A    between atoms: C_13  and  C_14
REMARK                            x       y       z     vdW  Elec       q    Type
REMARK                         _______ _______ _______ _____ _____    ______ ____
ROOT
ATOM      1  C   UNL     1       5.126   5.849  17.652  0.00  0.00    +0.000 C 
ATOM      2  O   UNL     1       4.359   6.366  16.845  0.00  0.00    +0.000 OA
ATOM      3  N   UNL     1       4.815   4.917  18.609  0.00  0.00    +0.000 N 
ATOM      4  C   UNL     1       3.551   4.390  18.836  0.00  0.00    +0.000 A 
ATOM      5  N   UNL     1       2.576   4.546  17.934  0.00  0.00    +0.000 NA
ATOM      6  C   UNL     1       1.368   4.058  18.249  0.00  0.00    +0.000 A 
ATOM      7  C   UNL     1       1.100   3.421  19.434  0.00  0.00    +0.000 A 
ATOM      8  C   UNL     1       2.164   3.286  20.300  0.00  0.00    +0.000 A 
ATOM      9  C   UNL     1       1.975   2.641  21.640  0.00  0.00    +0.000 C 
ATOM     10  N   UNL     1       3.402   3.744  20.004  0.00  0.00    +0.000 NA
ATOM     11  H   UNL     1       5.494   4.703  19.330  0.00  0.00    +0.000 HD
ENDROOT
BRANCH   1  12
ATOM     12  C   UNL     1       6.594   6.228  17.638  0.00  0.00    +0.000 C 
BRANCH  12  13
ATOM     13  C   UNL     1       7.497   5.015  17.485  0.00  0.00    +0.000 C 
BRANCH  13  14
ATOM     14  O   UNL     1       6.969   4.164  16.462  0.00  0.00    +0.000 OA
BRANCH  14  16
ATOM     15  C   UNL     1       5.998   4.237  14.283  0.00  0.00    +0.000 C 
ATOM     16  C   UNL     1       7.116   4.749  15.169  0.00  0.00    +0.000 C 
ENDBRANCH  14  16
ENDBRANCH  13  14
ENDBRANCH  12  13
ENDBRANCH   1  12
TORSDOF 4
ENDMDL
MODEL 5
REMARK VINA RESULT:      -5.6      3.004      4.760
REMARK  Name = 
REMARK  6 active torsions:
REMARK  status: ('A' for Active; 'I' for Inactive)
REMARK    1  A    between atoms: C_1  and  C_2
REMARK    2  A    between atoms: C_2  and  O_3
REMARK    3  A    between atoms: O_3  and  C_4
REMARK    4  A    between atoms: C_4  and  C_5
REMARK    5  A    between atoms: C_5  and  C_6
REMARK    6  A    between atoms: C_13  and  C_14
REMARK                            x       y       z     vdW  Elec       q    Type
REMARK                         _______ _______ _______ _____ _____    ______ ____
ROOT
ATOM      1  C   UNL     1       2.618   3.796  17.570  0.00  0.00    +0.000 C 
ATOM      2  O   UNL     1       2.929   2.675  17.178  0.00  0.00    +0.000 OA
ATOM      3  N   UNL     1       3.395   4.926  17.544  0.00  0.00    +0.000 N 
ATOM      4  C   UNL     1       4.695   4.996  17.062  0.00  0.00    +0.000 A 
ATOM      5  N   UNL     1       5.197   4.009  16.313  0.00  0.00    +0.000 NA
ATOM      6  C   UNL     1       6.478   4.122  15.932  0.00  0.00    +0.000 A 
ATOM      7  C   UNL     1       7.273   5.186  16.274  0.00  0.00    +0.000 A 
ATOM      8  C   UNL     1       6.673   6.168  17.032  0.00  0.00    +0.000 A 
ATOM      9  C   UNL     1       7.459   7.357  17.496  0.00  0.00    +0.000 C 
ATOM     10  N   UNL     1       5.376   6.099  17.413  0.00  0.00    +0.000 NA
ATOM     11  H   UNL     1       3.094   5.745  18.060  0.00  0.00    +0.000 HD
ENDROOT
BRANCH   1  12
ATOM     12  C   UNL     1       1.236   4.031  18.148  0.00  0.00    +0.000 C 
BRANCH  12  13
ATOM     13  C   UNL     1       0.990   3.200  19.397  0.00  0.00    +0.000 C 
BRANCH  13  14
ATOM     14  O   UNL     1       0.867   4.074  20.525  0.00  0.00    +0.000 OA
BRANCH  14  16
ATOM     15  C   UNL     1       2.498   2.684  21.576  0.00  0.00    +0.000 C 
ATOM     16  C   UNL     1       2.071   4.111  21.290  0.00  0.00    +0.000 C 
ENDBRANCH  14  16
ENDBRANCH  13  14
ENDBRANCH  12  13
ENDBRANCH   1  12
TORSDOF 4
ENDMDL
MODEL 6
REMARK VINA RESULT:      -5.6      3.811      5.171
REMARK  Name = 
REMARK  6 active torsions:
REMARK  status: ('A' for Active; 'I' for Inactive)
REMARK    1  A    between atoms: C_1  and  C_2
REMARK    2  A    between atoms: C_2  and  O_3
REMARK    3  A    between atoms: O_3  and  C_4
REMARK    4  A    between atoms: C_4  and  C_5
REMARK    5  A    between atoms: C_5  and  C_6
REMARK    6  A    between atoms: C_13  and  C_14
REMARK                            x       y       z     vdW  Elec       q    Type
REMARK                         _______ _______ _______ _____ _____    ______ ____
ROOT
ATOM      1  C   UNL     1       3.179   2.950  17.864  0.00  0.00    +0.000 C 
ATOM      2  O   UNL     1       2.793   3.321  16.759  0.00  0.00    +0.000 OA
ATOM      3  N   UNL     1       4.190   3.497  18.613  0.00  0.00    +0.000 N 
ATOM      4  C   UNL     1       4.968   4.584  18.240  0.00  0.00    +0.000 A 
ATOM      5  N   UNL     1       4.596   5.372  17.226  0.00  0.00    +0.000 NA
ATOM      6  C   UNL     1       5.428   6.368  16.889  0.00  0.00    +0.000 A 
ATOM      7  C   UNL     1       6.618   6.604  17.529  0.00  0.00    +0.000 A 
ATOM      8  C   UNL     1       6.917   5.757  18.575  0.00  0.00    +0.000 A 
ATOM      9  C   UNL     1       8.210   5.898  19.321  0.00  0.00    +0.000 C 
ATOM     10  N   UNL     1       6.090   4.757  18.958  0.00  0.00    +0.000 NA
ATOM     11  H   UNL     1       4.533   2.993  19.422  0.00  0.00    +0.000 HD
ENDROOT
BRANCH   1  12
ATOM     12  C   UNL     1       2.502   1.772  18.537  0.00  0.00    +0.000 C 
BRANCH  12  13
ATOM     13  C   UNL     1       1.689   2.196  19.749  0.00  0.00    +0.000 C 
BRANCH  13  14
ATOM     14  O   UNL     1       2.581   2.540  20.815  0.00  0.00    +0.000 OA
BRANCH  14  16
ATOM     15  C   UNL     1       1.532   4.681  20.731  0.00  0.00    +0.000 C 
ATOM     16  C   UNL     1       2.041   3.575  21.634  0.00  0.00    +0.000 C 
ENDBRANCH  14  16
ENDBRANCH  13  14
ENDBRANCH  12  13
ENDBRANCH   1  12
TORSDOF 4
ENDMDL
MODEL 7
REMARK VINA RESULT:      -5.6      3.601      6.264
REMARK  Name = 
REMARK  6 active torsions:
REMARK  status: ('A' for Active; 'I' for Inactive)
REMARK    1  A    between atoms: C_1  and  C_2
REMARK    2  A    between atoms: C_2  and  O_3
REMARK    3  A    between atoms: O_3  and  C_4
REMARK    4  A    between atoms: C_4  and  C_5
REMARK    5  A    between atoms: C_5  and  C_6
REMARK    6  A    between atoms: C_13  and  C_14
REMARK                            x       y       z     vdW  Elec       q    Type
REMARK                         _______ _______ _______ _____ _____    ______ ____
ROOT
ATOM      1  C   UNL     1       5.926   4.660  17.458  0.00  0.00    +0.000 C 
ATOM      2  O   UNL     1       5.778   4.061  16.397  0.00  0.00    +0.000 OA
ATOM      3  N   UNL     1       5.198   4.495  18.609  0.00  0.00    +0.000 N 
ATOM      4  C   UNL     1       4.146   3.606  18.774  0.00  0.00    +0.000 A 
ATOM      5  N   UNL     1       3.941   2.623  17.890  0.00  0.00    +0.000 NA
ATOM      6  C   UNL     1       2.871   1.839  18.086  0.00  0.00    +0.000 A 
ATOM      7  C   UNL     1       1.999   2.004  19.132  0.00  0.00    +0.000 A 
ATOM      8  C   UNL     1       2.293   3.028  20.006  0.00  0.00    +0.000 A 
ATOM      9  C   UNL     1       1.386   3.324  21.162  0.00  0.00    +0.000 C 
ATOM     10  N   UNL     1       3.377   3.823  19.853  0.00  0.00    +0.000 NA
ATOM     11  H   UNL     1       5.296   5.173  19.357  0.00  0.00    +0.000 HD
ENDROOT
BRANCH   1  12
ATOM     12  C   UNL     1       7.020   5.702  17.583  0.00  0.00    +0.000 C 
BRANCH  12  13
ATOM     13  C   UNL     1       6.532   7.093  17.211  0.00  0.00    +0.000 C 
BRANCH  13  14
ATOM     14  O   UNL     1       7.662   7.955  17.037  0.00  0.00    +0.000 OA
BRANCH  14  16
ATOM     15  C   UNL     1       8.633   9.710  18.331  0.00  0.00    +0.000 C 
ATOM     16  C   UNL     1       8.305   8.230  18.280  0.00  0.00    +0.000 C 
ENDBRANCH  14  16
ENDBRANCH  13  14
ENDBRANCH  12  13
ENDBRANCH   1  12
TORSDOF 4
ENDMDL
MODEL 8
REMARK VINA RESULT:      -5.6      2.160      5.702
REMARK  Name = 
REMARK  6 active torsions:
REMARK  status: ('A' for Active; 'I' for Inactive)
REMARK    1  A    between atoms: C_1  and  C_2
REMARK    2  A    between atoms: C_2  and  O_3
REMARK    3  A    between atoms: O_3  and  C_4
REMARK    4  A    between atoms: C_4  and  C_5
REMARK    5  A    between atoms: C_5  and  C_6
REMARK    6  A    between atoms: C_13  and  C_14
REMARK                            x       y       z     vdW  Elec       q    Type
REMARK                         _______ _______ _______ _____ _____    ______ ____
ROOT
ATOM      1  C   UNL     1       6.859   4.692  15.372  0.00  0.00    +0.000 C 
ATOM      2  O   UNL     1       7.836   4.636  16.113  0.00  0.00    +0.000 OA
ATOM      3  N   UNL     1       5.546   4.829  15.744  0.00  0.00    +0.000 N 
ATOM      4  C   UNL     1       5.088   4.927  17.050  0.00  0.00    +0.000 A 
ATOM      5  N   UNL     1       5.935   5.183  18.052  0.00  0.00    +0.000 NA
ATOM      6  C   UNL     1       5.426   5.205  19.292  0.00  0.00    +0.000 A 
ATOM      7  C   UNL     1       4.101   4.981  19.566  0.00  0.00    +0.000 A 
ATOM      8  C   UNL     1       3.292   4.743  18.476  0.00  0.00    +0.000 A 
ATOM      9  C   UNL     1       1.835   4.446  18.661  0.00  0.00    +0.000 C 
ATOM     10  N   UNL     1       3.767   4.736  17.209  0.00  0.00    +0.000 NA
ATOM     11  H   UNL     1       4.819   4.680  15.054  0.00  0.00    +0.000 HD
ENDROOT
BRANCH   1  12
ATOM     12  C   UNL     1       7.053   4.618  13.870  0.00  0.00    +0.000 C 
BRANCH  12  13
ATOM     13  C   UNL     1       5.983   3.777  13.195  0.00  0.00    +0.000 C 
BRANCH  13  14
ATOM     14  O   UNL     1       6.562   3.089  12.079  0.00  0.00    +0.000 OA
BRANCH  14  16
ATOM     15  C   UNL     1       6.402   0.948  11.038  0.00  0.00    +0.000 C 
ATOM     16  C   UNL     1       5.637   2.175  11.493  0.00  0.00    +0.000 C 
ENDBRANCH  14  16
ENDBRANCH  13  14
ENDBRANCH  12  13
ENDBRANCH   1  12
TORSDOF 4
ENDMDL
MODEL 9
REMARK VINA RESULT:      -5.5      3.039      6.212
REMARK  Name = 
REMARK  6 active torsions:
REMARK  status: ('A' for Active; 'I' for Inactive)
REMARK    1  A    between atoms: C_1  and  C_2
REMARK    2  A    between atoms: C_2  and  O_3
REMARK    3  A    between atoms: O_3  and  C_4
REMARK    4  A    between atoms: C_4  and  C_5
REMARK    5  A    between atoms: C_5  and  C_6
REMARK    6  A    between atoms: C_13  and  C_14
REMARK                            x       y       z     vdW  Elec       q    Type
REMARK                         _______ _______ _______ _____ _____    ______ ____
ROOT
ATOM      1  C   UNL     1       4.643   6.031  16.808  0.00  0.00    +0.000 C 
ATOM      2  O   UNL     1       4.837   7.165  17.239  0.00  0.00    +0.000 OA
ATOM      3  N   UNL     1       3.800   5.082  17.328  0.00  0.00    +0.000 N 
ATOM      4  C   UNL     1       3.008   5.243  18.457  0.00  0.00    +0.000 A 
ATOM      5  N   UNL     1       2.791   6.459  18.968  0.00  0.00    +0.000 NA
ATOM      6  C   UNL     1       2.063   6.529  20.092  0.00  0.00    +0.000 A 
ATOM      7  C   UNL     1       1.544   5.426  20.721  0.00  0.00    +0.000 A 
ATOM      8  C   UNL     1       1.798   4.213  20.118  0.00  0.00    +0.000 A 
ATOM      9  C   UNL     1       1.314   2.938  20.741  0.00  0.00    +0.000 C 
ATOM     10  N   UNL     1       2.510   4.108  18.972  0.00  0.00    +0.000 NA
ATOM     11  H   UNL     1       3.864   4.128  16.993  0.00  0.00    +0.000 HD
ENDROOT
BRANCH   1  12
ATOM     12  C   UNL     1       5.374   5.568  15.563  0.00  0.00    +0.000 C 
BRANCH  12  13
ATOM     13  C   UNL     1       6.477   4.573  15.884  0.00  0.00    +0.000 C 
BRANCH  13  14
ATOM     14  O   UNL     1       6.510   4.350  17.299  0.00  0.00    +0.000 OA
BRANCH  14  16
ATOM     15  C   UNL     1       7.709   5.734  18.830  0.00  0.00    +0.000 C 
ATOM     16  C   UNL     1       7.809   4.594  17.836  0.00  0.00    +0.000 C 
ENDBRANCH  14  16
ENDBRANCH  13  14
ENDBRANCH  12  13
ENDBRANCH   1  12
TORSDOF 4
ENDMDL
