MODEL 1
REMARK VINA RESULT:      -9.3      0.000      0.000
REMARK  Name = 
REMARK  8 active torsions:
REMARK  status: ('A' for Active; 'I' for Inactive)
REMARK    1  A    between atoms: C_1  and  N_2
REMARK    2  A    between atoms: N_2  and  C_3
REMARK    3  A    between atoms: N_2  and  C_4
REMARK    4  A    between atoms: C_4  and  C_5
REMARK    5  A    between atoms: C_8  and  C_9
REMARK    6  A    between atoms: C_15  and  C_16
REMARK    7  A    between atoms: C_20  and  C_21
REMARK    8  A    between atoms: N_23  and  C_24
REMARK                            x       y       z     vdW  Elec       q    Type
REMARK                         _______ _______ _______ _____ _____    ______ ____
ROOT
ATOM      1  C   UNL     1       4.737   4.471  17.144  0.00  0.00    +0.000 A 
ATOM      2  C   UNL     1       4.707   3.265  17.856  0.00  0.00    +0.000 A 
ATOM      3  C   UNL     1       3.992   3.134  19.054  0.00  0.00    +0.000 A 
ATOM      4  C   UNL     1       3.291   4.254  19.504  0.00  0.00    +0.000 A 
ATOM      5  N   UNL     1       2.508   4.452  20.606  0.00  0.00    +0.000 N 
ATOM      6  N   UNL     1       1.998   5.688  20.710  0.00  0.00    +0.000 NA
ATOM      7  C   UNL     1       2.419   6.317  19.599  0.00  0.00    +0.000 A 
ATOM      8  C   UNL     1       3.275   5.466  18.825  0.00  0.00    +0.000 A 
ATOM      9  C   UNL     1       4.027   5.578  17.635  0.00  0.00    +0.000 A 
ATOM     10  H   UNL     1       2.284   3.780  21.332  0.00  0.00    +0.000 HD
ENDROOT
BRANCH   1  14
ATOM     11  C   UNL     1       6.274   4.371  13.933  0.00  0.00    +0.000 A 
ATOM     12  N   UNL     1       6.924   5.448  14.400  0.00  0.00    +0.000 NA
ATOM     13  N   UNL     1       6.388   5.573  15.623  0.00  0.00    +0.000 N 
ATOM     14  C   UNL     1       5.468   4.596  15.885  0.00  0.00    +0.000 A 
ATOM     15  N   UNL     1       5.367   3.830  14.816  0.00  0.00    +0.000 NA
ATOM     16  H   UNL     1       6.682   6.337  16.217  0.00  0.00    +0.000 HD
BRANCH  11  17
ATOM     17  C   UNL     1       6.521   3.820  12.555  0.00  0.00    +0.000 C 
BRANCH  17  19
ATOM     18  C   UNL     1       4.406   3.315  11.467  0.00  0.00    +0.000 C 
ATOM     19  N   UNL     1       5.556   2.760  12.183  0.00  0.00    +0.000 NA
ATOM     20  C   UNL     1       6.223   1.755  11.355  0.00  0.00    +0.000 C 
ENDBRANCH  17  19
ENDBRANCH  11  17
ENDBRANCH   1  14
BRANCH   7  21
ATOM     21  C   UNL     1       2.012   7.693  19.307  0.00  0.00    +0.000 A 
ATOM     22  C   UNL     1       2.226   8.236  18.029  0.00  0.00    +0.000 A 
ATOM     23  C   UNL     1       1.880   9.552  17.741  0.00  0.00    +0.000 A 
ATOM     24  C   UNL     1       1.288  10.332  18.726  0.00  0.00    +0.000 A 
ATOM     25  C   UNL     1       1.037   9.804  20.001  0.00  0.00    +0.000 A 
ATOM     26  C   UNL     1       1.389   8.482  20.290  0.00  0.00    +0.000 A 
BRANCH  25  27
ATOM     27  C   UNL     1       0.329  10.685  20.962  0.00  0.00    +0.000 C 
ATOM     28  O   UNL     1       0.809  10.766  22.089  0.00  0.00    +0.000 OA
ATOM     29  N   UNL     1      -0.851  11.281  20.530  0.00  0.00    +0.000 N 
ATOM     30  H   UNL     1      -1.235  10.976  19.648  0.00  0.00    +0.000 HD
BRANCH  29  31
ATOM     31  C   UNL     1      -1.651  12.131  21.329  0.00  0.00    +0.000 A 
ATOM     32  C   UNL     1      -2.138  13.362  20.870  0.00  0.00    +0.000 A 
ATOM     33  C   UNL     1      -2.895  14.193  21.697  0.00  0.00    +0.000 A 
ATOM     34  C   UNL     1      -3.175  13.788  22.992  0.00  0.00    +0.000 A 
ATOM     35  F   UNL     1      -3.893  14.587  23.792  0.00  0.00    +0.000 F 
ATOM     36  C   UNL     1      -2.723  12.562  23.467  0.00  0.00    +0.000 A 
ATOM     37  C   UNL     1      -1.968  11.726  22.633  0.00  0.00    +0.000 A 
ENDBRANCH  29  31
ENDBRANCH  25  27
ENDBRANCH   7  21
TORSDOF 6
ENDMDL
MODEL 2
REMARK VINA RESULT:      -9.2      1.037      1.043
REMARK  Name = 
REMARK  8 active torsions:
REMARK  status: ('A' for Active; 'I' for Inactive)
REMARK    1  A    between atoms: C_1  and  N_2
REMARK    2  A    between atoms: N_2  and  C_3
REMARK    3  A    between atoms: N_2  and  C_4
REMARK    4  A    between atoms: C_4  and  C_5
REMARK    5  A    between atoms: C_8  and  C_9
REMARK    6  A    between atoms: C_15  and  C_16
REMARK    7  A    between atoms: C_20  and  C_21
REMARK    8  A    between atoms: N_23  and  C_24
REMARK                            x       y       z     vdW  Elec       q    Type
REMARK                         _______ _______ _______ _____ _____    ______ ____
ROOT
ATOM      1  C   UNL     1       4.818   4.877  17.487  0.00  0.00    +0.000 A 
ATOM      2  C   UNL     1       4.752   3.718  18.271  0.00  0.00    +0.000 A 
ATOM      3  C   UNL     1       3.957   3.650  19.423  0.00  0.00    +0.000 A 
ATOM      4  C   UNL     1       3.214   4.786  19.752  0.00  0.00    +0.000 A 
ATOM      5  N   UNL     1       2.354   5.039  20.783  0.00  0.00    +0.000 N 
ATOM      6  N   UNL     1       1.824   6.271  20.773  0.00  0.00    +0.000 NA
ATOM      7  C   UNL     1       2.314   6.836  19.657  0.00  0.00    +0.000 A 
ATOM      8  C   UNL     1       3.231   5.952  18.998  0.00  0.00    +0.000 A 
ATOM      9  C   UNL     1       4.063   6.001  17.858  0.00  0.00    +0.000 A 
ATOM     10  H   UNL     1       2.088   4.411  21.533  0.00  0.00    +0.000 HD
ENDROOT
BRANCH   1  14
ATOM     11  C   UNL     1       6.471   4.710  14.338  0.00  0.00    +0.000 A 
ATOM     12  N   UNL     1       7.349   5.522  14.948  0.00  0.00    +0.000 NA
ATOM     13  N   UNL     1       6.789   5.656  16.159  0.00  0.00    +0.000 N 
ATOM     14  C   UNL     1       5.632   4.935  16.276  0.00  0.00    +0.000 A 
ATOM     15  N   UNL     1       5.403   4.339  15.122  0.00  0.00    +0.000 NA
ATOM     16  H   UNL     1       7.233   6.248  16.848  0.00  0.00    +0.000 HD
BRANCH  11  17
ATOM     17  C   UNL     1       6.652   4.260  12.914  0.00  0.00    +0.000 C 
BRANCH  17  19
ATOM     18  C   UNL     1       4.583   3.597  11.822  0.00  0.00    +0.000 C 
ATOM     19  N   UNL     1       5.762   3.132  12.555  0.00  0.00    +0.000 NA
ATOM     20  C   UNL     1       6.500   2.159  11.749  0.00  0.00    +0.000 C 
ENDBRANCH  17  19
ENDBRANCH  11  17
ENDBRANCH   1  14
BRANCH   7  21
ATOM     21  C   UNL     1       1.912   8.185  19.250  0.00  0.00    +0.000 A 
ATOM     22  C   UNL     1       2.457   8.764  18.092  0.00  0.00    +0.000 A 
ATOM     23  C   UNL     1       2.116  10.057  17.708  0.00  0.00    +0.000 A 
ATOM     24  C   UNL     1       1.202  10.775  18.469  0.00  0.00    +0.000 A 
ATOM     25  C   UNL     1       0.622  10.207  19.612  0.00  0.00    +0.000 A 
ATOM     26  C   UNL     1       0.968   8.909  20.000  0.00  0.00    +0.000 A 
BRANCH  25  27
ATOM     27  C   UNL     1      -0.403  11.018  20.315  0.00  0.00    +0.000 C 
ATOM     28  O   UNL     1      -1.417  11.294  19.681  0.00  0.00    +0.000 OA
ATOM     29  N   UNL     1      -0.096  11.457  21.600  0.00  0.00    +0.000 N 
ATOM     30  H   UNL     1       0.849  11.324  21.928  0.00  0.00    +0.000 HD
BRANCH  29  31
ATOM     31  C   UNL     1      -0.955  12.252  22.394  0.00  0.00    +0.000 A 
ATOM     32  C   UNL     1      -0.700  13.604  22.663  0.00  0.00    +0.000 A 
ATOM     33  C   UNL     1      -1.549  14.350  23.480  0.00  0.00    +0.000 A 
ATOM     34  C   UNL     1      -2.669  13.745  24.027  0.00  0.00    +0.000 A 
ATOM     35  F   UNL     1      -3.482  14.455  24.820  0.00  0.00    +0.000 F 
ATOM     36  C   UNL     1      -2.958  12.411  23.760  0.00  0.00    +0.000 A 
ATOM     37  C   UNL     1      -2.107  11.665  22.935  0.00  0.00    +0.000 A 
ENDBRANCH  29  31
ENDBRANCH  25  27
ENDBRANCH   7  21
TORSDOF 6
ENDMDL
MODEL 3
REMARK VINA RESULT:      -9.1      4.731      9.083
REMARK  Name = 
REMARK  8 active torsions:
REMARK  status: ('A' for Active; 'I' for Inactive)
REMARK    1  A    between atoms: C_1  and  N_2
REMARK    2  A    between atoms: N_2  and  C_3
REMARK    3  A    between atoms: N_2  and  C_4
REMARK    4  A    between atoms: C_4  and  C_5
REMARK    5  A    between atoms: C_8  and  C_9
REMARK    6  A    between atoms: C_15  and  C_16
REMARK    7  A    between atoms: C_20  and  C_21
REMARK    8  A    between atoms: N_23  and  C_24
REMARK                            x       y       z     vdW  Elec       q    Type
REMARK                         _______ _______ _______ _____ _____    ______ ____
ROOT
ATOM      1  C   UNL     1       1.682   6.476  20.238  0.00  0.00    +0.000 A 
ATOM      2  C   UNL     1       0.870   5.409  20.641  0.00  0.00    +0.000 A 
ATOM      3  C   UNL     1       1.091   4.102  20.188  0.00  0.00    +0.000 A 
ATOM      4  C   UNL     1       2.170   3.899  19.326  0.00  0.00    +0.000 A 
ATOM      5  N   UNL     1       2.651   2.770  18.724  0.00  0.00    +0.000 N 
ATOM      6  N   UNL     1       3.723   2.972  17.943  0.00  0.00    +0.000 NA
ATOM      7  C   UNL     1       3.994   4.282  18.080  0.00  0.00    +0.000 A 
ATOM      8  C   UNL     1       3.015   4.921  18.912  0.00  0.00    +0.000 A 
ATOM      9  C   UNL     1       2.752   6.233  19.361  0.00  0.00    +0.000 A 
ATOM     10  H   UNL     1       2.288   1.827  18.803  0.00  0.00    +0.000 HD
ENDROOT
BRANCH   1  14
ATOM     11  C   UNL     1       1.019   9.897  20.966  0.00  0.00    +0.000 A 
ATOM     12  N   UNL     1       1.386   9.528  22.203  0.00  0.00    +0.000 NA
ATOM     13  N   UNL     1       1.644   8.224  22.026  0.00  0.00    +0.000 N 
ATOM     14  C   UNL     1       1.459   7.834  20.728  0.00  0.00    +0.000 A 
ATOM     15  N   UNL     1       1.044   8.880  20.041  0.00  0.00    +0.000 NA
ATOM     16  H   UNL     1       1.931   7.664  22.816  0.00  0.00    +0.000 HD
BRANCH  11  17
ATOM     17  C   UNL     1       0.610  11.308  20.640  0.00  0.00    +0.000 C 
BRANCH  17  19
ATOM     18  C   UNL     1      -0.587  12.285  18.761  0.00  0.00    +0.000 C 
ATOM     19  N   UNL     1       0.627  11.584  19.185  0.00  0.00    +0.000 NA
ATOM     20  C   UNL     1       1.807  12.382  18.848  0.00  0.00    +0.000 C 
ENDBRANCH  17  19
ENDBRANCH  11  17
ENDBRANCH   1  14
BRANCH   7  21
ATOM     21  C   UNL     1       5.153   4.889  17.422  0.00  0.00    +0.000 A 
ATOM     22  C   UNL     1       5.501   4.509  16.115  0.00  0.00    +0.000 A 
ATOM     23  C   UNL     1       6.619   5.047  15.485  0.00  0.00    +0.000 A 
ATOM     24  C   UNL     1       7.386   5.994  16.150  0.00  0.00    +0.000 A 
ATOM     25  C   UNL     1       7.041   6.412  17.445  0.00  0.00    +0.000 A 
ATOM     26  C   UNL     1       5.920   5.867  18.078  0.00  0.00    +0.000 A 
BRANCH  25  27
ATOM     27  C   UNL     1       7.872   7.485  18.044  0.00  0.00    +0.000 C 
ATOM     28  O   UNL     1       8.592   7.163  18.985  0.00  0.00    +0.000 OA
ATOM     29  N   UNL     1       7.709   8.772  17.542  0.00  0.00    +0.000 N 
ATOM     30  H   UNL     1       6.944   8.933  16.903  0.00  0.00    +0.000 HD
BRANCH  29  31
ATOM     31  C   UNL     1       8.410   9.905  18.017  0.00  0.00    +0.000 A 
ATOM     32  C   UNL     1       9.329   9.837  19.073  0.00  0.00    +0.000 A 
ATOM     33  C   UNL     1       9.977  10.981  19.541  0.00  0.00    +0.000 A 
ATOM     34  C   UNL     1       9.712  12.202  18.944  0.00  0.00    +0.000 A 
ATOM     35  F   UNL     1      10.325  13.304  19.396  0.00  0.00    +0.000 F 
ATOM     36  C   UNL     1       8.821  12.296  17.880  0.00  0.00    +0.000 A 
ATOM     37  C   UNL     1       8.176  11.146  17.408  0.00  0.00    +0.000 A 
ENDBRANCH  29  31
ENDBRANCH  25  27
ENDBRANCH   7  21
TORSDOF 6
ENDMDL
MODEL 4
REMARK VINA RESULT:      -9.0      0.833      1.022
REMARK  Name = 
REMARK  8 active torsions:
REMARK  status: ('A' for Active; 'I' for Inactive)
REMARK    1  A    between atoms: C_1  and  N_2
REMARK    2  A    between atoms: N_2  and  C_3
REMARK    3  A    between atoms: N_2  and  C_4
REMARK    4  A    between atoms: C_4  and  C_5
REMARK    5  A    between atoms: C_8  and  C_9
REMARK    6  A    between atoms: C_15  and  C_16
REMARK    7  A    between atoms: C_20  and  C_21
REMARK    8  A    between atoms: N_23  and  C_24
REMARK                            x       y       z     vdW  Elec       q    Type
REMARK                         _______ _______ _______ _____ _____    ______ ____
ROOT
ATOM      1  C   UNL     1       4.557   4.382  17.325  0.00  0.00    +0.000 A 
ATOM      2  C   UNL     1       4.567   3.134  17.960  0.00  0.00    +0.000 A 
ATOM      3  C   UNL     1       3.894   2.917  19.170  0.00  0.00    +0.000 A 
ATOM      4  C   UNL     1       3.194   3.995  19.713  0.00  0.00    +0.000 A 
ATOM      5  N   UNL     1       2.445   4.111  20.850  0.00  0.00    +0.000 N 
ATOM      6  N   UNL     1       1.921   5.330  21.048  0.00  0.00    +0.000 NA
ATOM      7  C   UNL     1       2.297   6.034  19.966  0.00  0.00    +0.000 A 
ATOM      8  C   UNL     1       3.138   5.247  19.112  0.00  0.00    +0.000 A 
ATOM      9  C   UNL     1       3.849   5.445  17.908  0.00  0.00    +0.000 A 
ATOM     10  H   UNL     1       2.254   3.392  21.538  0.00  0.00    +0.000 HD
ENDROOT
BRANCH   1  14
ATOM     11  C   UNL     1       6.164   4.424  14.148  0.00  0.00    +0.000 A 
ATOM     12  N   UNL     1       6.339   5.721  14.444  0.00  0.00    +0.000 NA
ATOM     13  N   UNL     1       5.740   5.804  15.641  0.00  0.00    +0.000 N 
ATOM     14  C   UNL     1       5.244   4.598  16.054  0.00  0.00    +0.000 A 
ATOM     15  N   UNL     1       5.488   3.710  15.110  0.00  0.00    +0.000 NA
ATOM     16  H   UNL     1       5.698   6.696  16.114  0.00  0.00    +0.000 HD
BRANCH  11  17
ATOM     17  C   UNL     1       6.663   3.822  12.863  0.00  0.00    +0.000 C 
BRANCH  17  19
ATOM     18  C   UNL     1       4.603   3.439  11.628  0.00  0.00    +0.000 C 
ATOM     19  N   UNL     1       5.735   2.808  12.310  0.00  0.00    +0.000 NA
ATOM     20  C   UNL     1       6.454   1.935  11.381  0.00  0.00    +0.000 C 
ENDBRANCH  17  19
ENDBRANCH  11  17
ENDBRANCH   1  14
BRANCH   7  21
ATOM     21  C   UNL     1       1.862   7.420  19.775  0.00  0.00    +0.000 A 
ATOM     22  C   UNL     1       2.044   8.051  18.534  0.00  0.00    +0.000 A 
ATOM     23  C   UNL     1       1.671   9.378  18.341  0.00  0.00    +0.000 A 
ATOM     24  C   UNL     1       1.084  10.078  19.387  0.00  0.00    +0.000 A 
ATOM     25  C   UNL     1       0.864   9.460  20.626  0.00  0.00    +0.000 A 
ATOM     26  C   UNL     1       1.243   8.128  20.820  0.00  0.00    +0.000 A 
BRANCH  25  27
ATOM     27  C   UNL     1       0.159  10.261  21.657  0.00  0.00    +0.000 C 
ATOM     28  O   UNL     1      -0.022   9.722  22.745  0.00  0.00    +0.000 OA
ATOM     29  N   UNL     1      -0.301  11.520  21.281  0.00  0.00    +0.000 N 
ATOM     30  H   UNL     1      -0.258  11.762  20.302  0.00  0.00    +0.000 HD
BRANCH  29  31
ATOM     31  C   UNL     1      -1.005  12.397  22.138  0.00  0.00    +0.000 A 
ATOM     32  C   UNL     1      -2.259  12.081  22.679  0.00  0.00    +0.000 A 
ATOM     33  C   UNL     1      -2.944  12.984  23.492  0.00  0.00    +0.000 A 
ATOM     34  C   UNL     1      -2.368  14.212  23.776  0.00  0.00    +0.000 A 
ATOM     35  F   UNL     1      -3.026  15.086  24.549  0.00  0.00    +0.000 F 
ATOM     36  C   UNL     1      -1.116  14.544  23.271  0.00  0.00    +0.000 A 
ATOM     37  C   UNL     1      -0.427  13.633  22.459  0.00  0.00    +0.000 A 
ENDBRANCH  29  31
ENDBRANCH  25  27
ENDBRANCH   7  21
TORSDOF 6
ENDMDL
MODEL 5
REMARK VINA RESULT:      -8.9      4.719      9.338
REMARK  Name = 
REMARK  8 active torsions:
REMARK  status: ('A' for Active; 'I' for Inactive)
REMARK    1  A    between atoms: C_1  and  N_2
REMARK    2  A    between atoms: N_2  and  C_3
REMARK    3  A    between atoms: N_2  and  C_4
REMARK    4  A    between atoms: C_4  and  C_5
REMARK    5  A    between atoms: C_8  and  C_9
REMARK    6  A    between atoms: C_15  and  C_16
REMARK    7  A    between atoms: C_20  and  C_21
REMARK    8  A    between atoms: N_23  and  C_24
REMARK                            x       y       z     vdW  Elec       q    Type
REMARK                         _______ _______ _______ _____ _____    ______ ____
ROOT
ATOM      1  C   UNL     1       1.676   6.470  20.278  0.00  0.00    +0.000 A 
ATOM      2  C   UNL     1       0.874   5.395  20.680  0.00  0.00    +0.000 A 
ATOM      3  C   UNL     1       1.101   4.092  20.217  0.00  0.00    +0.000 A 
ATOM      4  C   UNL     1       2.175   3.903  19.346  0.00  0.00    +0.000 A 
ATOM      5  N   UNL     1       2.659   2.782  18.732  0.00  0.00    +0.000 N 
ATOM      6  N   UNL     1       3.724   2.996  17.945  0.00  0.00    +0.000 NA
ATOM      7  C   UNL     1       3.986   4.306  18.088  0.00  0.00    +0.000 A 
ATOM      8  C   UNL     1       3.010   4.933  18.932  0.00  0.00    +0.000 A 
ATOM      9  C   UNL     1       2.741   6.241  19.392  0.00  0.00    +0.000 A 
ATOM     10  H   UNL     1       2.303   1.836  18.807  0.00  0.00    +0.000 HD
ENDROOT
BRANCH   1  14
ATOM     11  C   UNL     1       0.961   9.873  21.043  0.00  0.00    +0.000 A 
ATOM     12  N   UNL     1       1.432   9.523  22.250  0.00  0.00    +0.000 NA
ATOM     13  N   UNL     1       1.718   8.227  22.058  0.00  0.00    +0.000 N 
ATOM     14  C   UNL     1       1.448   7.823  20.780  0.00  0.00    +0.000 A 
ATOM     15  N   UNL     1       0.948   8.852  20.122  0.00  0.00    +0.000 NA
ATOM     16  H   UNL     1       2.081   7.680  22.826  0.00  0.00    +0.000 HD
BRANCH  11  17
ATOM     17  C   UNL     1       0.483  11.268  20.744  0.00  0.00    +0.000 C 
BRANCH  17  19
ATOM     18  C   UNL     1      -1.184  11.986  22.363  0.00  0.00    +0.000 C 
ATOM     19  N   UNL     1      -0.961  11.447  21.020  0.00  0.00    +0.000 NA
ATOM     20  C   UNL     1      -1.548  12.340  20.020  0.00  0.00    +0.000 C 
ENDBRANCH  17  19
ENDBRANCH  11  17
ENDBRANCH   1  14
BRANCH   7  21
ATOM     21  C   UNL     1       5.136   4.926  17.426  0.00  0.00    +0.000 A 
ATOM     22  C   UNL     1       5.478   4.556  16.114  0.00  0.00    +0.000 A 
ATOM     23  C   UNL     1       6.587   5.106  15.480  0.00  0.00    +0.000 A 
ATOM     24  C   UNL     1       7.352   6.055  16.145  0.00  0.00    +0.000 A 
ATOM     25  C   UNL     1       7.013   6.463  17.444  0.00  0.00    +0.000 A 
ATOM     26  C   UNL     1       5.900   5.906  18.082  0.00  0.00    +0.000 A 
BRANCH  25  27
ATOM     27  C   UNL     1       7.840   7.539  18.044  0.00  0.00    +0.000 C 
ATOM     28  O   UNL     1       8.558   7.220  18.988  0.00  0.00    +0.000 OA
ATOM     29  N   UNL     1       7.676   8.825  17.539  0.00  0.00    +0.000 N 
ATOM     30  H   UNL     1       6.912   8.983  16.898  0.00  0.00    +0.000 HD
BRANCH  29  31
ATOM     31  C   UNL     1       8.373   9.960  18.014  0.00  0.00    +0.000 A 
ATOM     32  C   UNL     1       8.238  11.228  17.433  0.00  0.00    +0.000 A 
ATOM     33  C   UNL     1       8.968  12.320  17.903  0.00  0.00    +0.000 A 
ATOM     34  C   UNL     1       9.836  12.147  18.969  0.00  0.00    +0.000 A 
ATOM     35  F   UNL     1      10.547  13.190  19.417  0.00  0.00    +0.000 F 
ATOM     36  C   UNL     1       9.975  10.904  19.578  0.00  0.00    +0.000 A 
ATOM     37  C   UNL     1       9.237   9.810  19.108  0.00  0.00    +0.000 A 
ENDBRANCH  29  31
ENDBRANCH  25  27
ENDBRANCH   7  21
TORSDOF 6
ENDMDL
MODEL 6
REMARK VINA RESULT:      -8.8      4.971      9.608
REMARK  Name = 
REMARK  8 active torsions:
REMARK  status: ('A' for Active; 'I' for Inactive)
REMARK    1  A    between atoms: C_1  and  N_2
REMARK    2  A    between atoms: N_2  and  C_3
REMARK    3  A    between atoms: N_2  and  C_4
REMARK    4  A    between atoms: C_4  and  C_5
REMARK    5  A    between atoms: C_8  and  C_9
REMARK    6  A    between atoms: C_15  and  C_16
REMARK    7  A    between atoms: C_20  and  C_21
REMARK    8  A    between atoms: N_23  and  C_24
REMARK                            x       y       z     vdW  Elec       q    Type
REMARK                         _______ _______ _______ _____ _____    ______ ____
ROOT
ATOM      1  C   UNL     1       1.654   6.677  20.332  0.00  0.00    +0.000 A 
ATOM      2  C   UNL     1       0.872   5.588  20.737  0.00  0.00    +0.000 A 
ATOM      3  C   UNL     1       1.131   4.286  20.289  0.00  0.00    +0.000 A 
ATOM      4  C   UNL     1       2.218   4.112  19.430  0.00  0.00    +0.000 A 
ATOM      5  N   UNL     1       2.732   2.995  18.833  0.00  0.00    +0.000 N 
ATOM      6  N   UNL     1       3.800   3.225  18.054  0.00  0.00    +0.000 NA
ATOM      7  C   UNL     1       4.033   4.542  18.187  0.00  0.00    +0.000 A 
ATOM      8  C   UNL     1       3.034   5.156  19.015  0.00  0.00    +0.000 A 
ATOM      9  C   UNL     1       2.733   6.462  19.459  0.00  0.00    +0.000 A 
ATOM     10  H   UNL     1       2.395   2.043  18.913  0.00  0.00    +0.000 HD
ENDROOT
BRANCH   1  14
ATOM     11  C   UNL     1       0.829  10.061  21.067  0.00  0.00    +0.000 A 
ATOM     12  N   UNL     1       1.377   9.759  22.254  0.00  0.00    +0.000 NA
ATOM     13  N   UNL     1       1.710   8.472  22.072  0.00  0.00    +0.000 N 
ATOM     14  C   UNL     1       1.392   8.029  20.818  0.00  0.00    +0.000 A 
ATOM     15  N   UNL     1       0.814   9.020  20.168  0.00  0.00    +0.000 NA
ATOM     16  H   UNL     1       2.137   7.959  22.831  0.00  0.00    +0.000 HD
BRANCH  11  17
ATOM     17  C   UNL     1       0.274  11.427  20.765  0.00  0.00    +0.000 C 
BRANCH  17  19
ATOM     18  C   UNL     1       0.530  13.704  21.579  0.00  0.00    +0.000 C 
ATOM     19  N   UNL     1       0.266  12.314  21.952  0.00  0.00    +0.000 NA
ATOM     20  C   UNL     1      -1.026  12.216  22.632  0.00  0.00    +0.000 C 
ENDBRANCH  17  19
ENDBRANCH  11  17
ENDBRANCH   1  14
BRANCH   7  21
ATOM     21  C   UNL     1       5.176   5.180  17.530  0.00  0.00    +0.000 A 
ATOM     22  C   UNL     1       5.416   4.961  16.163  0.00  0.00    +0.000 A 
ATOM     23  C   UNL     1       6.516   5.528  15.528  0.00  0.00    +0.000 A 
ATOM     24  C   UNL     1       7.374   6.345  16.252  0.00  0.00    +0.000 A 
ATOM     25  C   UNL     1       7.138   6.603  17.610  0.00  0.00    +0.000 A 
ATOM     26  C   UNL     1       6.035   6.029  18.249  0.00  0.00    +0.000 A 
BRANCH  25  27
ATOM     27  C   UNL     1       8.062   7.551  18.281  0.00  0.00    +0.000 C 
ATOM     28  O   UNL     1       8.718   7.109  19.220  0.00  0.00    +0.000 OA
ATOM     29  N   UNL     1       8.051   8.871  17.840  0.00  0.00    +0.000 N 
ATOM     30  H   UNL     1       7.325   9.143  17.194  0.00  0.00    +0.000 HD
BRANCH  29  31
ATOM     31  C   UNL     1       8.856   9.897  18.386  0.00  0.00    +0.000 A 
ATOM     32  C   UNL     1       9.025  10.072  19.767  0.00  0.00    +0.000 A 
ATOM     33  C   UNL     1       9.797  11.118  20.273  0.00  0.00    +0.000 A 
ATOM     34  C   UNL     1      10.414  11.993  19.394  0.00  0.00    +0.000 A 
ATOM     35  F   UNL     1      11.149  13.004  19.876  0.00  0.00    +0.000 F 
ATOM     36  C   UNL     1      10.281  11.831  18.019  0.00  0.00    +0.000 A 
ATOM     37  C   UNL     1       9.510  10.777  17.512  0.00  0.00    +0.000 A 
ENDBRANCH  29  31
ENDBRANCH  25  27
ENDBRANCH   7  21
TORSDOF 6
ENDMDL
MODEL 7
REMARK VINA RESULT:      -8.8      5.268      9.904
REMARK  Name = 
REMARK  8 active torsions:
REMARK  status: ('A' for Active; 'I' for Inactive)
REMARK    1  A    between atoms: C_1  and  N_2
REMARK    2  A    between atoms: N_2  and  C_3
REMARK    3  A    between atoms: N_2  and  C_4
REMARK    4  A    between atoms: C_4  and  C_5
REMARK    5  A    between atoms: C_8  and  C_9
REMARK    6  A    between atoms: C_15  and  C_16
REMARK    7  A    between atoms: C_20  and  C_21
REMARK    8  A    between atoms: N_23  and  C_24
REMARK                            x       y       z     vdW  Elec       q    Type
REMARK                         _______ _______ _______ _____ _____    ______ ____
ROOT
ATOM      1  C   UNL     1       2.749  14.661  19.059  0.00  0.00    +0.000 A 
ATOM      2  C   UNL     1       1.915  15.696  18.622  0.00  0.00    +0.000 A 
ATOM      3  C   UNL     1       0.519  15.596  18.686  0.00  0.00    +0.000 A 
ATOM      4  C   UNL     1      -0.012  14.421  19.223  0.00  0.00    +0.000 A 
ATOM      5  N   UNL     1      -1.302  14.020  19.429  0.00  0.00    +0.000 N 
ATOM      6  N   UNL     1      -1.423  12.798  19.971  0.00  0.00    +0.000 NA
ATOM      7  C   UNL     1      -0.157  12.400  20.181  0.00  0.00    +0.000 A 
ATOM      8  C   UNL     1       0.773  13.374  19.687  0.00  0.00    +0.000 A 
ATOM      9  C   UNL     1       2.177  13.490  19.584  0.00  0.00    +0.000 A 
ATOM     10  H   UNL     1      -2.149  14.534  19.216  0.00  0.00    +0.000 HD
ENDROOT
BRANCH   1  14
ATOM     11  C   UNL     1       6.249  14.891  18.446  0.00  0.00    +0.000 A 
ATOM     12  N   UNL     1       6.302  15.009  19.782  0.00  0.00    +0.000 NA
ATOM     13  N   UNL     1       5.003  14.948  20.106  0.00  0.00    +0.000 N 
ATOM     14  C   UNL     1       4.204  14.779  19.009  0.00  0.00    +0.000 A 
ATOM     15  N   UNL     1       4.976  14.758  17.939  0.00  0.00    +0.000 NA
ATOM     16  H   UNL     1       4.729  15.033  21.075  0.00  0.00    +0.000 HD
BRANCH  11  17
ATOM     17  C   UNL     1       7.486  14.914  17.589  0.00  0.00    +0.000 C 
BRANCH  17  19
ATOM     18  C   UNL     1       8.874  12.925  17.769  0.00  0.00    +0.000 C 
ATOM     19  N   UNL     1       8.652  14.289  18.255  0.00  0.00    +0.000 NA
ATOM     20  C   UNL     1       9.846  15.102  18.025  0.00  0.00    +0.000 C 
ENDBRANCH  17  19
ENDBRANCH  11  17
ENDBRANCH   1  14
BRANCH   7  21
ATOM     21  C   UNL     1       0.137  11.120  20.830  0.00  0.00    +0.000 A 
ATOM     22  C   UNL     1      -0.232  10.907  22.169  0.00  0.00    +0.000 A 
ATOM     23  C   UNL     1       0.069   9.712  22.815  0.00  0.00    +0.000 A 
ATOM     24  C   UNL     1       0.721   8.705  22.115  0.00  0.00    +0.000 A 
ATOM     25  C   UNL     1       1.074   8.883  20.769  0.00  0.00    +0.000 A 
ATOM     26  C   UNL     1       0.774  10.086  20.122  0.00  0.00    +0.000 A 
BRANCH  25  27
ATOM     27  C   UNL     1       1.695   7.725  20.082  0.00  0.00    +0.000 C 
ATOM     28  O   UNL     1       2.061   7.903  18.924  0.00  0.00    +0.000 OA
ATOM     29  N   UNL     1       1.742   6.521  20.779  0.00  0.00    +0.000 N 
ATOM     30  H   UNL     1       1.231   6.462  21.647  0.00  0.00    +0.000 HD
BRANCH  29  31
ATOM     31  C   UNL     1       2.284   5.323  20.259  0.00  0.00    +0.000 A 
ATOM     32  C   UNL     1       3.615   5.216  19.835  0.00  0.00    +0.000 A 
ATOM     33  C   UNL     1       4.108   4.029  19.292  0.00  0.00    +0.000 A 
ATOM     34  C   UNL     1       3.267   2.934  19.180  0.00  0.00    +0.000 A 
ATOM     35  F   UNL     1       3.733   1.795  18.652  0.00  0.00    +0.000 F 
ATOM     36  C   UNL     1       1.947   3.005  19.612  0.00  0.00    +0.000 A 
ATOM     37  C   UNL     1       1.455   4.196  20.162  0.00  0.00    +0.000 A 
ENDBRANCH  29  31
ENDBRANCH  25  27
ENDBRANCH   7  21
TORSDOF 6
ENDMDL
MODEL 8
REMARK VINA RESULT:      -8.7      1.066      1.173
REMARK  Name = 
REMARK  8 active torsions:
REMARK  status: ('A' for Active; 'I' for Inactive)
REMARK    1  A    between atoms: C_1  and  N_2
REMARK    2  A    between atoms: N_2  and  C_3
REMARK    3  A    between atoms: N_2  and  C_4
REMARK    4  A    between atoms: C_4  and  C_5
REMARK    5  A    between atoms: C_8  and  C_9
REMARK    6  A    between atoms: C_15  and  C_16
REMARK    7  A    between atoms: C_20  and  C_21
REMARK    8  A    between atoms: N_23  and  C_24
REMARK                            x       y       z     vdW  Elec       q    Type
REMARK                         _______ _______ _______ _____ _____    ______ ____
ROOT
ATOM      1  C   UNL     1       4.725   4.462  18.115  0.00  0.00    +0.000 A 
ATOM      2  C   UNL     1       4.512   3.300  18.866  0.00  0.00    +0.000 A 
ATOM      3  C   UNL     1       3.587   3.261  19.918  0.00  0.00    +0.000 A 
ATOM      4  C   UNL     1       2.867   4.429  20.177  0.00  0.00    +0.000 A 
ATOM      5  N   UNL     1       1.906   4.714  21.106  0.00  0.00    +0.000 N 
ATOM      6  N   UNL     1       1.441   5.972  21.055  0.00  0.00    +0.000 NA
ATOM      7  C   UNL     1       2.085   6.523  20.012  0.00  0.00    +0.000 A 
ATOM      8  C   UNL     1       3.028   5.600  19.449  0.00  0.00    +0.000 A 
ATOM      9  C   UNL     1       3.988   5.620  18.414  0.00  0.00    +0.000 A 
ATOM     10  H   UNL     1       1.524   4.093  21.810  0.00  0.00    +0.000 HD
ENDROOT
BRANCH   1  14
ATOM     11  C   UNL     1       6.651   4.596  15.123  0.00  0.00    +0.000 A 
ATOM     12  N   UNL     1       7.670   4.394  15.972  0.00  0.00    +0.000 NA
ATOM     13  N   UNL     1       7.030   4.345  17.149  0.00  0.00    +0.000 N 
ATOM     14  C   UNL     1       5.677   4.491  17.007  0.00  0.00    +0.000 A 
ATOM     15  N   UNL     1       5.417   4.670  15.727  0.00  0.00    +0.000 NA
ATOM     16  H   UNL     1       7.562   4.220  17.999  0.00  0.00    +0.000 HD
BRANCH  11  17
ATOM     17  C   UNL     1       6.860   4.736  13.640  0.00  0.00    +0.000 C 
BRANCH  17  19
ATOM     18  C   UNL     1       5.017   3.553  12.582  0.00  0.00    +0.000 C 
ATOM     19  N   UNL     1       6.448   3.527  12.889  0.00  0.00    +0.000 NA
ATOM     20  C   UNL     1       7.223   3.427  11.652  0.00  0.00    +0.000 C 
ENDBRANCH  17  19
ENDBRANCH  11  17
ENDBRANCH   1  14
BRANCH   7  21
ATOM     21  C   UNL     1       1.800   7.894  19.584  0.00  0.00    +0.000 A 
ATOM     22  C   UNL     1       2.151   8.317  18.291  0.00  0.00    +0.000 A 
ATOM     23  C   UNL     1       1.922   9.625  17.876  0.00  0.00    +0.000 A 
ATOM     24  C   UNL     1       1.312  10.519  18.747  0.00  0.00    +0.000 A 
ATOM     25  C   UNL     1       0.925  10.112  20.033  0.00  0.00    +0.000 A 
ATOM     26  C   UNL     1       1.160   8.798  20.449  0.00  0.00    +0.000 A 
BRANCH  25  27
ATOM     27  C   UNL     1       0.209  11.111  20.863  0.00  0.00    +0.000 C 
ATOM     28  O   UNL     1       0.432  11.086  22.070  0.00  0.00    +0.000 OA
ATOM     29  N   UNL     1      -0.706  11.937  20.217  0.00  0.00    +0.000 N 
ATOM     30  H   UNL     1      -0.937  11.722  19.258  0.00  0.00    +0.000 HD
BRANCH  29  31
ATOM     31  C   UNL     1      -1.481  12.926  20.867  0.00  0.00    +0.000 A 
ATOM     32  C   UNL     1      -0.982  14.200  21.169  0.00  0.00    +0.000 A 
ATOM     33  C   UNL     1      -1.762  15.140  21.844  0.00  0.00    +0.000 A 
ATOM     34  C   UNL     1      -3.055  14.808  22.214  0.00  0.00    +0.000 A 
ATOM     35  F   UNL     1      -3.804  15.704  22.870  0.00  0.00    +0.000 F 
ATOM     36  C   UNL     1      -3.583  13.559  21.909  0.00  0.00    +0.000 A 
ATOM     37  C   UNL     1      -2.801  12.618  21.226  0.00  0.00    +0.000 A 
ENDBRANCH  29  31
ENDBRANCH  25  27
ENDBRANCH   7  21
TORSDOF 6
ENDMDL
MODEL 9
REMARK VINA RESULT:      -8.6      3.978      5.924
REMARK  Name = 
REMARK  8 active torsions:
REMARK  status: ('A' for Active; 'I' for Inactive)
REMARK    1  A    between atoms: C_1  and  N_2
REMARK    2  A    between atoms: N_2  and  C_3
REMARK    3  A    between atoms: N_2  and  C_4
REMARK    4  A    between atoms: C_4  and  C_5
REMARK    5  A    between atoms: C_8  and  C_9
REMARK    6  A    between atoms: C_15  and  C_16
REMARK    7  A    between atoms: C_20  and  C_21
REMARK    8  A    between atoms: N_23  and  C_24
REMARK                            x       y       z     vdW  Elec       q    Type
REMARK                         _______ _______ _______ _____ _____    ______ ____
ROOT
ATOM      1  C   UNL     1       7.240   6.836  17.482  0.00  0.00    +0.000 A 
ATOM      2  C   UNL     1       7.744   6.055  16.435  0.00  0.00    +0.000 A 
ATOM      3  C   UNL     1       7.106   4.880  16.018  0.00  0.00    +0.000 A 
ATOM      4  C   UNL     1       5.930   4.524  16.680  0.00  0.00    +0.000 A 
ATOM      5  N   UNL     1       5.080   3.466  16.515  0.00  0.00    +0.000 N 
ATOM      6  N   UNL     1       4.037   3.456  17.359  0.00  0.00    +0.000 NA
ATOM      7  C   UNL     1       4.175   4.585  18.074  0.00  0.00    +0.000 A 
ATOM      8  C   UNL     1       5.380   5.274  17.711  0.00  0.00    +0.000 A 
ATOM      9  C   UNL     1       6.059   6.439  18.130  0.00  0.00    +0.000 A 
ATOM     10  H   UNL     1       5.159   2.711  15.844  0.00  0.00    +0.000 HD
ENDROOT
BRANCH   1  14
ATOM     11  C   UNL     1       8.632  10.054  18.105  0.00  0.00    +0.000 A 
ATOM     12  N   UNL     1       9.204   9.418  19.139  0.00  0.00    +0.000 NA
ATOM     13  N   UNL     1       8.716   8.178  18.992  0.00  0.00    +0.000 N 
ATOM     14  C   UNL     1       7.899   8.071  17.900  0.00  0.00    +0.000 A 
ATOM     15  N   UNL     1       7.818   9.259  17.331  0.00  0.00    +0.000 NA
ATOM     16  H   UNL     1       8.966   7.464  19.661  0.00  0.00    +0.000 HD
BRANCH  11  17
ATOM     17  C   UNL     1       8.865  11.516  17.835  0.00  0.00    +0.000 C 
BRANCH  17  19
ATOM     18  C   UNL     1      11.153  12.298  17.580  0.00  0.00    +0.000 C 
ATOM     19  N   UNL     1      10.066  12.039  18.526  0.00  0.00    +0.000 NA
ATOM     20  C   UNL     1       9.726  13.266  19.246  0.00  0.00    +0.000 C 
ENDBRANCH  17  19
ENDBRANCH  11  17
ENDBRANCH   1  14
BRANCH   7  21
ATOM     21  C   UNL     1       3.180   4.974  19.076  0.00  0.00    +0.000 A 
ATOM     22  C   UNL     1       2.579   3.998  19.889  0.00  0.00    +0.000 A 
ATOM     23  C   UNL     1       1.606   4.342  20.822  0.00  0.00    +0.000 A 
ATOM     24  C   UNL     1       1.244   5.674  20.969  0.00  0.00    +0.000 A 
ATOM     25  C   UNL     1       1.852   6.670  20.191  0.00  0.00    +0.000 A 
ATOM     26  C   UNL     1       2.827   6.323  19.250  0.00  0.00    +0.000 A 
BRANCH  25  27
ATOM     27  C   UNL     1       1.459   8.073  20.474  0.00  0.00    +0.000 C 
ATOM     28  O   UNL     1       1.427   8.407  21.655  0.00  0.00    +0.000 OA
ATOM     29  N   UNL     1       1.091   8.862  19.389  0.00  0.00    +0.000 N 
ATOM     30  H   UNL     1       0.974   8.407  18.496  0.00  0.00    +0.000 HD
BRANCH  29  31
ATOM     31  C   UNL     1       0.675  10.210  19.492  0.00  0.00    +0.000 A 
ATOM     32  C   UNL     1       1.495  11.285  19.124  0.00  0.00    +0.000 A 
ATOM     33  C   UNL     1       1.067  12.604  19.273  0.00  0.00    +0.000 A 
ATOM     34  C   UNL     1      -0.196  12.854  19.786  0.00  0.00    +0.000 A 
ATOM     35  F   UNL     1      -0.607  14.119  19.939  0.00  0.00    +0.000 F 
ATOM     36  C   UNL     1      -1.039  11.806  20.140  0.00  0.00    +0.000 A 
ATOM     37  C   UNL     1      -0.609  10.482  19.985  0.00  0.00    +0.000 A 
ENDBRANCH  29  31
ENDBRANCH  25  27
ENDBRANCH   7  21
TORSDOF 6
ENDMDL
