MODEL 1
REMARK VINA RESULT:      -8.3      0.000      0.000
REMARK  Name = 
REMARK  6 active torsions:
REMARK  status: ('A' for Active; 'I' for Inactive)
REMARK    1  A    between atoms: O_1  and  C_2
REMARK    2  A    between atoms: C_7  and  N_8
REMARK    3  A    between atoms: N_8  and  C_9
REMARK    4  A    between atoms: C_9  and  C_10
REMARK    5  A    between atoms: C_14  and  C_15
REMARK    6  A    between atoms: C_18  and  C_19
REMARK                            x       y       z     vdW  Elec       q    Type
REMARK                         _______ _______ _______ _____ _____    ______ ____
ROOT
ATOM      1  C   UNL     1       4.806   4.864  18.379  0.00  0.00    +0.000 A 
ATOM      2  C   UNL     1       5.423   5.020  17.153  0.00  0.00    +0.000 A 
ATOM      3  C   UNL     1       5.054   6.125  16.429  0.00  0.00    +0.000 A 
ATOM      4  N   UNL     1       4.144   7.022  16.848  0.00  0.00    +0.000 NA
ATOM      5  C   UNL     1       3.592   6.797  18.058  0.00  0.00    +0.000 A 
ATOM      6  N   UNL     1       3.891   5.742  18.843  0.00  0.00    +0.000 NA
ENDROOT
BRANCH   5   7
ATOM      7  C   UNL     1       2.571   7.749  18.541  0.00  0.00    +0.000 A 
ATOM      8  C   UNL     1       2.073   7.687  19.857  0.00  0.00    +0.000 A 
ATOM      9  C   UNL     1       1.140   8.615  20.335  0.00  0.00    +0.000 A 
ATOM     10  C   UNL     1       0.666   9.638  19.504  0.00  0.00    +0.000 A 
ATOM     11  C   UNL     1       1.133   9.700  18.184  0.00  0.00    +0.000 A 
ATOM     12  C   UNL     1       2.068   8.771  17.714  0.00  0.00    +0.000 A 
BRANCH  10  13
ATOM     13  C   UNL     1      -0.316  10.664  20.008  0.00  0.00    +0.000 C 
ATOM     14  F   UNL     1      -1.519  10.633  19.368  0.00  0.00    +0.000 F 
ATOM     15  F   UNL     1      -0.596  10.509  21.333  0.00  0.00    +0.000 F 
ATOM     16  F   UNL     1       0.144  11.939  19.872  0.00  0.00    +0.000 F 
ENDBRANCH  10  13
ENDBRANCH   5   7
BRANCH   1  17
ATOM     17  C   UNL     1       5.175   3.703  19.276  0.00  0.00    +0.000 C 
BRANCH  17  18
ATOM     18  N   UNL     1       4.578   2.419  18.883  0.00  0.00    +0.000 NA
ATOM     19  H   UNL     1       4.530   2.375  17.867  0.00  0.00    +0.000 HD
BRANCH  18  25
ATOM     20  C   UNL     1       2.141   2.654  18.442  0.00  0.00    +0.000 C 
ATOM     21  C   UNL     1       0.732   2.541  19.027  0.00  0.00    +0.000 C 
ATOM     22  C   UNL     1       0.611   3.262  20.362  0.00  0.00    +0.000 C 
ATOM     23  C   UNL     1       1.641   2.745  21.355  0.00  0.00    +0.000 C 
ATOM     24  C   UNL     1       3.056   2.880  20.806  0.00  0.00    +0.000 C 
ATOM     25  C   UNL     1       3.229   2.177  19.449  0.00  0.00    +0.000 C 
BRANCH  20  26
ATOM     26  O   UNL     1       2.191   1.861  17.251  0.00  0.00    +0.000 OA
ATOM     27  H   UNL     1       2.616   2.399  16.562  0.00  0.00    +0.000 HD
ENDBRANCH  20  26
ENDBRANCH  18  25
ENDBRANCH  17  18
ENDBRANCH   1  17
TORSDOF 6
ENDMDL
MODEL 2
REMARK VINA RESULT:      -8.2      0.133      1.208
REMARK  Name = 
REMARK  6 active torsions:
REMARK  status: ('A' for Active; 'I' for Inactive)
REMARK    1  A    between atoms: O_1  and  C_2
REMARK    2  A    between atoms: C_7  and  N_8
REMARK    3  A    between atoms: N_8  and  C_9
REMARK    4  A    between atoms: C_9  and  C_10
REMARK    5  A    between atoms: C_14  and  C_15
REMARK    6  A    between atoms: C_18  and  C_19
REMARK                            x       y       z     vdW  Elec       q    Type
REMARK                         _______ _______ _______ _____ _____    ______ ____
ROOT
ATOM      1  C   UNL     1       4.780   4.780  18.396  0.00  0.00    +0.000 A 
ATOM      2  C   UNL     1       5.362   4.868  17.146  0.00  0.00    +0.000 A 
ATOM      3  C   UNL     1       5.005   5.957  16.391  0.00  0.00    +0.000 A 
ATOM      4  N   UNL     1       4.140   6.900  16.804  0.00  0.00    +0.000 NA
ATOM      5  C   UNL     1       3.621   6.740  18.038  0.00  0.00    +0.000 A 
ATOM      6  N   UNL     1       3.911   5.706  18.855  0.00  0.00    +0.000 NA
ENDROOT
BRANCH   5   7
ATOM      7  C   UNL     1       2.649   7.744  18.517  0.00  0.00    +0.000 A 
ATOM      8  C   UNL     1       2.214   8.798  17.691  0.00  0.00    +0.000 A 
ATOM      9  C   UNL     1       1.257   9.725  18.123  0.00  0.00    +0.000 A 
ATOM     10  C   UNL     1       0.707   9.631  19.407  0.00  0.00    +0.000 A 
ATOM     11  C   UNL     1       1.146   8.602  20.252  0.00  0.00    +0.000 A 
ATOM     12  C   UNL     1       2.100   7.678  19.812  0.00  0.00    +0.000 A 
BRANCH  10  13
ATOM     13  C   UNL     1      -0.346  10.601  19.882  0.00  0.00    +0.000 C 
ATOM     14  F   UNL     1      -0.053  11.903  19.609  0.00  0.00    +0.000 F 
ATOM     15  F   UNL     1      -1.561  10.366  19.313  0.00  0.00    +0.000 F 
ATOM     16  F   UNL     1      -0.545  10.538  21.227  0.00  0.00    +0.000 F 
ENDBRANCH  10  13
ENDBRANCH   5   7
BRANCH   1  17
ATOM     17  C   UNL     1       5.140   3.642  19.325  0.00  0.00    +0.000 C 
BRANCH  17  18
ATOM     18  N   UNL     1       4.537   2.351  18.966  0.00  0.00    +0.000 NA
ATOM     19  H   UNL     1       4.521   2.265  17.953  0.00  0.00    +0.000 HD
BRANCH  18  25
ATOM     20  C   UNL     1       2.121   2.656  18.457  0.00  0.00    +0.000 C 
ATOM     21  C   UNL     1       0.693   2.590  19.003  0.00  0.00    +0.000 C 
ATOM     22  C   UNL     1       0.557   3.322  20.331  0.00  0.00    +0.000 C 
ATOM     23  C   UNL     1       1.543   2.780  21.355  0.00  0.00    +0.000 C 
ATOM     24  C   UNL     1       2.976   2.869  20.845  0.00  0.00    +0.000 C 
ATOM     25  C   UNL     1       3.165   2.154  19.496  0.00  0.00    +0.000 C 
BRANCH  20  26
ATOM     26  O   UNL     1       2.179   1.856  17.271  0.00  0.00    +0.000 OA
ATOM     27  H   UNL     1       2.979   2.115  16.785  0.00  0.00    +0.000 HD
ENDBRANCH  20  26
ENDBRANCH  18  25
ENDBRANCH  17  18
ENDBRANCH   1  17
TORSDOF 6
ENDMDL
MODEL 3
REMARK VINA RESULT:      -7.9      1.099      1.504
REMARK  Name = 
REMARK  6 active torsions:
REMARK  status: ('A' for Active; 'I' for Inactive)
REMARK    1  A    between atoms: O_1  and  C_2
REMARK    2  A    between atoms: C_7  and  N_8
REMARK    3  A    between atoms: N_8  and  C_9
REMARK    4  A    between atoms: C_9  and  C_10
REMARK    5  A    between atoms: C_14  and  C_15
REMARK    6  A    between atoms: C_18  and  C_19
REMARK                            x       y       z     vdW  Elec       q    Type
REMARK                         _______ _______ _______ _____ _____    ______ ____
ROOT
ATOM      1  C   UNL     1       4.343   4.436  17.122  0.00  0.00    +0.000 A 
ATOM      2  C   UNL     1       5.216   4.938  16.177  0.00  0.00    +0.000 A 
ATOM      3  C   UNL     1       5.211   6.301  16.016  0.00  0.00    +0.000 A 
ATOM      4  N   UNL     1       4.413   7.132  16.712  0.00  0.00    +0.000 NA
ATOM      5  C   UNL     1       3.594   6.559  17.617  0.00  0.00    +0.000 A 
ATOM      6  N   UNL     1       3.528   5.232  17.848  0.00  0.00    +0.000 NA
ENDROOT
BRANCH   5   7
ATOM      7  C   UNL     1       2.687   7.437  18.384  0.00  0.00    +0.000 A 
ATOM      8  C   UNL     1       2.342   7.152  19.718  0.00  0.00    +0.000 A 
ATOM      9  C   UNL     1       1.521   8.005  20.465  0.00  0.00    +0.000 A 
ATOM     10  C   UNL     1       1.008   9.176  19.894  0.00  0.00    +0.000 A 
ATOM     11  C   UNL     1       1.321   9.463  18.558  0.00  0.00    +0.000 A 
ATOM     12  C   UNL     1       2.145   8.608  17.819  0.00  0.00    +0.000 A 
BRANCH  10  13
ATOM     13  C   UNL     1       0.146  10.123  20.689  0.00  0.00    +0.000 C 
ATOM     14  F   UNL     1       0.803  11.240  21.111  0.00  0.00    +0.000 F 
ATOM     15  F   UNL     1      -0.927  10.571  19.977  0.00  0.00    +0.000 F 
ATOM     16  F   UNL     1      -0.367   9.547  21.811  0.00  0.00    +0.000 F 
ENDBRANCH  10  13
ENDBRANCH   5   7
BRANCH   1  17
ATOM     17  C   UNL     1       4.302   2.951  17.408  0.00  0.00    +0.000 C 
BRANCH  17  18
ATOM     18  N   UNL     1       2.948   2.398  17.556  0.00  0.00    +0.000 NA
ATOM     19  H   UNL     1       2.285   3.027  17.109  0.00  0.00    +0.000 HD
BRANCH  18  25
ATOM     20  C   UNL     1       1.253   2.993  19.277  0.00  0.00    +0.000 C 
ATOM     21  C   UNL     1       0.855   2.890  20.751  0.00  0.00    +0.000 C 
ATOM     22  C   UNL     1       2.002   3.267  21.678  0.00  0.00    +0.000 C 
ATOM     23  C   UNL     1       3.230   2.414  21.399  0.00  0.00    +0.000 C 
ATOM     24  C   UNL     1       3.666   2.529  19.943  0.00  0.00    +0.000 C 
ATOM     25  C   UNL     1       2.537   2.169  18.963  0.00  0.00    +0.000 C 
BRANCH  20  26
ATOM     26  O   UNL     1       0.157   2.519  18.488  0.00  0.00    +0.000 OA
ATOM     27  H   UNL     1       0.182   2.995  17.641  0.00  0.00    +0.000 HD
ENDBRANCH  20  26
ENDBRANCH  18  25
ENDBRANCH  17  18
ENDBRANCH   1  17
TORSDOF 6
ENDMDL
MODEL 4
REMARK VINA RESULT:      -7.9      2.245      4.458
REMARK  Name = 
REMARK  6 active torsions:
REMARK  status: ('A' for Active; 'I' for Inactive)
REMARK    1  A    between atoms: O_1  and  C_2
REMARK    2  A    between atoms: C_7  and  N_8
REMARK    3  A    between atoms: N_8  and  C_9
REMARK    4  A    between atoms: C_9  and  C_10
REMARK    5  A    between atoms: C_14  and  C_15
REMARK    6  A    between atoms: C_18  and  C_19
REMARK                            x       y       z     vdW  Elec       q    Type
REMARK                         _______ _______ _______ _____ _____    ______ ____
ROOT
ATOM      1  C   UNL     1       3.446   4.190  19.347  0.00  0.00    +0.000 A 
ATOM      2  C   UNL     1       2.784   3.345  20.215  0.00  0.00    +0.000 A 
ATOM      3  C   UNL     1       1.782   3.912  20.961  0.00  0.00    +0.000 A 
ATOM      4  N   UNL     1       1.440   5.211  20.887  0.00  0.00    +0.000 NA
ATOM      5  C   UNL     1       2.134   5.965  20.012  0.00  0.00    +0.000 A 
ATOM      6  N   UNL     1       3.134   5.500  19.235  0.00  0.00    +0.000 NA
ENDROOT
BRANCH   5   7
ATOM      7  C   UNL     1       1.802   7.402  19.920  0.00  0.00    +0.000 A 
ATOM      8  C   UNL     1       1.956   8.116  18.717  0.00  0.00    +0.000 A 
ATOM      9  C   UNL     1       1.599   9.466  18.611  0.00  0.00    +0.000 A 
ATOM     10  C   UNL     1       1.080  10.151  19.716  0.00  0.00    +0.000 A 
ATOM     11  C   UNL     1       0.944   9.463  20.929  0.00  0.00    +0.000 A 
ATOM     12  C   UNL     1       1.300   8.113  21.026  0.00  0.00    +0.000 A 
BRANCH  10  13
ATOM     13  C   UNL     1       0.662  11.596  19.616  0.00  0.00    +0.000 C 
ATOM     14  F   UNL     1      -0.369  11.927  20.443  0.00  0.00    +0.000 F 
ATOM     15  F   UNL     1       1.676  12.452  19.926  0.00  0.00    +0.000 F 
ATOM     16  F   UNL     1       0.256  11.937  18.362  0.00  0.00    +0.000 F 
ENDBRANCH  10  13
ENDBRANCH   5   7
BRANCH   1  17
ATOM     17  C   UNL     1       4.538   3.656  18.447  0.00  0.00    +0.000 C 
BRANCH  17  18
ATOM     18  N   UNL     1       5.890   3.734  19.018  0.00  0.00    +0.000 NA
ATOM     19  H   UNL     1       5.819   4.002  19.997  0.00  0.00    +0.000 HD
BRANCH  18  25
ATOM     20  C   UNL     1       7.227   5.815  19.288  0.00  0.00    +0.000 C 
ATOM     21  C   UNL     1       8.061   6.885  18.580  0.00  0.00    +0.000 C 
ATOM     22  C   UNL     1       7.350   7.441  17.354  0.00  0.00    +0.000 C 
ATOM     23  C   UNL     1       6.982   6.328  16.385  0.00  0.00    +0.000 C 
ATOM     24  C   UNL     1       6.122   5.267  17.061  0.00  0.00    +0.000 C 
ATOM     25  C   UNL     1       6.792   4.679  18.315  0.00  0.00    +0.000 C 
BRANCH  20  26
ATOM     26  O   UNL     1       8.014   5.275  20.355  0.00  0.00    +0.000 OA
ATOM     27  H   UNL     1       7.444   5.229  21.141  0.00  0.00    +0.000 HD
ENDBRANCH  20  26
ENDBRANCH  18  25
ENDBRANCH  17  18
ENDBRANCH   1  17
TORSDOF 6
ENDMDL
MODEL 5
REMARK VINA RESULT:      -7.7      1.315      1.913
REMARK  Name = 
REMARK  6 active torsions:
REMARK  status: ('A' for Active; 'I' for Inactive)
REMARK    1  A    between atoms: O_1  and  C_2
REMARK    2  A    between atoms: C_7  and  N_8
REMARK    3  A    between atoms: N_8  and  C_9
REMARK    4  A    between atoms: C_9  and  C_10
REMARK    5  A    between atoms: C_14  and  C_15
REMARK    6  A    between atoms: C_18  and  C_19
REMARK                            x       y       z     vdW  Elec       q    Type
REMARK                         _______ _______ _______ _____ _____    ______ ____
ROOT
ATOM      1  C   UNL     1       4.546   4.631  16.869  0.00  0.00    +0.000 A 
ATOM      2  C   UNL     1       5.334   5.205  15.891  0.00  0.00    +0.000 A 
ATOM      3  C   UNL     1       5.253   6.570  15.777  0.00  0.00    +0.000 A 
ATOM      4  N   UNL     1       4.461   7.338  16.546  0.00  0.00    +0.000 NA
ATOM      5  C   UNL     1       3.727   6.697  17.479  0.00  0.00    +0.000 A 
ATOM      6  N   UNL     1       3.740   5.362  17.669  0.00  0.00    +0.000 NA
ENDROOT
BRANCH   5   7
ATOM      7  C   UNL     1       2.828   7.505  18.328  0.00  0.00    +0.000 A 
ATOM      8  C   UNL     1       2.273   8.714  17.868  0.00  0.00    +0.000 A 
ATOM      9  C   UNL     1       1.383   9.461  18.650  0.00  0.00    +0.000 A 
ATOM     10  C   UNL     1       1.022   9.021  19.930  0.00  0.00    +0.000 A 
ATOM     11  C   UNL     1       1.584   7.831  20.413  0.00  0.00    +0.000 A 
ATOM     12  C   UNL     1       2.470   7.090  19.625  0.00  0.00    +0.000 A 
BRANCH  10  13
ATOM     13  C   UNL     1       0.043   9.793  20.777  0.00  0.00    +0.000 C 
ATOM     14  F   UNL     1      -0.956  10.383  20.061  0.00  0.00    +0.000 F 
ATOM     15  F   UNL     1      -0.577   9.007  21.701  0.00  0.00    +0.000 F 
ATOM     16  F   UNL     1       0.638  10.797  21.480  0.00  0.00    +0.000 F 
ENDBRANCH  10  13
ENDBRANCH   5   7
BRANCH   1  17
ATOM     17  C   UNL     1       4.595   3.137  17.108  0.00  0.00    +0.000 C 
BRANCH  17  18
ATOM     18  N   UNL     1       3.341   2.562  17.614  0.00  0.00    +0.000 NA
ATOM     19  H   UNL     1       2.608   2.711  16.925  0.00  0.00    +0.000 HD
BRANCH  18  25
ATOM     20  C   UNL     1       3.413   2.196  20.074  0.00  0.00    +0.000 C 
ATOM     21  C   UNL     1       2.887   2.650  21.437  0.00  0.00    +0.000 C 
ATOM     22  C   UNL     1       1.370   2.774  21.450  0.00  0.00    +0.000 C 
ATOM     23  C   UNL     1       0.892   3.718  20.356  0.00  0.00    +0.000 C 
ATOM     24  C   UNL     1       1.376   3.265  18.983  0.00  0.00    +0.000 C 
ATOM     25  C   UNL     1       2.905   3.112  18.921  0.00  0.00    +0.000 C 
BRANCH  20  26
ATOM     26  O   UNL     1       4.843   2.212  20.123  0.00  0.00    +0.000 OA
ATOM     27  H   UNL     1       5.166   1.724  19.347  0.00  0.00    +0.000 HD
ENDBRANCH  20  26
ENDBRANCH  18  25
ENDBRANCH  17  18
ENDBRANCH   1  17
TORSDOF 6
ENDMDL
MODEL 6
REMARK VINA RESULT:      -7.7      1.305      1.778
REMARK  Name = 
REMARK  6 active torsions:
REMARK  status: ('A' for Active; 'I' for Inactive)
REMARK    1  A    between atoms: O_1  and  C_2
REMARK    2  A    between atoms: C_7  and  N_8
REMARK    3  A    between atoms: N_8  and  C_9
REMARK    4  A    between atoms: C_9  and  C_10
REMARK    5  A    between atoms: C_14  and  C_15
REMARK    6  A    between atoms: C_18  and  C_19
REMARK                            x       y       z     vdW  Elec       q    Type
REMARK                         _______ _______ _______ _____ _____    ______ ____
ROOT
ATOM      1  C   UNL     1       4.484   4.577  16.840  0.00  0.00    +0.000 A 
ATOM      2  C   UNL     1       5.330   5.147  15.910  0.00  0.00    +0.000 A 
ATOM      3  C   UNL     1       5.298   6.517  15.826  0.00  0.00    +0.000 A 
ATOM      4  N   UNL     1       4.498   7.292  16.581  0.00  0.00    +0.000 NA
ATOM      5  C   UNL     1       3.706   6.654  17.466  0.00  0.00    +0.000 A 
ATOM      6  N   UNL     1       3.668   5.315  17.623  0.00  0.00    +0.000 NA
ENDROOT
BRANCH   5   7
ATOM      7  C   UNL     1       2.797   7.471  18.296  0.00  0.00    +0.000 A 
ATOM      8  C   UNL     1       2.443   7.080  19.601  0.00  0.00    +0.000 A 
ATOM      9  C   UNL     1       1.620   7.873  20.410  0.00  0.00    +0.000 A 
ATOM     10  C   UNL     1       1.114   9.089  19.931  0.00  0.00    +0.000 A 
ATOM     11  C   UNL     1       1.436   9.481  18.625  0.00  0.00    +0.000 A 
ATOM     12  C   UNL     1       2.262   8.685  17.825  0.00  0.00    +0.000 A 
BRANCH  10  13
ATOM     13  C   UNL     1       0.250   9.972  20.795  0.00  0.00    +0.000 C 
ATOM     14  F   UNL     1      -0.120   9.394  21.973  0.00  0.00    +0.000 F 
ATOM     15  F   UNL     1       0.871  11.137  21.132  0.00  0.00    +0.000 F 
ATOM     16  F   UNL     1      -0.910  10.332  20.178  0.00  0.00    +0.000 F 
ENDBRANCH  10  13
ENDBRANCH   5   7
BRANCH   1  17
ATOM     17  C   UNL     1       4.475   3.077  17.043  0.00  0.00    +0.000 C 
BRANCH  17  18
ATOM     18  N   UNL     1       3.210   2.543  17.567  0.00  0.00    +0.000 NA
ATOM     19  H   UNL     1       2.470   2.726  16.893  0.00  0.00    +0.000 HD
BRANCH  18  25
ATOM     20  C   UNL     1       3.395   2.203  20.025  0.00  0.00    +0.000 C 
ATOM     21  C   UNL     1       2.918   2.658  21.405  0.00  0.00    +0.000 C 
ATOM     22  C   UNL     1       1.400   2.748  21.482  0.00  0.00    +0.000 C 
ATOM     23  C   UNL     1       0.854   3.670  20.402  0.00  0.00    +0.000 C 
ATOM     24  C   UNL     1       1.289   3.215  19.014  0.00  0.00    +0.000 C 
ATOM     25  C   UNL     1       2.817   3.096  18.887  0.00  0.00    +0.000 C 
BRANCH  20  26
ATOM     26  O   UNL     1       4.825   2.251  20.012  0.00  0.00    +0.000 OA
ATOM     27  H   UNL     1       5.097   2.966  20.611  0.00  0.00    +0.000 HD
ENDBRANCH  20  26
ENDBRANCH  18  25
ENDBRANCH  17  18
ENDBRANCH   1  17
TORSDOF 6
ENDMDL
MODEL 7
REMARK VINA RESULT:      -7.7      2.070      4.342
REMARK  Name = 
REMARK  6 active torsions:
REMARK  status: ('A' for Active; 'I' for Inactive)
REMARK    1  A    between atoms: O_1  and  C_2
REMARK    2  A    between atoms: C_7  and  N_8
REMARK    3  A    between atoms: N_8  and  C_9
REMARK    4  A    between atoms: C_9  and  C_10
REMARK    5  A    between atoms: C_14  and  C_15
REMARK    6  A    between atoms: C_18  and  C_19
REMARK                            x       y       z     vdW  Elec       q    Type
REMARK                         _______ _______ _______ _____ _____    ______ ____
ROOT
ATOM      1  C   UNL     1       3.354   3.534  19.797  0.00  0.00    +0.000 A 
ATOM      2  C   UNL     1       2.464   2.830  20.584  0.00  0.00    +0.000 A 
ATOM      3  C   UNL     1       1.389   3.538  21.058  0.00  0.00    +0.000 A 
ATOM      4  N   UNL     1       1.182   4.843  20.801  0.00  0.00    +0.000 NA
ATOM      5  C   UNL     1       2.098   5.453  20.022  0.00  0.00    +0.000 A 
ATOM      6  N   UNL     1       3.185   4.842  19.508  0.00  0.00    +0.000 NA
ENDROOT
BRANCH   5   7
ATOM      7  C   UNL     1       1.917   6.891  19.738  0.00  0.00    +0.000 A 
ATOM      8  C   UNL     1       2.290   7.448  18.500  0.00  0.00    +0.000 A 
ATOM      9  C   UNL     1       2.077   8.801  18.207  0.00  0.00    +0.000 A 
ATOM     10  C   UNL     1       1.488   9.648  19.154  0.00  0.00    +0.000 A 
ATOM     11  C   UNL     1       1.133   9.116  20.401  0.00  0.00    +0.000 A 
ATOM     12  C   UNL     1       1.345   7.762  20.685  0.00  0.00    +0.000 A 
BRANCH  10  13
ATOM     13  C   UNL     1       1.224  11.100  18.849  0.00  0.00    +0.000 C 
ATOM     14  F   UNL     1       1.263  11.907  19.946  0.00  0.00    +0.000 F 
ATOM     15  F   UNL     1       2.129  11.620  17.973  0.00  0.00    +0.000 F 
ATOM     16  F   UNL     1       0.001  11.302  18.284  0.00  0.00    +0.000 F 
ENDBRANCH  10  13
ENDBRANCH   5   7
BRANCH   1  17
ATOM     17  C   UNL     1       4.550   2.835  19.188  0.00  0.00    +0.000 C 
BRANCH  17  18
ATOM     18  N   UNL     1       5.652   3.733  18.813  0.00  0.00    +0.000 NA
ATOM     19  H   UNL     1       5.444   4.669  19.152  0.00  0.00    +0.000 HD
BRANCH  18  25
ATOM     20  C   UNL     1       7.189   4.649  17.085  0.00  0.00    +0.000 C 
ATOM     21  C   UNL     1       7.442   4.840  15.588  0.00  0.00    +0.000 C 
ATOM     22  C   UNL     1       6.222   5.401  14.872  0.00  0.00    +0.000 C 
ATOM     23  C   UNL     1       5.005   4.517  15.096  0.00  0.00    +0.000 C 
ATOM     24  C   UNL     1       4.713   4.341  16.581  0.00  0.00    +0.000 C 
ATOM     25  C   UNL     1       5.921   3.787  17.355  0.00  0.00    +0.000 C 
BRANCH  20  26
ATOM     26  O   UNL     1       8.343   4.022  17.653  0.00  0.00    +0.000 OA
ATOM     27  H   UNL     1       9.076   4.657  17.599  0.00  0.00    +0.000 HD
ENDBRANCH  20  26
ENDBRANCH  18  25
ENDBRANCH  17  18
ENDBRANCH   1  17
TORSDOF 6
ENDMDL
MODEL 8
REMARK VINA RESULT:      -7.7      2.108      4.174
REMARK  Name = 
REMARK  6 active torsions:
REMARK  status: ('A' for Active; 'I' for Inactive)
REMARK    1  A    between atoms: O_1  and  C_2
REMARK    2  A    between atoms: C_7  and  N_8
REMARK    3  A    between atoms: N_8  and  C_9
REMARK    4  A    between atoms: C_9  and  C_10
REMARK    5  A    between atoms: C_14  and  C_15
REMARK    6  A    between atoms: C_18  and  C_19
REMARK                            x       y       z     vdW  Elec       q    Type
REMARK                         _______ _______ _______ _____ _____    ______ ____
ROOT
ATOM      1  C   UNL     1       3.854   3.986  18.018  0.00  0.00    +0.000 A 
ATOM      2  C   UNL     1       3.684   3.108  19.071  0.00  0.00    +0.000 A 
ATOM      3  C   UNL     1       3.002   3.595  20.157  0.00  0.00    +0.000 A 
ATOM      4  N   UNL     1       2.518   4.848  20.234  0.00  0.00    +0.000 NA
ATOM      5  C   UNL     1       2.725   5.638  19.161  0.00  0.00    +0.000 A 
ATOM      6  N   UNL     1       3.381   5.251  18.048  0.00  0.00    +0.000 NA
ENDROOT
BRANCH   5   7
ATOM      7  C   UNL     1       2.228   7.028  19.218  0.00  0.00    +0.000 A 
ATOM      8  C   UNL     1       2.255   7.866  18.088  0.00  0.00    +0.000 A 
ATOM      9  C   UNL     1       1.743   9.169  18.123  0.00  0.00    +0.000 A 
ATOM     10  C   UNL     1       1.190   9.681  19.303  0.00  0.00    +0.000 A 
ATOM     11  C   UNL     1       1.177   8.870  20.446  0.00  0.00    +0.000 A 
ATOM     12  C   UNL     1       1.688   7.568  20.401  0.00  0.00    +0.000 A 
BRANCH  10  13
ATOM     13  C   UNL     1       0.607  11.071  19.356  0.00  0.00    +0.000 C 
ATOM     14  F   UNL     1      -0.750  11.101  19.233  0.00  0.00    +0.000 F 
ATOM     15  F   UNL     1       0.888  11.707  20.528  0.00  0.00    +0.000 F 
ATOM     16  F   UNL     1       1.088  11.877  18.369  0.00  0.00    +0.000 F 
ENDBRANCH  10  13
ENDBRANCH   5   7
BRANCH   1  17
ATOM     17  C   UNL     1       4.554   3.534  16.755  0.00  0.00    +0.000 C 
BRANCH  17  18
ATOM     18  N   UNL     1       5.946   3.989  16.636  0.00  0.00    +0.000 NA
ATOM     19  H   UNL     1       6.567   3.215  16.861  0.00  0.00    +0.000 HD
BRANCH  18  25
ATOM     20  C   UNL     1       6.480   6.419  16.615  0.00  0.00    +0.000 C 
ATOM     21  C   UNL     1       6.947   7.620  17.439  0.00  0.00    +0.000 C 
ATOM     22  C   UNL     1       8.195   7.303  18.251  0.00  0.00    +0.000 C 
ATOM     23  C   UNL     1       7.967   6.097  19.151  0.00  0.00    +0.000 C 
ATOM     24  C   UNL     1       7.534   4.879  18.345  0.00  0.00    +0.000 C 
ATOM     25  C   UNL     1       6.281   5.151  17.496  0.00  0.00    +0.000 C 
BRANCH  20  26
ATOM     26  O   UNL     1       5.249   6.773  15.975  0.00  0.00    +0.000 OA
ATOM     27  H   UNL     1       5.193   6.262  15.150  0.00  0.00    +0.000 HD
ENDBRANCH  20  26
ENDBRANCH  18  25
ENDBRANCH  17  18
ENDBRANCH   1  17
TORSDOF 6
ENDMDL
MODEL 9
REMARK VINA RESULT:      -7.6      0.847      1.131
REMARK  Name = 
REMARK  6 active torsions:
REMARK  status: ('A' for Active; 'I' for Inactive)
REMARK    1  A    between atoms: O_1  and  C_2
REMARK    2  A    between atoms: C_7  and  N_8
REMARK    3  A    between atoms: N_8  and  C_9
REMARK    4  A    between atoms: C_9  and  C_10
REMARK    5  A    between atoms: C_14  and  C_15
REMARK    6  A    between atoms: C_18  and  C_19
REMARK                            x       y       z     vdW  Elec       q    Type
REMARK                         _______ _______ _______ _____ _____    ______ ____
ROOT
ATOM      1  C   UNL     1       4.254   4.466  17.064  0.00  0.00    +0.000 A 
ATOM      2  C   UNL     1       5.458   4.901  16.546  0.00  0.00    +0.000 A 
ATOM      3  C   UNL     1       5.721   6.241  16.676  0.00  0.00    +0.000 A 
ATOM      4  N   UNL     1       4.880   7.113  17.261  0.00  0.00    +0.000 NA
ATOM      5  C   UNL     1       3.729   6.605  17.744  0.00  0.00    +0.000 A 
ATOM      6  N   UNL     1       3.381   5.304  17.665  0.00  0.00    +0.000 NA
ENDROOT
BRANCH   5   7
ATOM      7  C   UNL     1       2.769   7.536  18.372  0.00  0.00    +0.000 A 
ATOM      8  C   UNL     1       2.299   7.334  19.683  0.00  0.00    +0.000 A 
ATOM      9  C   UNL     1       1.427   8.238  20.301  0.00  0.00    +0.000 A 
ATOM     10  C   UNL     1       0.987   9.379  19.618  0.00  0.00    +0.000 A 
ATOM     11  C   UNL     1       1.425   9.584  18.302  0.00  0.00    +0.000 A 
ATOM     12  C   UNL     1       2.300   8.677  17.693  0.00  0.00    +0.000 A 
BRANCH  10  13
ATOM     13  C   UNL     1       0.071  10.381  20.274  0.00  0.00    +0.000 C 
ATOM     14  F   UNL     1      -0.400   9.980  21.488  0.00  0.00    +0.000 F 
ATOM     15  F   UNL     1       0.682  11.579  20.490  0.00  0.00    +0.000 F 
ATOM     16  F   UNL     1      -1.030  10.654  19.520  0.00  0.00    +0.000 F 
ENDBRANCH  10  13
ENDBRANCH   5   7
BRANCH   1  17
ATOM     17  C   UNL     1       3.887   2.999  17.012  0.00  0.00    +0.000 C 
BRANCH  17  18
ATOM     18  N   UNL     1       4.217   2.247  18.230  0.00  0.00    +0.000 NA
ATOM     19  H   UNL     1       4.391   1.276  17.981  0.00  0.00    +0.000 HD
BRANCH  18  25
ATOM     20  C   UNL     1       1.799   2.664  18.641  0.00  0.00    +0.000 C 
ATOM     21  C   UNL     1       0.710   2.858  19.697  0.00  0.00    +0.000 C 
ATOM     22  C   UNL     1       1.116   3.875  20.754  0.00  0.00    +0.000 C 
ATOM     23  C   UNL     1       2.429   3.480  21.413  0.00  0.00    +0.000 C 
ATOM     24  C   UNL     1       3.539   3.315  20.382  0.00  0.00    +0.000 C 
ATOM     25  C   UNL     1       3.172   2.304  19.281  0.00  0.00    +0.000 C 
BRANCH  20  26
ATOM     26  O   UNL     1       1.379   1.620  17.756  0.00  0.00    +0.000 OA
ATOM     27  H   UNL     1       1.467   0.780  18.235  0.00  0.00    +0.000 HD
ENDBRANCH  20  26
ENDBRANCH  18  25
ENDBRANCH  17  18
ENDBRANCH   1  17
TORSDOF 6
ENDMDL
