MODEL 1
REMARK VINA RESULT:      -9.3      0.000      0.000
REMARK  Name = 
REMARK  9 active torsions:
REMARK  status: ('A' for Active; 'I' for Inactive)
REMARK    1  A    between atoms: C_2  and  O_3
REMARK    2  A    between atoms: C_2  and  C_22
REMARK    3  A    between atoms: O_3  and  P_4
REMARK    4  A    between atoms: P_4  and  O_6
REMARK    5  A    between atoms: P_4  and  O_7
REMARK    6  A    between atoms: O_7  and  C_8
REMARK    7  A    between atoms: C_8  and  C_10
REMARK    8  A    between atoms: C_13  and  C_14
REMARK    9  A    between atoms: C_25  and  C_26
REMARK                            x       y       z     vdW  Elec       q    Type
REMARK                         _______ _______ _______ _____ _____    ______ ____
ROOT
ATOM      1  P   UNL     1       7.140   5.744  18.803  0.00  0.00    +0.000 P 
ATOM      2  O   UNL     1       7.929   4.944  17.761  0.00  0.00    +0.000 OA
ENDROOT
BRANCH   1   3
ATOM      3  O   UNL     1       7.848   5.511  20.262  0.00  0.00    +0.000 OA
ATOM      4  H   UNL     1       8.078   6.400  20.625  0.00  0.00    +0.000 HD
ENDBRANCH   1   3
BRANCH   1   5
ATOM      5  O   UNL     1       8.232   7.066  18.574  0.00  0.00    +0.000 OA
BRANCH   5   7
ATOM      6  O   UNL     1       7.153   7.953  16.800  0.00  0.00    +0.000 OA
ATOM      7  C   UNL     1       7.857   8.082  17.781  0.00  0.00    +0.000 C 
BRANCH   7   8
ATOM      8  C   UNL     1       8.447   9.388  18.245  0.00  0.00    +0.000 A 
ATOM      9  C   UNL     1       9.127   9.428  19.466  0.00  0.00    +0.000 A 
ATOM     10  C   UNL     1       9.668  10.633  19.957  0.00  0.00    +0.000 A 
ATOM     11  C   UNL     1       9.565  11.842  19.244  0.00  0.00    +0.000 A 
ATOM     12  C   UNL     1       8.895  11.772  18.007  0.00  0.00    +0.000 A 
ATOM     13  C   UNL     1       8.340  10.576  17.514  0.00  0.00    +0.000 A 
BRANCH  11  14
ATOM     14  C   UNL     1      10.126  13.121  19.771  0.00  0.00    +0.000 A 
ATOM     15  C   UNL     1      11.028  13.905  19.024  0.00  0.00    +0.000 A 
ATOM     16  C   UNL     1      11.558  15.104  19.527  0.00  0.00    +0.000 A 
ATOM     17  C   UNL     1      11.194  15.558  20.792  0.00  0.00    +0.000 A 
ATOM     18  C   UNL     1      10.305  14.810  21.551  0.00  0.00    +0.000 A 
ATOM     19  C   UNL     1       9.784  13.607  21.050  0.00  0.00    +0.000 A 
ENDBRANCH  11  14
ENDBRANCH   7   8
ENDBRANCH   5   7
ENDBRANCH   1   5
BRANCH   1  20
ATOM     20  O   UNL     1       6.049   4.421  19.033  0.00  0.00    +0.000 OA
BRANCH  20  21
ATOM     21  C   UNL     1       4.923   4.365  18.282  0.00  0.00    +0.000 C 
ATOM     22  O   UNL     1       4.738   3.632  17.316  0.00  0.00    +0.000 OA
BRANCH  21  23
ATOM     23  C   UNL     1       3.867   5.291  18.741  0.00  0.00    +0.000 A 
ATOM     24  C   UNL     1       3.664   6.452  17.988  0.00  0.00    +0.000 A 
ATOM     25  C   UNL     1       2.808   7.451  18.448  0.00  0.00    +0.000 A 
ATOM     26  C   UNL     1       2.113   7.314  19.662  0.00  0.00    +0.000 A 
ATOM     27  C   UNL     1       2.280   6.104  20.367  0.00  0.00    +0.000 A 
ATOM     28  C   UNL     1       3.147   5.101  19.919  0.00  0.00    +0.000 A 
BRANCH  26  29
ATOM     29  C   UNL     1       1.278   8.417  20.188  0.00  0.00    +0.000 A 
ATOM     30  C   UNL     1       0.920   9.516  19.385  0.00  0.00    +0.000 A 
ATOM     31  C   UNL     1       0.165  10.577  19.893  0.00  0.00    +0.000 A 
ATOM     32  C   UNL     1      -0.261  10.555  21.217  0.00  0.00    +0.000 A 
ATOM     33  C   UNL     1       0.074   9.482  22.034  0.00  0.00    +0.000 A 
ATOM     34  C   UNL     1       0.841   8.430  21.525  0.00  0.00    +0.000 A 
ENDBRANCH  26  29
ENDBRANCH  21  23
ENDBRANCH  20  21
ENDBRANCH   1  20
TORSDOF 9
ENDMDL
MODEL 2
REMARK VINA RESULT:      -8.6      1.855      8.205
REMARK  Name = 
REMARK  9 active torsions:
REMARK  status: ('A' for Active; 'I' for Inactive)
REMARK    1  A    between atoms: C_2  and  O_3
REMARK    2  A    between atoms: C_2  and  C_22
REMARK    3  A    between atoms: O_3  and  P_4
REMARK    4  A    between atoms: P_4  and  O_6
REMARK    5  A    between atoms: P_4  and  O_7
REMARK    6  A    between atoms: O_7  and  C_8
REMARK    7  A    between atoms: C_8  and  C_10
REMARK    8  A    between atoms: C_13  and  C_14
REMARK    9  A    between atoms: C_25  and  C_26
REMARK                            x       y       z     vdW  Elec       q    Type
REMARK                         _______ _______ _______ _____ _____    ______ ____
ROOT
ATOM      1  P   UNL     1       4.701   5.033  18.426  0.00  0.00    +0.000 P 
ATOM      2  O   UNL     1       4.036   3.842  19.122  0.00  0.00    +0.000 OA
ENDROOT
BRANCH   1   3
ATOM      3  O   UNL     1       4.378   4.929  16.824  0.00  0.00    +0.000 OA
ATOM      4  H   UNL     1       3.474   5.301  16.679  0.00  0.00    +0.000 HD
ENDBRANCH   1   3
BRANCH   1   5
ATOM      5  O   UNL     1       3.223   5.918  18.586  0.00  0.00    +0.000 OA
BRANCH   5   7
ATOM      6  O   UNL     1       3.824   7.563  17.161  0.00  0.00    +0.000 OA
ATOM      7  C   UNL     1       3.163   7.167  18.100  0.00  0.00    +0.000 C 
BRANCH   7   8
ATOM      8  C   UNL     1       2.202   8.018  18.888  0.00  0.00    +0.000 A 
ATOM      9  C   UNL     1       1.672   9.168  18.294  0.00  0.00    +0.000 A 
ATOM     10  C   UNL     1       0.794  10.012  19.003  0.00  0.00    +0.000 A 
ATOM     11  C   UNL     1       0.400   9.738  20.326  0.00  0.00    +0.000 A 
ATOM     12  C   UNL     1       0.930   8.564  20.895  0.00  0.00    +0.000 A 
ATOM     13  C   UNL     1       1.817   7.720  20.199  0.00  0.00    +0.000 A 
BRANCH  11  14
ATOM     14  C   UNL     1      -0.518  10.640  21.081  0.00  0.00    +0.000 A 
ATOM     15  C   UNL     1      -0.579  10.635  22.489  0.00  0.00    +0.000 A 
ATOM     16  C   UNL     1      -1.450  11.481  23.195  0.00  0.00    +0.000 A 
ATOM     17  C   UNL     1      -2.281  12.363  22.511  0.00  0.00    +0.000 A 
ATOM     18  C   UNL     1      -2.242  12.394  21.124  0.00  0.00    +0.000 A 
ATOM     19  C   UNL     1      -1.378  11.541  20.420  0.00  0.00    +0.000 A 
ENDBRANCH  11  14
ENDBRANCH   7   8
ENDBRANCH   5   7
ENDBRANCH   1   5
BRANCH   1  20
ATOM     20  O   UNL     1       6.179   4.148  18.266  0.00  0.00    +0.000 OA
BRANCH  20  21
ATOM     21  C   UNL     1       7.192   4.691  17.547  0.00  0.00    +0.000 C 
ATOM     22  O   UNL     1       7.784   4.152  16.619  0.00  0.00    +0.000 OA
BRANCH  21  23
ATOM     23  C   UNL     1       7.544   6.061  17.974  0.00  0.00    +0.000 A 
ATOM     24  C   UNL     1       7.308   7.095  17.063  0.00  0.00    +0.000 A 
ATOM     25  C   UNL     1       7.767   8.385  17.324  0.00  0.00    +0.000 A 
ATOM     26  C   UNL     1       8.455   8.687  18.511  0.00  0.00    +0.000 A 
ATOM     27  C   UNL     1       8.618   7.644  19.446  0.00  0.00    +0.000 A 
ATOM     28  C   UNL     1       8.172   6.342  19.186  0.00  0.00    +0.000 A 
BRANCH  26  29
ATOM     29  C   UNL     1       9.018  10.037  18.741  0.00  0.00    +0.000 A 
ATOM     30  C   UNL     1       9.409  10.461  20.025  0.00  0.00    +0.000 A 
ATOM     31  C   UNL     1       9.904  11.750  20.248  0.00  0.00    +0.000 A 
ATOM     32  C   UNL     1      10.032  12.639  19.188  0.00  0.00    +0.000 A 
ATOM     33  C   UNL     1       9.657  12.248  17.908  0.00  0.00    +0.000 A 
ATOM     34  C   UNL     1       9.149  10.964  17.691  0.00  0.00    +0.000 A 
ENDBRANCH  26  29
ENDBRANCH  21  23
ENDBRANCH  20  21
ENDBRANCH   1  20
TORSDOF 9
ENDMDL
MODEL 3
REMARK VINA RESULT:      -8.5      1.937      7.678
REMARK  Name = 
REMARK  9 active torsions:
REMARK  status: ('A' for Active; 'I' for Inactive)
REMARK    1  A    between atoms: C_2  and  O_3
REMARK    2  A    between atoms: C_2  and  C_22
REMARK    3  A    between atoms: O_3  and  P_4
REMARK    4  A    between atoms: P_4  and  O_6
REMARK    5  A    between atoms: P_4  and  O_7
REMARK    6  A    between atoms: O_7  and  C_8
REMARK    7  A    between atoms: C_8  and  C_10
REMARK    8  A    between atoms: C_13  and  C_14
REMARK    9  A    between atoms: C_25  and  C_26
REMARK                            x       y       z     vdW  Elec       q    Type
REMARK                         _______ _______ _______ _____ _____    ______ ____
ROOT
ATOM      1  P   UNL     1       4.535   4.926  18.044  0.00  0.00    +0.000 P 
ATOM      2  O   UNL     1       4.031   3.486  18.182  0.00  0.00    +0.000 OA
ENDROOT
BRANCH   1   3
ATOM      3  O   UNL     1       4.423   5.353  16.467  0.00  0.00    +0.000 OA
ATOM      4  H   UNL     1       5.333   5.580  16.155  0.00  0.00    +0.000 HD
ENDBRANCH   1   3
BRANCH   1   5
ATOM      5  O   UNL     1       2.908   5.485  18.228  0.00  0.00    +0.000 OA
BRANCH   5   7
ATOM      6  O   UNL     1       2.491   5.252  20.435  0.00  0.00    +0.000 OA
ATOM      7  C   UNL     1       2.512   5.932  19.430  0.00  0.00    +0.000 C 
BRANCH   7   8
ATOM      8  C   UNL     1       2.067   7.369  19.362  0.00  0.00    +0.000 A 
ATOM      9  C   UNL     1       2.298   8.095  18.188  0.00  0.00    +0.000 A 
ATOM     10  C   UNL     1       1.929   9.451  18.089  0.00  0.00    +0.000 A 
ATOM     11  C   UNL     1       1.304  10.134  19.148  0.00  0.00    +0.000 A 
ATOM     12  C   UNL     1       1.063   9.378  20.312  0.00  0.00    +0.000 A 
ATOM     13  C   UNL     1       1.439   8.025  20.426  0.00  0.00    +0.000 A 
BRANCH  11  14
ATOM     14  C   UNL     1       0.926  11.575  19.048  0.00  0.00    +0.000 A 
ATOM     15  C   UNL     1      -0.335  12.047  19.462  0.00  0.00    +0.000 A 
ATOM     16  C   UNL     1      -0.689  13.402  19.358  0.00  0.00    +0.000 A 
ATOM     17  C   UNL     1       0.215  14.327  18.844  0.00  0.00    +0.000 A 
ATOM     18  C   UNL     1       1.467  13.894  18.430  0.00  0.00    +0.000 A 
ATOM     19  C   UNL     1       1.815  12.537  18.525  0.00  0.00    +0.000 A 
ENDBRANCH  11  14
ENDBRANCH   7   8
ENDBRANCH   5   7
ENDBRANCH   1   5
BRANCH   1  20
ATOM     20  O   UNL     1       6.162   4.368  17.859  0.00  0.00    +0.000 OA
BRANCH  20  21
ATOM     21  C   UNL     1       7.010   5.073  17.071  0.00  0.00    +0.000 C 
ATOM     22  O   UNL     1       7.405   4.738  15.960  0.00  0.00    +0.000 OA
BRANCH  21  23
ATOM     23  C   UNL     1       7.440   6.352  17.672  0.00  0.00    +0.000 A 
ATOM     24  C   UNL     1       7.202   7.516  16.935  0.00  0.00    +0.000 A 
ATOM     25  C   UNL     1       7.727   8.738  17.354  0.00  0.00    +0.000 A 
ATOM     26  C   UNL     1       8.487   8.838  18.532  0.00  0.00    +0.000 A 
ATOM     27  C   UNL     1       8.653   7.664  19.295  0.00  0.00    +0.000 A 
ATOM     28  C   UNL     1       8.141   6.431  18.874  0.00  0.00    +0.000 A 
BRANCH  26  29
ATOM     29  C   UNL     1       9.117  10.120  18.922  0.00  0.00    +0.000 A 
ATOM     30  C   UNL     1       9.292  10.471  20.274  0.00  0.00    +0.000 A 
ATOM     31  C   UNL     1       9.851  11.698  20.643  0.00  0.00    +0.000 A 
ATOM     32  C   UNL     1      10.260  12.598  19.666  0.00  0.00    +0.000 A 
ATOM     33  C   UNL     1      10.103  12.278  18.322  0.00  0.00    +0.000 A 
ATOM     34  C   UNL     1       9.531  11.056  17.957  0.00  0.00    +0.000 A 
ENDBRANCH  26  29
ENDBRANCH  21  23
ENDBRANCH  20  21
ENDBRANCH   1  20
TORSDOF 9
ENDMDL
MODEL 4
REMARK VINA RESULT:      -8.5      0.858      8.367
REMARK  Name = 
REMARK  9 active torsions:
REMARK  status: ('A' for Active; 'I' for Inactive)
REMARK    1  A    between atoms: C_2  and  O_3
REMARK    2  A    between atoms: C_2  and  C_22
REMARK    3  A    between atoms: O_3  and  P_4
REMARK    4  A    between atoms: P_4  and  O_6
REMARK    5  A    between atoms: P_4  and  O_7
REMARK    6  A    between atoms: O_7  and  C_8
REMARK    7  A    between atoms: C_8  and  C_10
REMARK    8  A    between atoms: C_13  and  C_14
REMARK    9  A    between atoms: C_25  and  C_26
REMARK                            x       y       z     vdW  Elec       q    Type
REMARK                         _______ _______ _______ _____ _____    ______ ____
ROOT
ATOM      1  P   UNL     1       6.437   5.301  18.574  0.00  0.00    +0.000 P 
ATOM      2  O   UNL     1       6.586   4.996  20.069  0.00  0.00    +0.000 OA
ENDROOT
BRANCH   1   3
ATOM      3  O   UNL     1       7.384   4.253  17.747  0.00  0.00    +0.000 OA
ATOM      4  H   UNL     1       7.068   4.243  16.811  0.00  0.00    +0.000 HD
ENDBRANCH   1   3
BRANCH   1   5
ATOM      5  O   UNL     1       5.182   4.114  18.485  0.00  0.00    +0.000 OA
BRANCH   5   7
ATOM      6  O   UNL     1       3.671   3.886  16.822  0.00  0.00    +0.000 OA
ATOM      7  C   UNL     1       4.044   4.425  17.845  0.00  0.00    +0.000 C 
BRANCH   7   8
ATOM      8  C   UNL     1       3.313   5.545  18.536  0.00  0.00    +0.000 A 
ATOM      9  C   UNL     1       2.766   5.316  19.803  0.00  0.00    +0.000 A 
ATOM     10  C   UNL     1       2.046   6.324  20.476  0.00  0.00    +0.000 A 
ATOM     11  C   UNL     1       1.853   7.602  19.919  0.00  0.00    +0.000 A 
ATOM     12  C   UNL     1       2.431   7.815  18.653  0.00  0.00    +0.000 A 
ATOM     13  C   UNL     1       3.143   6.811  17.967  0.00  0.00    +0.000 A 
BRANCH  11  14
ATOM     14  C   UNL     1       1.078   8.664  20.625  0.00  0.00    +0.000 A 
ATOM     15  C   UNL     1       0.913   8.663  22.025  0.00  0.00    +0.000 A 
ATOM     16  C   UNL     1       0.176   9.660  22.684  0.00  0.00    +0.000 A 
ATOM     17  C   UNL     1      -0.412  10.694  21.960  0.00  0.00    +0.000 A 
ATOM     18  C   UNL     1      -0.265  10.724  20.580  0.00  0.00    +0.000 A 
ATOM     19  C   UNL     1       0.464   9.721  19.923  0.00  0.00    +0.000 A 
ENDBRANCH  11  14
ENDBRANCH   7   8
ENDBRANCH   5   7
ENDBRANCH   1   5
BRANCH   1  20
ATOM     20  O   UNL     1       7.692   6.488  18.664  0.00  0.00    +0.000 OA
BRANCH  20  21
ATOM     21  C   UNL     1       7.816   7.386  17.657  0.00  0.00    +0.000 C 
ATOM     22  O   UNL     1       7.627   7.162  16.466  0.00  0.00    +0.000 OA
BRANCH  21  23
ATOM     23  C   UNL     1       8.203   8.735  18.120  0.00  0.00    +0.000 A 
ATOM     24  C   UNL     1       7.774   9.822  17.352  0.00  0.00    +0.000 A 
ATOM     25  C   UNL     1       8.238  11.108  17.627  0.00  0.00    +0.000 A 
ATOM     26  C   UNL     1       9.126  11.350  18.688  0.00  0.00    +0.000 A 
ATOM     27  C   UNL     1       9.489  10.250  19.491  0.00  0.00    +0.000 A 
ATOM     28  C   UNL     1       9.038   8.953  19.214  0.00  0.00    +0.000 A 
BRANCH  26  29
ATOM     29  C   UNL     1       9.686  12.702  18.917  0.00  0.00    +0.000 A 
ATOM     30  C   UNL     1       9.471  13.391  20.125  0.00  0.00    +0.000 A 
ATOM     31  C   UNL     1       9.966  14.683  20.326  0.00  0.00    +0.000 A 
ATOM     32  C   UNL     1      10.698  15.311  19.325  0.00  0.00    +0.000 A 
ATOM     33  C   UNL     1      10.929  14.654  18.122  0.00  0.00    +0.000 A 
ATOM     34  C   UNL     1      10.421  13.368  17.919  0.00  0.00    +0.000 A 
ENDBRANCH  26  29
ENDBRANCH  21  23
ENDBRANCH  20  21
ENDBRANCH   1  20
TORSDOF 9
ENDMDL
MODEL 5
REMARK VINA RESULT:      -8.4      1.968      3.775
REMARK  Name = 
REMARK  9 active torsions:
REMARK  status: ('A' for Active; 'I' for Inactive)
REMARK    1  A    between atoms: C_2  and  O_3
REMARK    2  A    between atoms: C_2  and  C_22
REMARK    3  A    between atoms: O_3  and  P_4
REMARK    4  A    between atoms: P_4  and  O_6
REMARK    5  A    between atoms: P_4  and  O_7
REMARK    6  A    between atoms: O_7  and  C_8
REMARK    7  A    between atoms: C_8  and  C_10
REMARK    8  A    between atoms: C_13  and  C_14
REMARK    9  A    between atoms: C_25  and  C_26
REMARK                            x       y       z     vdW  Elec       q    Type
REMARK                         _______ _______ _______ _____ _____    ______ ____
ROOT
ATOM      1  P   UNL     1       4.305   4.376  18.734  0.00  0.00    +0.000 P 
ATOM      2  O   UNL     1       4.699   5.554  19.631  0.00  0.00    +0.000 OA
ENDROOT
BRANCH   1   3
ATOM      3  O   UNL     1       4.310   4.898  17.182  0.00  0.00    +0.000 OA
ATOM      4  H   UNL     1       4.606   4.144  16.616  0.00  0.00    +0.000 HD
ENDBRANCH   1   3
BRANCH   1   5
ATOM      5  O   UNL     1       5.982   4.004  18.531  0.00  0.00    +0.000 OA
BRANCH   5   7
ATOM      6  O   UNL     1       6.785   3.978  16.420  0.00  0.00    +0.000 OA
ATOM      7  C   UNL     1       6.639   4.536  17.488  0.00  0.00    +0.000 C 
BRANCH   7   8
ATOM      8  C   UNL     1       7.198   5.894  17.826  0.00  0.00    +0.000 A 
ATOM      9  C   UNL     1       6.878   6.981  17.007  0.00  0.00    +0.000 A 
ATOM     10  C   UNL     1       7.403   8.263  17.265  0.00  0.00    +0.000 A 
ATOM     11  C   UNL     1       8.257   8.515  18.354  0.00  0.00    +0.000 A 
ATOM     12  C   UNL     1       8.549   7.410  19.176  0.00  0.00    +0.000 A 
ATOM     13  C   UNL     1       8.039   6.122  18.921  0.00  0.00    +0.000 A 
BRANCH  11  14
ATOM     14  C   UNL     1       8.825   9.870  18.618  0.00  0.00    +0.000 A 
ATOM     15  C   UNL     1       8.725  10.917  17.680  0.00  0.00    +0.000 A 
ATOM     16  C   UNL     1       9.268  12.188  17.930  0.00  0.00    +0.000 A 
ATOM     17  C   UNL     1       9.920  12.451  19.131  0.00  0.00    +0.000 A 
ATOM     18  C   UNL     1      10.032  11.441  20.076  0.00  0.00    +0.000 A 
ATOM     19  C   UNL     1       9.498  10.168  19.820  0.00  0.00    +0.000 A 
ENDBRANCH  11  14
ENDBRANCH   7   8
ENDBRANCH   5   7
ENDBRANCH   1   5
BRANCH   1  20
ATOM     20  O   UNL     1       2.627   4.748  18.937  0.00  0.00    +0.000 OA
BRANCH  20  21
ATOM     21  C   UNL     1       2.241   5.451  20.029  0.00  0.00    +0.000 C 
ATOM     22  O   UNL     1       2.107   5.002  21.162  0.00  0.00    +0.000 OA
BRANCH  21  23
ATOM     23  C   UNL     1       1.991   6.879  19.747  0.00  0.00    +0.000 A 
ATOM     24  C   UNL     1       1.417   7.641  20.770  0.00  0.00    +0.000 A 
ATOM     25  C   UNL     1       0.996   8.948  20.526  0.00  0.00    +0.000 A 
ATOM     26  C   UNL     1       1.155   9.540  19.262  0.00  0.00    +0.000 A 
ATOM     27  C   UNL     1       1.801   8.777  18.267  0.00  0.00    +0.000 A 
ATOM     28  C   UNL     1       2.214   7.459  18.500  0.00  0.00    +0.000 A 
BRANCH  26  29
ATOM     29  C   UNL     1       0.624  10.894  18.985  0.00  0.00    +0.000 A 
ATOM     30  C   UNL     1      -0.696  11.089  18.539  0.00  0.00    +0.000 A 
ATOM     31  C   UNL     1      -1.185  12.364  18.239  0.00  0.00    +0.000 A 
ATOM     32  C   UNL     1      -0.366  13.477  18.392  0.00  0.00    +0.000 A 
ATOM     33  C   UNL     1       0.942  13.316  18.835  0.00  0.00    +0.000 A 
ATOM     34  C   UNL     1       1.432  12.039  19.119  0.00  0.00    +0.000 A 
ENDBRANCH  26  29
ENDBRANCH  21  23
ENDBRANCH  20  21
ENDBRANCH   1  20
TORSDOF 9
ENDMDL
MODEL 6
REMARK VINA RESULT:      -8.3      2.155      3.697
REMARK  Name = 
REMARK  9 active torsions:
REMARK  status: ('A' for Active; 'I' for Inactive)
REMARK    1  A    between atoms: C_2  and  O_3
REMARK    2  A    between atoms: C_2  and  C_22
REMARK    3  A    between atoms: O_3  and  P_4
REMARK    4  A    between atoms: P_4  and  O_6
REMARK    5  A    between atoms: P_4  and  O_7
REMARK    6  A    between atoms: O_7  and  C_8
REMARK    7  A    between atoms: C_8  and  C_10
REMARK    8  A    between atoms: C_13  and  C_14
REMARK    9  A    between atoms: C_25  and  C_26
REMARK                            x       y       z     vdW  Elec       q    Type
REMARK                         _______ _______ _______ _____ _____    ______ ____
ROOT
ATOM      1  P   UNL     1       4.402   3.220  19.092  0.00  0.00    +0.000 P 
ATOM      2  O   UNL     1       4.058   2.411  17.836  0.00  0.00    +0.000 OA
ENDROOT
BRANCH   1   3
ATOM      3  O   UNL     1       5.253   2.250  20.101  0.00  0.00    +0.000 OA
ATOM      4  H   UNL     1       6.042   1.925  19.604  0.00  0.00    +0.000 HD
ENDBRANCH   1   3
BRANCH   1   5
ATOM      5  O   UNL     1       5.911   3.654  18.366  0.00  0.00    +0.000 OA
BRANCH   5   7
ATOM      6  O   UNL     1       5.432   4.180  16.223  0.00  0.00    +0.000 OA
ATOM      7  C   UNL     1       5.903   4.473  17.303  0.00  0.00    +0.000 C 
BRANCH   7   8
ATOM      8  C   UNL     1       6.581   5.782  17.613  0.00  0.00    +0.000 A 
ATOM      9  C   UNL     1       6.134   6.944  16.976  0.00  0.00    +0.000 A 
ATOM     10  C   UNL     1       6.758   8.186  17.209  0.00  0.00    +0.000 A 
ATOM     11  C   UNL     1       7.843   8.321  18.095  0.00  0.00    +0.000 A 
ATOM     12  C   UNL     1       8.262   7.141  18.740  0.00  0.00    +0.000 A 
ATOM     13  C   UNL     1       7.653   5.894  18.505  0.00  0.00    +0.000 A 
BRANCH  11  14
ATOM     14  C   UNL     1       8.514   9.634  18.330  0.00  0.00    +0.000 A 
ATOM     15  C   UNL     1       9.482   9.808  19.339  0.00  0.00    +0.000 A 
ATOM     16  C   UNL     1      10.105  11.047  19.561  0.00  0.00    +0.000 A 
ATOM     17  C   UNL     1       9.781  12.148  18.774  0.00  0.00    +0.000 A 
ATOM     18  C   UNL     1       8.832  12.008  17.770  0.00  0.00    +0.000 A 
ATOM     19  C   UNL     1       8.204  10.771  17.556  0.00  0.00    +0.000 A 
ENDBRANCH  11  14
ENDBRANCH   7   8
ENDBRANCH   5   7
ENDBRANCH   1   5
BRANCH   1  20
ATOM     20  O   UNL     1       2.893   2.785  19.818  0.00  0.00    +0.000 OA
BRANCH  20  21
ATOM     21  C   UNL     1       1.763   3.401  19.396  0.00  0.00    +0.000 C 
ATOM     22  O   UNL     1       0.720   2.844  19.069  0.00  0.00    +0.000 OA
BRANCH  21  23
ATOM     23  C   UNL     1       1.875   4.874  19.367  0.00  0.00    +0.000 A 
ATOM     24  C   UNL     1       1.545   5.562  20.539  0.00  0.00    +0.000 A 
ATOM     25  C   UNL     1       1.463   6.954  20.541  0.00  0.00    +0.000 A 
ATOM     26  C   UNL     1       1.728   7.701  19.380  0.00  0.00    +0.000 A 
ATOM     27  C   UNL     1       2.128   6.988  18.231  0.00  0.00    +0.000 A 
ATOM     28  C   UNL     1       2.200   5.590  18.217  0.00  0.00    +0.000 A 
BRANCH  26  29
ATOM     29  C   UNL     1       1.550   9.171  19.366  0.00  0.00    +0.000 A 
ATOM     30  C   UNL     1       1.911   9.943  18.246  0.00  0.00    +0.000 A 
ATOM     31  C   UNL     1       1.780  11.335  18.247  0.00  0.00    +0.000 A 
ATOM     32  C   UNL     1       1.272  11.985  19.366  0.00  0.00    +0.000 A 
ATOM     33  C   UNL     1       0.903  11.248  20.486  0.00  0.00    +0.000 A 
ATOM     34  C   UNL     1       1.049   9.859  20.486  0.00  0.00    +0.000 A 
ENDBRANCH  26  29
ENDBRANCH  21  23
ENDBRANCH  20  21
ENDBRANCH   1  20
TORSDOF 9
ENDMDL
MODEL 7
REMARK VINA RESULT:      -8.3      1.772      7.650
REMARK  Name = 
REMARK  9 active torsions:
REMARK  status: ('A' for Active; 'I' for Inactive)
REMARK    1  A    between atoms: C_2  and  O_3
REMARK    2  A    between atoms: C_2  and  C_22
REMARK    3  A    between atoms: O_3  and  P_4
REMARK    4  A    between atoms: P_4  and  O_6
REMARK    5  A    between atoms: P_4  and  O_7
REMARK    6  A    between atoms: O_7  and  C_8
REMARK    7  A    between atoms: C_8  and  C_10
REMARK    8  A    between atoms: C_13  and  C_14
REMARK    9  A    between atoms: C_25  and  C_26
REMARK                            x       y       z     vdW  Elec       q    Type
REMARK                         _______ _______ _______ _____ _____    ______ ____
ROOT
ATOM      1  P   UNL     1       5.075   4.541  19.100  0.00  0.00    +0.000 P 
ATOM      2  O   UNL     1       4.968   3.092  19.587  0.00  0.00    +0.000 OA
ENDROOT
BRANCH   1   3
ATOM      3  O   UNL     1       4.233   4.667  17.701  0.00  0.00    +0.000 OA
ATOM      4  H   UNL     1       4.656   4.063  17.044  0.00  0.00    +0.000 HD
ENDBRANCH   1   3
BRANCH   1   5
ATOM      5  O   UNL     1       3.599   4.899  19.928  0.00  0.00    +0.000 OA
BRANCH   5   7
ATOM      6  O   UNL     1       1.909   4.317  18.548  0.00  0.00    +0.000 OA
ATOM      7  C   UNL     1       2.498   5.152  19.203  0.00  0.00    +0.000 C 
BRANCH   7   8
ATOM      8  C   UNL     1       2.111   6.606  19.280  0.00  0.00    +0.000 A 
ATOM      9  C   UNL     1       1.636   7.117  20.493  0.00  0.00    +0.000 A 
ATOM     10  C   UNL     1       1.232   8.462  20.605  0.00  0.00    +0.000 A 
ATOM     11  C   UNL     1       1.297   9.354  19.519  0.00  0.00    +0.000 A 
ATOM     12  C   UNL     1       1.798   8.822  18.315  0.00  0.00    +0.000 A 
ATOM     13  C   UNL     1       2.193   7.477  18.189  0.00  0.00    +0.000 A 
BRANCH  11  14
ATOM     14  C   UNL     1       0.855  10.775  19.635  0.00  0.00    +0.000 A 
ATOM     15  C   UNL     1       0.155  11.426  18.600  0.00  0.00    +0.000 A 
ATOM     16  C   UNL     1      -0.252  12.766  18.710  0.00  0.00    +0.000 A 
ATOM     17  C   UNL     1       0.023  13.491  19.866  0.00  0.00    +0.000 A 
ATOM     18  C   UNL     1       0.709  12.877  20.905  0.00  0.00    +0.000 A 
ATOM     19  C   UNL     1       1.123  11.541  20.788  0.00  0.00    +0.000 A 
ENDBRANCH  11  14
ENDBRANCH   7   8
ENDBRANCH   5   7
ENDBRANCH   1   5
BRANCH   1  20
ATOM     20  O   UNL     1       6.551   4.182  18.272  0.00  0.00    +0.000 OA
BRANCH  20  21
ATOM     21  C   UNL     1       6.971   5.019  17.292  0.00  0.00    +0.000 C 
ATOM     22  O   UNL     1       7.008   4.761  16.094  0.00  0.00    +0.000 OA
BRANCH  21  23
ATOM     23  C   UNL     1       7.393   6.343  17.795  0.00  0.00    +0.000 A 
ATOM     24  C   UNL     1       6.984   7.463  17.064  0.00  0.00    +0.000 A 
ATOM     25  C   UNL     1       7.479   8.729  17.375  0.00  0.00    +0.000 A 
ATOM     26  C   UNL     1       8.380   8.917  18.437  0.00  0.00    +0.000 A 
ATOM     27  C   UNL     1       8.722   7.784  19.203  0.00  0.00    +0.000 A 
ATOM     28  C   UNL     1       8.240   6.507  18.889  0.00  0.00    +0.000 A 
BRANCH  26  29
ATOM     29  C   UNL     1       8.972  10.248  18.704  0.00  0.00    +0.000 A 
ATOM     30  C   UNL     1       9.700  10.505  19.881  0.00  0.00    +0.000 A 
ATOM     31  C   UNL     1      10.225  11.772  20.152  0.00  0.00    +0.000 A 
ATOM     32  C   UNL     1      10.044  12.809  19.243  0.00  0.00    +0.000 A 
ATOM     33  C   UNL     1       9.332  12.584  18.071  0.00  0.00    +0.000 A 
ATOM     34  C   UNL     1       8.796  11.320  17.810  0.00  0.00    +0.000 A 
ENDBRANCH  26  29
ENDBRANCH  21  23
ENDBRANCH  20  21
ENDBRANCH   1  20
TORSDOF 9
ENDMDL
MODEL 8
REMARK VINA RESULT:      -8.2      1.787      7.800
REMARK  Name = 
REMARK  9 active torsions:
REMARK  status: ('A' for Active; 'I' for Inactive)
REMARK    1  A    between atoms: C_2  and  O_3
REMARK    2  A    between atoms: C_2  and  C_22
REMARK    3  A    between atoms: O_3  and  P_4
REMARK    4  A    between atoms: P_4  and  O_6
REMARK    5  A    between atoms: P_4  and  O_7
REMARK    6  A    between atoms: O_7  and  C_8
REMARK    7  A    between atoms: C_8  and  C_10
REMARK    8  A    between atoms: C_13  and  C_14
REMARK    9  A    between atoms: C_25  and  C_26
REMARK                            x       y       z     vdW  Elec       q    Type
REMARK                         _______ _______ _______ _____ _____    ______ ____
ROOT
ATOM      1  P   UNL     1       4.917   4.261  18.360  0.00  0.00    +0.000 P 
ATOM      2  O   UNL     1       5.109   5.320  19.452  0.00  0.00    +0.000 OA
ENDROOT
BRANCH   1   3
ATOM      3  O   UNL     1       4.801   2.799  19.088  0.00  0.00    +0.000 OA
ATOM      4  H   UNL     1       3.939   2.400  18.817  0.00  0.00    +0.000 HD
ENDBRANCH   1   3
BRANCH   1   5
ATOM      5  O   UNL     1       3.205   4.407  18.558  0.00  0.00    +0.000 OA
BRANCH   5   7
ATOM      6  O   UNL     1       2.674   3.915  20.697  0.00  0.00    +0.000 OA
ATOM      7  C   UNL     1       2.719   4.702  19.774  0.00  0.00    +0.000 C 
BRANCH   7   8
ATOM      8  C   UNL     1       2.206   6.117  19.832  0.00  0.00    +0.000 A 
ATOM      9  C   UNL     1       2.336   6.931  18.702  0.00  0.00    +0.000 A 
ATOM     10  C   UNL     1       1.901   8.272  18.719  0.00  0.00    +0.000 A 
ATOM     11  C   UNL     1       1.309   8.850  19.857  0.00  0.00    +0.000 A 
ATOM     12  C   UNL     1       1.170   8.005  20.975  0.00  0.00    +0.000 A 
ATOM     13  C   UNL     1       1.612   6.668  20.972  0.00  0.00    +0.000 A 
BRANCH  11  14
ATOM     14  C   UNL     1       0.862  10.273  19.879  0.00  0.00    +0.000 A 
ATOM     15  C   UNL     1       0.366  10.883  21.049  0.00  0.00    +0.000 A 
ATOM     16  C   UNL     1      -0.060  12.221  21.063  0.00  0.00    +0.000 A 
ATOM     17  C   UNL     1       0.005  12.992  19.906  0.00  0.00    +0.000 A 
ATOM     18  C   UNL     1       0.491  12.421  18.738  0.00  0.00    +0.000 A 
ATOM     19  C   UNL     1       0.908  11.081  18.724  0.00  0.00    +0.000 A 
ENDBRANCH  11  14
ENDBRANCH   7   8
ENDBRANCH   5   7
ENDBRANCH   1   5
BRANCH   1  20
ATOM     20  O   UNL     1       6.630   4.116  18.163  0.00  0.00    +0.000 OA
BRANCH  20  21
ATOM     21  C   UNL     1       7.254   4.913  17.261  0.00  0.00    +0.000 C 
ATOM     22  O   UNL     1       7.511   4.620  16.099  0.00  0.00    +0.000 OA
BRANCH  21  23
ATOM     23  C   UNL     1       7.612   6.240  17.804  0.00  0.00    +0.000 A 
ATOM     24  C   UNL     1       7.375   7.349  16.985  0.00  0.00    +0.000 A 
ATOM     25  C   UNL     1       7.838   8.611  17.354  0.00  0.00    +0.000 A 
ATOM     26  C   UNL     1       8.532   8.808  18.560  0.00  0.00    +0.000 A 
ATOM     27  C   UNL     1       8.696   7.688  19.401  0.00  0.00    +0.000 A 
ATOM     28  C   UNL     1       8.246   6.415  19.032  0.00  0.00    +0.000 A 
BRANCH  26  29
ATOM     29  C   UNL     1       9.101  10.132  18.902  0.00  0.00    +0.000 A 
ATOM     30  C   UNL     1       9.464  11.056  17.905  0.00  0.00    +0.000 A 
ATOM     31  C   UNL     1      10.037  12.290  18.226  0.00  0.00    +0.000 A 
ATOM     32  C   UNL     1      10.249  12.632  19.557  0.00  0.00    +0.000 A 
ATOM     33  C   UNL     1       9.898  11.741  20.564  0.00  0.00    +0.000 A 
ATOM     34  C   UNL     1       9.338  10.503  20.238  0.00  0.00    +0.000 A 
ENDBRANCH  26  29
ENDBRANCH  21  23
ENDBRANCH  20  21
ENDBRANCH   1  20
TORSDOF 9
ENDMDL
MODEL 9
REMARK VINA RESULT:      -8.2      6.031      9.138
REMARK  Name = 
REMARK  9 active torsions:
REMARK  status: ('A' for Active; 'I' for Inactive)
REMARK    1  A    between atoms: C_2  and  O_3
REMARK    2  A    between atoms: C_2  and  C_22
REMARK    3  A    between atoms: O_3  and  P_4
REMARK    4  A    between atoms: P_4  and  O_6
REMARK    5  A    between atoms: P_4  and  O_7
REMARK    6  A    between atoms: O_7  and  C_8
REMARK    7  A    between atoms: C_8  and  C_10
REMARK    8  A    between atoms: C_13  and  C_14
REMARK    9  A    between atoms: C_25  and  C_26
REMARK                            x       y       z     vdW  Elec       q    Type
REMARK                         _______ _______ _______ _____ _____    ______ ____
ROOT
ATOM      1  P   UNL     1       2.188   4.959  20.424  0.00  0.00    +0.000 P 
ATOM      2  O   UNL     1       2.490   4.451  21.838  0.00  0.00    +0.000 OA
ENDROOT
BRANCH   1   3
ATOM      3  O   UNL     1       0.617   4.638  20.096  0.00  0.00    +0.000 OA
ATOM      4  H   UNL     1       0.574   4.268  19.181  0.00  0.00    +0.000 HD
ENDBRANCH   1   3
BRANCH   1   5
ATOM      5  O   UNL     1       1.658   6.458  21.105  0.00  0.00    +0.000 OA
BRANCH   5   7
ATOM      6  O   UNL     1       2.218   7.633  19.260  0.00  0.00    +0.000 OA
ATOM      7  C   UNL     1       1.644   7.551  20.327  0.00  0.00    +0.000 C 
BRANCH   7   8
ATOM      8  C   UNL     1       0.859   8.668  20.963  0.00  0.00    +0.000 A 
ATOM      9  C   UNL     1       0.651   9.847  20.239  0.00  0.00    +0.000 A 
ATOM     10  C   UNL     1      -0.050  10.932  20.803  0.00  0.00    +0.000 A 
ATOM     11  C   UNL     1      -0.581  10.880  22.105  0.00  0.00    +0.000 A 
ATOM     12  C   UNL     1      -0.377   9.676  22.806  0.00  0.00    +0.000 A 
ATOM     13  C   UNL     1       0.332   8.591  22.256  0.00  0.00    +0.000 A 
BRANCH  11  14
ATOM     14  C   UNL     1      -1.310  12.035  22.708  0.00  0.00    +0.000 A 
ATOM     15  C   UNL     1      -0.709  13.299  22.865  0.00  0.00    +0.000 A 
ATOM     16  C   UNL     1      -1.396  14.380  23.439  0.00  0.00    +0.000 A 
ATOM     17  C   UNL     1      -2.712  14.229  23.868  0.00  0.00    +0.000 A 
ATOM     18  C   UNL     1      -3.334  12.996  23.725  0.00  0.00    +0.000 A 
ATOM     19  C   UNL     1      -2.641  11.914  23.159  0.00  0.00    +0.000 A 
ENDBRANCH  11  14
ENDBRANCH   7   8
ENDBRANCH   5   7
ENDBRANCH   1   5
BRANCH   1  20
ATOM     20  O   UNL     1       2.719   3.460  19.743  0.00  0.00    +0.000 OA
BRANCH  20  21
ATOM     21  C   UNL     1       4.049   3.235  19.614  0.00  0.00    +0.000 C 
ATOM     22  O   UNL     1       4.775   2.712  20.452  0.00  0.00    +0.000 OA
BRANCH  21  23
ATOM     23  C   UNL     1       4.593   3.677  18.313  0.00  0.00    +0.000 A 
ATOM     24  C   UNL     1       3.875   3.321  17.166  0.00  0.00    +0.000 A 
ATOM     25  C   UNL     1       4.407   3.553  15.899  0.00  0.00    +0.000 A 
ATOM     26  C   UNL     1       5.661   4.166  15.737  0.00  0.00    +0.000 A 
ATOM     27  C   UNL     1       6.333   4.581  16.905  0.00  0.00    +0.000 A 
ATOM     28  C   UNL     1       5.812   4.339  18.182  0.00  0.00    +0.000 A 
BRANCH  26  29
ATOM     29  C   UNL     1       6.260   4.327  14.393  0.00  0.00    +0.000 A 
ATOM     30  C   UNL     1       5.832   3.551  13.299  0.00  0.00    +0.000 A 
ATOM     31  C   UNL     1       6.424   3.674  12.039  0.00  0.00    +0.000 A 
ATOM     32  C   UNL     1       7.453   4.588  11.841  0.00  0.00    +0.000 A 
ATOM     33  C   UNL     1       7.896   5.371  12.901  0.00  0.00    +0.000 A 
ATOM     34  C   UNL     1       7.311   5.234  14.163  0.00  0.00    +0.000 A 
ENDBRANCH  26  29
ENDBRANCH  21  23
ENDBRANCH  20  21
ENDBRANCH   1  20
TORSDOF 9
ENDMDL
