MODEL 1
REMARK VINA RESULT:      -7.0      0.000      0.000
REMARK  Name = 
REMARK  7 active torsions:
REMARK  status: ('A' for Active; 'I' for Inactive)
REMARK    1  A    between atoms: C_1  and  N_2
REMARK    2  A    between atoms: N_2  and  C_3
REMARK    3  A    between atoms: N_2  and  S_4
REMARK    4  A    between atoms: S_4  and  O_7
REMARK    5  A    between atoms: O_7  and  C_8
REMARK    6  A    between atoms: C_12  and  C_13
REMARK    7  A    between atoms: N_15  and  C_16
REMARK                            x       y       z     vdW  Elec       q    Type
REMARK                         _______ _______ _______ _____ _____    ______ ____
ROOT
ATOM      1  C   UNL     1       4.465   3.534  19.263  0.00  0.00    +0.000 A 
ATOM      2  C   UNL     1       4.626   2.140  19.556  0.00  0.00    +0.000 A 
ATOM      3  C   UNL     1       3.454   1.433  19.439  0.00  0.00    +0.000 A 
ATOM      4  S   UNL     1       2.159   2.433  18.990  0.00  0.00    +0.000 S 
ATOM      5  C   UNL     1       3.154   3.851  18.942  0.00  0.00    +0.000 A 
ENDROOT
BRANCH   5   6
ATOM      6  C   UNL     1       2.477   5.100  18.588  0.00  0.00    +0.000 C 
ATOM      7  O   UNL     1       1.643   5.146  17.683  0.00  0.00    +0.000 OA
ATOM      8  N   UNL     1       2.852   6.230  19.307  0.00  0.00    +0.000 N 
ATOM      9  H   UNL     1       3.652   6.135  19.920  0.00  0.00    +0.000 HD
BRANCH   8  10
ATOM     10  C   UNL     1       2.296   7.525  19.163  0.00  0.00    +0.000 A 
ATOM     11  C   UNL     1       2.414   8.289  17.995  0.00  0.00    +0.000 A 
ATOM     12  C   UNL     1       1.859   9.569  17.908  0.00  0.00    +0.000 A 
ATOM     13  C   UNL     1       1.170  10.109  18.990  0.00  0.00    +0.000 A 
ATOM     14 CL   UNL     1       0.509  11.693  18.812  0.00  0.00    +0.000 Cl
ATOM     15  C   UNL     1       1.033   9.354  20.161  0.00  0.00    +0.000 A 
ATOM     16 CL   UNL     1       0.209   9.965  21.553  0.00  0.00    +0.000 Cl
ATOM     17  C   UNL     1       1.583   8.065  20.240  0.00  0.00    +0.000 A 
ENDBRANCH   8  10
ENDBRANCH   5   6
BRANCH   1  18
ATOM     18  O   UNL     1       5.446   4.474  19.293  0.00  0.00    +0.000 OA
BRANCH  18  19
ATOM     19  S   UNL     1       6.392   4.766  17.985  0.00  0.00    +0.000 S 
ATOM     20  O   UNL     1       5.873   4.000  16.871  0.00  0.00    +0.000 OA
ATOM     21  O   UNL     1       7.781   4.647  18.380  0.00  0.00    +0.000 OA
BRANCH  19  23
ATOM     22  C   UNL     1       7.367   7.213  17.523  0.00  0.00    +0.000 C 
ATOM     23  N   UNL     1       6.126   6.416  17.624  0.00  0.00    +0.000 NA
ATOM     24  C   UNL     1       5.265   6.598  16.428  0.00  0.00    +0.000 C 
ENDBRANCH  19  23
ENDBRANCH  18  19
ENDBRANCH   1  18
TORSDOF 5
ENDMDL
MODEL 2
REMARK VINA RESULT:      -6.9      1.962      3.603
REMARK  Name = 
REMARK  7 active torsions:
REMARK  status: ('A' for Active; 'I' for Inactive)
REMARK    1  A    between atoms: C_1  and  N_2
REMARK    2  A    between atoms: N_2  and  C_3
REMARK    3  A    between atoms: N_2  and  S_4
REMARK    4  A    between atoms: S_4  and  O_7
REMARK    5  A    between atoms: O_7  and  C_8
REMARK    6  A    between atoms: C_12  and  C_13
REMARK    7  A    between atoms: N_15  and  C_16
REMARK                            x       y       z     vdW  Elec       q    Type
REMARK                         _______ _______ _______ _____ _____    ______ ____
ROOT
ATOM      1  C   UNL     1       5.204   4.761  18.222  0.00  0.00    +0.000 A 
ATOM      2  C   UNL     1       6.377   4.442  17.461  0.00  0.00    +0.000 A 
ATOM      3  C   UNL     1       6.458   5.150  16.287  0.00  0.00    +0.000 A 
ATOM      4  S   UNL     1       5.132   6.189  16.086  0.00  0.00    +0.000 S 
ATOM      5  C   UNL     1       4.412   5.706  17.587  0.00  0.00    +0.000 A 
ENDROOT
BRANCH   5   6
ATOM      6  C   UNL     1       3.138   6.343  17.925  0.00  0.00    +0.000 C 
ATOM      7  O   UNL     1       2.079   5.717  17.894  0.00  0.00    +0.000 OA
ATOM      8  N   UNL     1       3.191   7.695  18.249  0.00  0.00    +0.000 N 
ATOM      9  H   UNL     1       4.074   8.165  18.096  0.00  0.00    +0.000 HD
BRANCH   8  10
ATOM     10  C   UNL     1       2.092   8.493  18.650  0.00  0.00    +0.000 A 
ATOM     11  C   UNL     1       1.379   9.321  17.772  0.00  0.00    +0.000 A 
ATOM     12  C   UNL     1       0.310  10.101  18.221  0.00  0.00    +0.000 A 
ATOM     13  C   UNL     1      -0.070  10.065  19.559  0.00  0.00    +0.000 A 
ATOM     14 CL   UNL     1      -1.400  11.053  20.043  0.00  0.00    +0.000 Cl
ATOM     15  C   UNL     1       0.624   9.236  20.448  0.00  0.00    +0.000 A 
ATOM     16 CL   UNL     1       0.224   9.154  22.127  0.00  0.00    +0.000 Cl
ATOM     17  C   UNL     1       1.691   8.445  19.990  0.00  0.00    +0.000 A 
ENDBRANCH   8  10
ENDBRANCH   5   6
BRANCH   1  18
ATOM     18  O   UNL     1       4.861   4.223  19.422  0.00  0.00    +0.000 OA
BRANCH  18  19
ATOM     19  S   UNL     1       4.071   2.789  19.522  0.00  0.00    +0.000 S 
ATOM     20  O   UNL     1       4.723   1.982  20.533  0.00  0.00    +0.000 OA
ATOM     21  O   UNL     1       3.868   2.274  18.183  0.00  0.00    +0.000 OA
BRANCH  19  23
ATOM     22  C   UNL     1       1.410   2.535  19.415  0.00  0.00    +0.000 C 
ATOM     23  N   UNL     1       2.524   3.194  20.130  0.00  0.00    +0.000 NA
ATOM     24  C   UNL     1       2.425   2.990  21.597  0.00  0.00    +0.000 C 
ENDBRANCH  19  23
ENDBRANCH  18  19
ENDBRANCH   1  18
TORSDOF 5
ENDMDL
MODEL 3
REMARK VINA RESULT:      -6.9      1.653      1.983
REMARK  Name = 
REMARK  7 active torsions:
REMARK  status: ('A' for Active; 'I' for Inactive)
REMARK    1  A    between atoms: C_1  and  N_2
REMARK    2  A    between atoms: N_2  and  C_3
REMARK    3  A    between atoms: N_2  and  S_4
REMARK    4  A    between atoms: S_4  and  O_7
REMARK    5  A    between atoms: O_7  and  C_8
REMARK    6  A    between atoms: C_12  and  C_13
REMARK    7  A    between atoms: N_15  and  C_16
REMARK                            x       y       z     vdW  Elec       q    Type
REMARK                         _______ _______ _______ _____ _____    ______ ____
ROOT
ATOM      1  C   UNL     1       4.309   4.466  19.503  0.00  0.00    +0.000 A 
ATOM      2  C   UNL     1       4.896   3.160  19.569  0.00  0.00    +0.000 A 
ATOM      3  C   UNL     1       4.065   2.231  20.146  0.00  0.00    +0.000 A 
ATOM      4  S   UNL     1       2.587   2.919  20.619  0.00  0.00    +0.000 S 
ATOM      5  C   UNL     1       3.036   4.494  20.052  0.00  0.00    +0.000 A 
ENDROOT
BRANCH   5   6
ATOM      6  C   UNL     1       2.043   5.552  20.240  0.00  0.00    +0.000 C 
ATOM      7  O   UNL     1       0.873   5.294  20.524  0.00  0.00    +0.000 OA
ATOM      8  N   UNL     1       2.488   6.857  20.051  0.00  0.00    +0.000 N 
ATOM      9  H   UNL     1       3.418   6.969  19.668  0.00  0.00    +0.000 HD
BRANCH   8  10
ATOM     10  C   UNL     1       1.713   8.030  20.226  0.00  0.00    +0.000 A 
ATOM     11  C   UNL     1       1.444   8.937  19.194  0.00  0.00    +0.000 A 
ATOM     12  C   UNL     1       0.685  10.089  19.421  0.00  0.00    +0.000 A 
ATOM     13  C   UNL     1       0.176  10.352  20.690  0.00  0.00    +0.000 A 
ATOM     14 CL   UNL     1      -0.754  11.791  20.899  0.00  0.00    +0.000 Cl
ATOM     15  C   UNL     1       0.426   9.450  21.731  0.00  0.00    +0.000 A 
ATOM     16 CL   UNL     1      -0.155   9.720  23.336  0.00  0.00    +0.000 Cl
ATOM     17  C   UNL     1       1.180   8.289  21.494  0.00  0.00    +0.000 A 
ENDBRANCH   8  10
ENDBRANCH   5   6
BRANCH   1  18
ATOM     18  O   UNL     1       4.892   5.578  18.983  0.00  0.00    +0.000 OA
BRANCH  18  19
ATOM     19  S   UNL     1       4.771   5.943  17.388  0.00  0.00    +0.000 S 
ATOM     20  O   UNL     1       4.144   7.243  17.267  0.00  0.00    +0.000 OA
ATOM     21  O   UNL     1       4.233   4.794  16.688  0.00  0.00    +0.000 OA
BRANCH  19  23
ATOM     22  C   UNL     1       7.089   7.275  17.466  0.00  0.00    +0.000 C 
ATOM     23  N   UNL     1       6.390   6.120  16.865  0.00  0.00    +0.000 NA
ATOM     24  C   UNL     1       7.173   4.869  17.025  0.00  0.00    +0.000 C 
ENDBRANCH  19  23
ENDBRANCH  18  19
ENDBRANCH   1  18
TORSDOF 5
ENDMDL
MODEL 4
REMARK VINA RESULT:      -6.8      2.047      3.628
REMARK  Name = 
REMARK  7 active torsions:
REMARK  status: ('A' for Active; 'I' for Inactive)
REMARK    1  A    between atoms: C_1  and  N_2
REMARK    2  A    between atoms: N_2  and  C_3
REMARK    3  A    between atoms: N_2  and  S_4
REMARK    4  A    between atoms: S_4  and  O_7
REMARK    5  A    between atoms: O_7  and  C_8
REMARK    6  A    between atoms: C_12  and  C_13
REMARK    7  A    between atoms: N_15  and  C_16
REMARK                            x       y       z     vdW  Elec       q    Type
REMARK                         _______ _______ _______ _____ _____    ______ ____
ROOT
ATOM      1  C   UNL     1       4.253   4.165  17.194  0.00  0.00    +0.000 A 
ATOM      2  C   UNL     1       5.499   3.988  16.508  0.00  0.00    +0.000 A 
ATOM      3  C   UNL     1       6.128   5.177  16.232  0.00  0.00    +0.000 A 
ATOM      4  S   UNL     1       5.228   6.506  16.782  0.00  0.00    +0.000 S 
ATOM      5  C   UNL     1       3.963   5.503  17.410  0.00  0.00    +0.000 A 
ENDROOT
BRANCH   5   6
ATOM      6  C   UNL     1       2.838   6.202  18.036  0.00  0.00    +0.000 C 
ATOM      7  O   UNL     1       1.871   5.588  18.487  0.00  0.00    +0.000 OA
ATOM      8  N   UNL     1       2.913   7.591  18.062  0.00  0.00    +0.000 N 
ATOM      9  H   UNL     1       3.663   8.016  17.532  0.00  0.00    +0.000 HD
BRANCH   8  10
ATOM     10  C   UNL     1       1.964   8.459  18.657  0.00  0.00    +0.000 A 
ATOM     11  C   UNL     1       1.221   9.400  17.933  0.00  0.00    +0.000 A 
ATOM     12  C   UNL     1       0.307  10.245  18.569  0.00  0.00    +0.000 A 
ATOM     13  C   UNL     1       0.116  10.161  19.945  0.00  0.00    +0.000 A 
ATOM     14 CL   UNL     1      -1.029  11.233  20.664  0.00  0.00    +0.000 Cl
ATOM     15  C   UNL     1       0.843   9.219  20.682  0.00  0.00    +0.000 A 
ATOM     16 CL   UNL     1       0.676   9.070  22.396  0.00  0.00    +0.000 Cl
ATOM     17  C   UNL     1       1.752   8.365  20.037  0.00  0.00    +0.000 A 
ENDBRANCH   8  10
ENDBRANCH   5   6
BRANCH   1  18
ATOM     18  O   UNL     1       3.417   3.173  17.598  0.00  0.00    +0.000 OA
BRANCH  18  19
ATOM     19  S   UNL     1       3.750   2.254  18.916  0.00  0.00    +0.000 S 
ATOM     20  O   UNL     1       4.749   2.943  19.706  0.00  0.00    +0.000 OA
ATOM     21  O   UNL     1       3.959   0.886  18.488  0.00  0.00    +0.000 OA
BRANCH  19  23
ATOM     22  C   UNL     1       2.284   3.271  20.909  0.00  0.00    +0.000 C 
ATOM     23  N   UNL     1       2.301   2.267  19.823  0.00  0.00    +0.000 NA
ATOM     24  C   UNL     1       1.097   2.378  18.961  0.00  0.00    +0.000 C 
ENDBRANCH  19  23
ENDBRANCH  18  19
ENDBRANCH   1  18
TORSDOF 5
ENDMDL
MODEL 5
REMARK VINA RESULT:      -6.7      2.162      3.731
REMARK  Name = 
REMARK  7 active torsions:
REMARK  status: ('A' for Active; 'I' for Inactive)
REMARK    1  A    between atoms: C_1  and  N_2
REMARK    2  A    between atoms: N_2  and  C_3
REMARK    3  A    between atoms: N_2  and  S_4
REMARK    4  A    between atoms: S_4  and  O_7
REMARK    5  A    between atoms: O_7  and  C_8
REMARK    6  A    between atoms: C_12  and  C_13
REMARK    7  A    between atoms: N_15  and  C_16
REMARK                            x       y       z     vdW  Elec       q    Type
REMARK                         _______ _______ _______ _____ _____    ______ ____
ROOT
ATOM      1  C   UNL     1       4.921   4.070  17.105  0.00  0.00    +0.000 A 
ATOM      2  C   UNL     1       5.566   3.255  16.119  0.00  0.00    +0.000 A 
ATOM      3  C   UNL     1       6.037   3.982  15.052  0.00  0.00    +0.000 A 
ATOM      4  S   UNL     1       5.702   5.636  15.223  0.00  0.00    +0.000 S 
ATOM      5  C   UNL     1       4.910   5.410  16.748  0.00  0.00    +0.000 A 
ENDROOT
BRANCH   5   6
ATOM      6  C   UNL     1       4.377   6.617  17.382  0.00  0.00    +0.000 C 
ATOM      7  O   UNL     1       5.085   7.603  17.584  0.00  0.00    +0.000 OA
ATOM      8  N   UNL     1       3.041   6.572  17.768  0.00  0.00    +0.000 N 
ATOM      9  H   UNL     1       2.579   5.674  17.707  0.00  0.00    +0.000 HD
BRANCH   8  10
ATOM     10  C   UNL     1       2.312   7.638  18.352  0.00  0.00    +0.000 A 
ATOM     11  C   UNL     1       1.791   8.710  17.616  0.00  0.00    +0.000 A 
ATOM     12  C   UNL     1       1.092   9.746  18.242  0.00  0.00    +0.000 A 
ATOM     13  C   UNL     1       0.896   9.726  19.620  0.00  0.00    +0.000 A 
ATOM     14 CL   UNL     1       0.022  11.036  20.326  0.00  0.00    +0.000 Cl
ATOM     15  C   UNL     1       1.401   8.656  20.369  0.00  0.00    +0.000 A 
ATOM     16 CL   UNL     1       1.217   8.573  22.085  0.00  0.00    +0.000 Cl
ATOM     17  C   UNL     1       2.094   7.613  19.734  0.00  0.00    +0.000 A 
ENDBRANCH   8  10
ENDBRANCH   5   6
BRANCH   1  18
ATOM     18  O   UNL     1       4.364   3.630  18.264  0.00  0.00    +0.000 OA
BRANCH  18  19
ATOM     19  S   UNL     1       3.098   2.586  18.263  0.00  0.00    +0.000 S 
ATOM     20  O   UNL     1       3.622   1.239  18.347  0.00  0.00    +0.000 OA
ATOM     21  O   UNL     1       2.187   2.961  17.202  0.00  0.00    +0.000 OA
BRANCH  19  23
ATOM     22  C   UNL     1       2.769   4.104  20.442  0.00  0.00    +0.000 C 
ATOM     23  N   UNL     1       2.287   2.897  19.737  0.00  0.00    +0.000 NA
ATOM     24  C   UNL     1       0.812   2.917  19.573  0.00  0.00    +0.000 C 
ENDBRANCH  19  23
ENDBRANCH  18  19
ENDBRANCH   1  18
TORSDOF 5
ENDMDL
MODEL 6
REMARK VINA RESULT:      -6.7      1.922      3.883
REMARK  Name = 
REMARK  7 active torsions:
REMARK  status: ('A' for Active; 'I' for Inactive)
REMARK    1  A    between atoms: C_1  and  N_2
REMARK    2  A    between atoms: N_2  and  C_3
REMARK    3  A    between atoms: N_2  and  S_4
REMARK    4  A    between atoms: S_4  and  O_7
REMARK    5  A    between atoms: O_7  and  C_8
REMARK    6  A    between atoms: C_12  and  C_13
REMARK    7  A    between atoms: N_15  and  C_16
REMARK                            x       y       z     vdW  Elec       q    Type
REMARK                         _______ _______ _______ _____ _____    ______ ____
ROOT
ATOM      1  C   UNL     1       4.383   3.998  16.936  0.00  0.00    +0.000 A 
ATOM      2  C   UNL     1       5.579   3.898  16.152  0.00  0.00    +0.000 A 
ATOM      3  C   UNL     1       6.081   5.124  15.788  0.00  0.00    +0.000 A 
ATOM      4  S   UNL     1       5.121   6.395  16.372  0.00  0.00    +0.000 S 
ATOM      5  C   UNL     1       3.999   5.316  17.134  0.00  0.00    +0.000 A 
ENDROOT
BRANCH   5   6
ATOM      6  C   UNL     1       2.875   5.943  17.831  0.00  0.00    +0.000 C 
ATOM      7  O   UNL     1       1.754   5.436  17.830  0.00  0.00    +0.000 OA
ATOM      8  N   UNL     1       3.140   7.154  18.464  0.00  0.00    +0.000 N 
ATOM      9  H   UNL     1       4.043   7.574  18.283  0.00  0.00    +0.000 HD
BRANCH   8  10
ATOM     10  C   UNL     1       2.216   7.905  19.232  0.00  0.00    +0.000 A 
ATOM     11  C   UNL     1       1.861   7.578  20.547  0.00  0.00    +0.000 A 
ATOM     12  C   UNL     1       0.933   8.343  21.258  0.00  0.00    +0.000 A 
ATOM     13  C   UNL     1       0.343   9.457  20.666  0.00  0.00    +0.000 A 
ATOM     14 CL   UNL     1      -0.793  10.358  21.602  0.00  0.00    +0.000 Cl
ATOM     15  C   UNL     1       0.695   9.804  19.356  0.00  0.00    +0.000 A 
ATOM     16 CL   UNL     1      -0.009  11.160  18.547  0.00  0.00    +0.000 Cl
ATOM     17  C   UNL     1       1.636   9.038  18.650  0.00  0.00    +0.000 A 
ENDBRANCH   8  10
ENDBRANCH   5   6
BRANCH   1  18
ATOM     18  O   UNL     1       3.669   2.957  17.439  0.00  0.00    +0.000 OA
BRANCH  18  19
ATOM     19  S   UNL     1       3.918   2.405  18.963  0.00  0.00    +0.000 S 
ATOM     20  O   UNL     1       5.029   3.137  19.534  0.00  0.00    +0.000 OA
ATOM     21  O   UNL     1       3.921   0.957  18.939  0.00  0.00    +0.000 OA
BRANCH  19  23
ATOM     22  C   UNL     1       1.266   2.288  19.297  0.00  0.00    +0.000 C 
ATOM     23  N   UNL     1       2.516   2.877  19.823  0.00  0.00    +0.000 NA
ATOM     24  C   UNL     1       2.650   2.652  21.284  0.00  0.00    +0.000 C 
ENDBRANCH  19  23
ENDBRANCH  18  19
ENDBRANCH   1  18
TORSDOF 5
ENDMDL
MODEL 7
REMARK VINA RESULT:      -6.7      2.084      4.029
REMARK  Name = 
REMARK  7 active torsions:
REMARK  status: ('A' for Active; 'I' for Inactive)
REMARK    1  A    between atoms: C_1  and  N_2
REMARK    2  A    between atoms: N_2  and  C_3
REMARK    3  A    between atoms: N_2  and  S_4
REMARK    4  A    between atoms: S_4  and  O_7
REMARK    5  A    between atoms: O_7  and  C_8
REMARK    6  A    between atoms: C_12  and  C_13
REMARK    7  A    between atoms: N_15  and  C_16
REMARK                            x       y       z     vdW  Elec       q    Type
REMARK                         _______ _______ _______ _____ _____    ______ ____
ROOT
ATOM      1  C   UNL     1       4.724   4.021  16.559  0.00  0.00    +0.000 A 
ATOM      2  C   UNL     1       5.628   3.363  15.662  0.00  0.00    +0.000 A 
ATOM      3  C   UNL     1       6.625   4.192  15.207  0.00  0.00    +0.000 A 
ATOM      4  S   UNL     1       6.476   5.758  15.842  0.00  0.00    +0.000 S 
ATOM      5  C   UNL     1       5.057   5.352  16.751  0.00  0.00    +0.000 A 
ENDROOT
BRANCH   5   6
ATOM      6  C   UNL     1       4.464   6.436  17.537  0.00  0.00    +0.000 C 
ATOM      7  O   UNL     1       5.006   7.538  17.624  0.00  0.00    +0.000 OA
ATOM      8  N   UNL     1       3.278   6.139  18.199  0.00  0.00    +0.000 N 
ATOM      9  H   UNL     1       2.987   5.170  18.201  0.00  0.00    +0.000 HD
BRANCH   8  10
ATOM     10  C   UNL     1       2.513   7.047  18.973  0.00  0.00    +0.000 A 
ATOM     11  C   UNL     1       2.108   6.787  20.289  0.00  0.00    +0.000 A 
ATOM     12  C   UNL     1       1.340   7.709  21.005  0.00  0.00    +0.000 A 
ATOM     13  C   UNL     1       0.967   8.915  20.419  0.00  0.00    +0.000 A 
ATOM     14 CL   UNL     1       0.022  10.009  21.362  0.00  0.00    +0.000 Cl
ATOM     15  C   UNL     1       1.373   9.196  19.109  0.00  0.00    +0.000 A 
ATOM     16 CL   UNL     1       0.930  10.662  18.307  0.00  0.00    +0.000 Cl
ATOM     17  C   UNL     1       2.152   8.270  18.397  0.00  0.00    +0.000 A 
ENDBRANCH   8  10
ENDBRANCH   5   6
BRANCH   1  18
ATOM     18  O   UNL     1       3.649   3.453  17.166  0.00  0.00    +0.000 OA
BRANCH  18  19
ATOM     19  S   UNL     1       3.778   2.724  18.630  0.00  0.00    +0.000 S 
ATOM     20  O   UNL     1       4.922   3.287  19.317  0.00  0.00    +0.000 OA
ATOM     21  O   UNL     1       3.655   1.292  18.449  0.00  0.00    +0.000 OA
BRANCH  19  23
ATOM     22  C   UNL     1       1.133   2.600  19.012  0.00  0.00    +0.000 C 
ATOM     23  N   UNL     1       2.385   3.230  19.484  0.00  0.00    +0.000 NA
ATOM     24  C   UNL     1       2.544   3.090  20.953  0.00  0.00    +0.000 C 
ENDBRANCH  19  23
ENDBRANCH  18  19
ENDBRANCH   1  18
TORSDOF 5
ENDMDL
MODEL 8
REMARK VINA RESULT:      -6.6      1.096      1.143
REMARK  Name = 
REMARK  7 active torsions:
REMARK  status: ('A' for Active; 'I' for Inactive)
REMARK    1  A    between atoms: C_1  and  N_2
REMARK    2  A    between atoms: N_2  and  C_3
REMARK    3  A    between atoms: N_2  and  S_4
REMARK    4  A    between atoms: S_4  and  O_7
REMARK    5  A    between atoms: O_7  and  C_8
REMARK    6  A    between atoms: C_12  and  C_13
REMARK    7  A    between atoms: N_15  and  C_16
REMARK                            x       y       z     vdW  Elec       q    Type
REMARK                         _______ _______ _______ _____ _____    ______ ____
ROOT
ATOM      1  C   UNL     1       4.090   3.724  19.329  0.00  0.00    +0.000 A 
ATOM      2  C   UNL     1       4.540   2.441  19.785  0.00  0.00    +0.000 A 
ATOM      3  C   UNL     1       3.814   1.970  20.851  0.00  0.00    +0.000 A 
ATOM      4  S   UNL     1       2.600   3.061  21.315  0.00  0.00    +0.000 S 
ATOM      5  C   UNL     1       3.028   4.201  20.082  0.00  0.00    +0.000 A 
ENDROOT
BRANCH   5   6
ATOM      6  C   UNL     1       2.236   5.431  20.040  0.00  0.00    +0.000 C 
ATOM      7  O   UNL     1       1.155   5.520  20.622  0.00  0.00    +0.000 OA
ATOM      8  N   UNL     1       2.758   6.475  19.283  0.00  0.00    +0.000 N 
ATOM      9  H   UNL     1       3.568   6.264  18.713  0.00  0.00    +0.000 HD
BRANCH   8  10
ATOM     10  C   UNL     1       2.184   7.763  19.143  0.00  0.00    +0.000 A 
ATOM     11  C   UNL     1       2.260   8.517  17.964  0.00  0.00    +0.000 A 
ATOM     12  C   UNL     1       1.690   9.790  17.881  0.00  0.00    +0.000 A 
ATOM     13  C   UNL     1       1.028  10.334  18.978  0.00  0.00    +0.000 A 
ATOM     14 CL   UNL     1       0.346  11.910  18.805  0.00  0.00    +0.000 Cl
ATOM     15  C   UNL     1       0.933   9.590  20.160  0.00  0.00    +0.000 A 
ATOM     16 CL   UNL     1       0.145  10.206  21.569  0.00  0.00    +0.000 Cl
ATOM     17  C   UNL     1       1.499   8.306  20.235  0.00  0.00    +0.000 A 
ENDBRANCH   8  10
ENDBRANCH   5   6
BRANCH   1  18
ATOM     18  O   UNL     1       4.614   4.431  18.293  0.00  0.00    +0.000 OA
BRANCH  18  19
ATOM     19  S   UNL     1       6.118   5.080  18.374  0.00  0.00    +0.000 S 
ATOM     20  O   UNL     1       6.984   4.327  17.492  0.00  0.00    +0.000 OA
ATOM     21  O   UNL     1       6.467   5.274  19.766  0.00  0.00    +0.000 OA
BRANCH  19  23
ATOM     22  C   UNL     1       7.232   7.336  17.464  0.00  0.00    +0.000 C 
ATOM     23  N   UNL     1       5.948   6.640  17.692  0.00  0.00    +0.000 NA
ATOM     24  C   UNL     1       5.111   6.630  16.466  0.00  0.00    +0.000 C 
ENDBRANCH  19  23
ENDBRANCH  18  19
ENDBRANCH   1  18
TORSDOF 5
ENDMDL
MODEL 9
REMARK VINA RESULT:      -6.6      2.057      3.885
REMARK  Name = 
REMARK  7 active torsions:
REMARK  status: ('A' for Active; 'I' for Inactive)
REMARK    1  A    between atoms: C_1  and  N_2
REMARK    2  A    between atoms: N_2  and  C_3
REMARK    3  A    between atoms: N_2  and  S_4
REMARK    4  A    between atoms: S_4  and  O_7
REMARK    5  A    between atoms: O_7  and  C_8
REMARK    6  A    between atoms: C_12  and  C_13
REMARK    7  A    between atoms: N_15  and  C_16
REMARK                            x       y       z     vdW  Elec       q    Type
REMARK                         _______ _______ _______ _____ _____    ______ ____
ROOT
ATOM      1  C   UNL     1       4.093   4.276  17.120  0.00  0.00    +0.000 A 
ATOM      2  C   UNL     1       5.017   4.075  16.042  0.00  0.00    +0.000 A 
ATOM      3  C   UNL     1       5.751   5.199  15.754  0.00  0.00    +0.000 A 
ATOM      4  S   UNL     1       5.333   6.498  16.761  0.00  0.00    +0.000 S 
ATOM      5  C   UNL     1       4.146   5.569  17.616  0.00  0.00    +0.000 A 
ENDROOT
BRANCH   5   6
ATOM      6  C   UNL     1       3.419   6.272  18.675  0.00  0.00    +0.000 C 
ATOM      7  O   UNL     1       3.480   5.907  19.849  0.00  0.00    +0.000 OA
ATOM      8  N   UNL     1       2.636   7.350  18.274  0.00  0.00    +0.000 N 
ATOM      9  H   UNL     1       2.519   7.483  17.278  0.00  0.00    +0.000 HD
BRANCH   8  10
ATOM     10  C   UNL     1       1.890   8.196  19.133  0.00  0.00    +0.000 A 
ATOM     11  C   UNL     1       1.629   7.893  20.476  0.00  0.00    +0.000 A 
ATOM     12  C   UNL     1       0.874   8.753  21.278  0.00  0.00    +0.000 A 
ATOM     13  C   UNL     1       0.370   9.939  20.752  0.00  0.00    +0.000 A 
ATOM     14 CL   UNL     1      -0.551  10.955  21.800  0.00  0.00    +0.000 Cl
ATOM     15  C   UNL     1       0.631  10.262  19.415  0.00  0.00    +0.000 A 
ATOM     16 CL   UNL     1       0.021  11.705  18.686  0.00  0.00    +0.000 Cl
ATOM     17  C   UNL     1       1.398   9.399  18.616  0.00  0.00    +0.000 A 
ENDBRANCH   8  10
ENDBRANCH   5   6
BRANCH   1  18
ATOM     18  O   UNL     1       3.242   3.345  17.625  0.00  0.00    +0.000 OA
BRANCH  18  19
ATOM     19  S   UNL     1       3.682   2.364  18.864  0.00  0.00    +0.000 S 
ATOM     20  O   UNL     1       4.789   2.984  19.562  0.00  0.00    +0.000 OA
ATOM     21  O   UNL     1       3.788   1.007  18.368  0.00  0.00    +0.000 OA
BRANCH  19  23
ATOM     22  C   UNL     1       2.690   2.769  21.315  0.00  0.00    +0.000 C 
ATOM     23  N   UNL     1       2.344   2.392  19.928  0.00  0.00    +0.000 NA
ATOM     24  C   UNL     1       1.225   3.216  19.405  0.00  0.00    +0.000 C 
ENDBRANCH  19  23
ENDBRANCH  18  19
ENDBRANCH   1  18
TORSDOF 5
ENDMDL
