MODEL 1
REMARK VINA RESULT:      -8.0      0.000      0.000
REMARK  Name = 
REMARK  12 active torsions:
REMARK  status: ('A' for Active; 'I' for Inactive)
REMARK    1  A    between atoms: C_1  and  C_2
REMARK    2  A    between atoms: C_4  and  C_5
REMARK    3  A    between atoms: C_7  and  S_8
REMARK    4  A    between atoms: S_8  and  C_9
REMARK    5  A    between atoms: C_10  and  C_11
REMARK    6  A    between atoms: C_11  and  C_12
REMARK    7  A    between atoms: C_11  and  C_13
REMARK    8  A    between atoms: N_19  and  O_20
REMARK    9  A    between atoms: O_20  and  C_21
REMARK   10  A    between atoms: C_21  and  C_22
REMARK   11  A    between atoms: C_22  and  O_23
REMARK   12  A    between atoms: O_23  and  C_24
REMARK                            x       y       z     vdW  Elec       q    Type
REMARK                         _______ _______ _______ _____ _____    ______ ____
ROOT
ATOM      1  C   UNL     1       4.898   5.029  17.259  0.00  0.00    +0.000 A 
ATOM      2  C   UNL     1       3.865   4.306  17.775  0.00  0.00    +0.000 A 
ATOM      3  C   UNL     1       2.761   5.105  18.386  0.00  0.00    +0.000 A 
ATOM      4  O   UNL     1       1.910   4.616  19.124  0.00  0.00    +0.000 OA
ATOM      5  N   UNL     1       2.731   6.435  18.121  0.00  0.00    +0.000 N 
ATOM      6  C   UNL     1       3.791   7.168  17.674  0.00  0.00    +0.000 A 
ATOM      7  O   UNL     1       3.711   8.394  17.632  0.00  0.00    +0.000 OA
ATOM      8  N   UNL     1       4.899   6.419  17.329  0.00  0.00    +0.000 N 
ATOM      9  H   UNL     1       1.965   6.958  18.526  0.00  0.00    +0.000 HD
ENDROOT
BRANCH   2  10
ATOM     10  C   UNL     1       3.729   2.767  17.875  0.00  0.00    +0.000 C 
ATOM     11  C   UNL     1       4.169   2.248  19.253  0.00  0.00    +0.000 C 
ATOM     12  C   UNL     1       2.333   2.179  17.576  0.00  0.00    +0.000 C 
ENDBRANCH   2  10
BRANCH   1  13
ATOM     13  S   UNL     1       6.347   4.202  16.736  0.00  0.00    +0.000 S 
BRANCH  13  20
ATOM     14  C   UNL     1       5.312   2.547  11.790  0.00  0.00    +0.000 C 
ATOM     15  C   UNL     1       5.994   3.530  12.698  0.00  0.00    +0.000 A 
ATOM     16  C   UNL     1       7.013   4.359  12.207  0.00  0.00    +0.000 A 
ATOM     17  C   UNL     1       7.717   5.204  13.067  0.00  0.00    +0.000 A 
ATOM     18  C   UNL     1       8.839   6.068  12.569  0.00  0.00    +0.000 C 
ATOM     19  C   UNL     1       7.408   5.188  14.436  0.00  0.00    +0.000 A 
ATOM     20  C   UNL     1       6.407   4.350  14.955  0.00  0.00    +0.000 A 
ATOM     21  C   UNL     1       5.681   3.548  14.071  0.00  0.00    +0.000 A 
ENDBRANCH  13  20
ENDBRANCH   1  13
BRANCH   8  22
ATOM     22  O   UNL     1       5.951   7.134  16.682  0.00  0.00    +0.000 OA
BRANCH  22  23
ATOM     23  C   UNL     1       7.118   7.245  17.510  0.00  0.00    +0.000 C 
BRANCH  23  24
ATOM     24  C   UNL     1       7.700   8.648  17.502  0.00  0.00    +0.000 C 
BRANCH  24  25
ATOM     25  O   UNL     1       8.509   8.789  18.669  0.00  0.00    +0.000 OA
BRANCH  25  26
ATOM     26  C   UNL     1       9.019  10.033  18.898  0.00  0.00    +0.000 A 
ATOM     27  C   UNL     1       9.658  10.450  20.075  0.00  0.00    +0.000 A 
ATOM     28  C   UNL     1      10.094  11.769  20.189  0.00  0.00    +0.000 A 
ATOM     29  C   UNL     1       9.907  12.667  19.141  0.00  0.00    +0.000 A 
ATOM     30  C   UNL     1       9.305  12.250  17.958  0.00  0.00    +0.000 A 
ATOM     31  C   UNL     1       8.860  10.930  17.838  0.00  0.00    +0.000 A 
ENDBRANCH  25  26
ENDBRANCH  24  25
ENDBRANCH  23  24
ENDBRANCH  22  23
ENDBRANCH   8  22
TORSDOF 8
ENDMDL
MODEL 2
REMARK VINA RESULT:      -8.0      3.059      7.288
REMARK  Name = 
REMARK  12 active torsions:
REMARK  status: ('A' for Active; 'I' for Inactive)
REMARK    1  A    between atoms: C_1  and  C_2
REMARK    2  A    between atoms: C_4  and  C_5
REMARK    3  A    between atoms: C_7  and  S_8
REMARK    4  A    between atoms: S_8  and  C_9
REMARK    5  A    between atoms: C_10  and  C_11
REMARK    6  A    between atoms: C_11  and  C_12
REMARK    7  A    between atoms: C_11  and  C_13
REMARK    8  A    between atoms: N_19  and  O_20
REMARK    9  A    between atoms: O_20  and  C_21
REMARK   10  A    between atoms: C_21  and  C_22
REMARK   11  A    between atoms: C_22  and  O_23
REMARK   12  A    between atoms: O_23  and  C_24
REMARK                            x       y       z     vdW  Elec       q    Type
REMARK                         _______ _______ _______ _____ _____    ______ ____
ROOT
ATOM      1  C   UNL     1       3.812   5.816  18.474  0.00  0.00    +0.000 A 
ATOM      2  C   UNL     1       3.177   4.715  18.966  0.00  0.00    +0.000 A 
ATOM      3  C   UNL     1       4.064   3.676  19.570  0.00  0.00    +0.000 A 
ATOM      4  O   UNL     1       3.691   2.530  19.803  0.00  0.00    +0.000 OA
ATOM      5  N   UNL     1       5.346   4.029  19.842  0.00  0.00    +0.000 N 
ATOM      6  C   UNL     1       5.999   5.091  19.289  0.00  0.00    +0.000 A 
ATOM      7  O   UNL     1       7.209   5.224  19.465  0.00  0.00    +0.000 OA
ATOM      8  N   UNL     1       5.198   5.924  18.533  0.00  0.00    +0.000 N 
ATOM      9  H   UNL     1       5.928   3.320  20.269  0.00  0.00    +0.000 HD
ENDROOT
BRANCH   2  10
ATOM     10  C   UNL     1       1.668   4.374  18.910  0.00  0.00    +0.000 C 
ATOM     11  C   UNL     1       1.383   3.230  17.925  0.00  0.00    +0.000 C 
ATOM     12  C   UNL     1       0.994   4.018  20.253  0.00  0.00    +0.000 C 
ENDBRANCH   2  10
BRANCH   1  13
ATOM     13  S   UNL     1       2.905   6.981  17.537  0.00  0.00    +0.000 S 
BRANCH  13  20
ATOM     14  C   UNL     1       0.411   8.380  22.020  0.00  0.00    +0.000 C 
ATOM     15  C   UNL     1       1.033   8.790  20.716  0.00  0.00    +0.000 A 
ATOM     16  C   UNL     1       0.780  10.061  20.179  0.00  0.00    +0.000 A 
ATOM     17  C   UNL     1       1.274  10.411  18.921  0.00  0.00    +0.000 A 
ATOM     18  C   UNL     1       0.979  11.751  18.311  0.00  0.00    +0.000 C 
ATOM     19  C   UNL     1       2.004   9.461  18.191  0.00  0.00    +0.000 A 
ATOM     20  C   UNL     1       2.251   8.174  18.698  0.00  0.00    +0.000 A 
ATOM     21  C   UNL     1       1.789   7.859  19.978  0.00  0.00    +0.000 A 
ENDBRANCH  13  20
ENDBRANCH   1  13
BRANCH   8  22
ATOM     22  O   UNL     1       5.805   7.141  18.099  0.00  0.00    +0.000 OA
BRANCH  22  23
ATOM     23  C   UNL     1       6.727   6.931  17.020  0.00  0.00    +0.000 C 
BRANCH  23  24
ATOM     24  C   UNL     1       6.315   5.775  16.124  0.00  0.00    +0.000 C 
BRANCH  24  25
ATOM     25  O   UNL     1       7.411   5.483  15.259  0.00  0.00    +0.000 OA
BRANCH  25  26
ATOM     26  C   UNL     1       7.099   4.864  14.085  0.00  0.00    +0.000 A 
ATOM     27  C   UNL     1       7.804   4.997  12.880  0.00  0.00    +0.000 A 
ATOM     28  C   UNL     1       7.346   4.337  11.740  0.00  0.00    +0.000 A 
ATOM     29  C   UNL     1       6.202   3.544  11.795  0.00  0.00    +0.000 A 
ATOM     30  C   UNL     1       5.518   3.382  12.996  0.00  0.00    +0.000 A 
ATOM     31  C   UNL     1       5.968   4.045  14.142  0.00  0.00    +0.000 A 
ENDBRANCH  25  26
ENDBRANCH  24  25
ENDBRANCH  23  24
ENDBRANCH  22  23
ENDBRANCH   8  22
TORSDOF 8
ENDMDL
MODEL 3
REMARK VINA RESULT:      -7.9      3.321      7.111
REMARK  Name = 
REMARK  12 active torsions:
REMARK  status: ('A' for Active; 'I' for Inactive)
REMARK    1  A    between atoms: C_1  and  C_2
REMARK    2  A    between atoms: C_4  and  C_5
REMARK    3  A    between atoms: C_7  and  S_8
REMARK    4  A    between atoms: S_8  and  C_9
REMARK    5  A    between atoms: C_10  and  C_11
REMARK    6  A    between atoms: C_11  and  C_12
REMARK    7  A    between atoms: C_11  and  C_13
REMARK    8  A    between atoms: N_19  and  O_20
REMARK    9  A    between atoms: O_20  and  C_21
REMARK   10  A    between atoms: C_21  and  C_22
REMARK   11  A    between atoms: C_22  and  O_23
REMARK   12  A    between atoms: O_23  and  C_24
REMARK                            x       y       z     vdW  Elec       q    Type
REMARK                         _______ _______ _______ _____ _____    ______ ____
ROOT
ATOM      1  C   UNL     1       3.475   5.199  18.613  0.00  0.00    +0.000 A 
ATOM      2  C   UNL     1       3.027   4.087  19.259  0.00  0.00    +0.000 A 
ATOM      3  C   UNL     1       4.088   3.160  19.757  0.00  0.00    +0.000 A 
ATOM      4  O   UNL     1       3.857   2.006  20.107  0.00  0.00    +0.000 OA
ATOM      5  N   UNL     1       5.361   3.627  19.792  0.00  0.00    +0.000 N 
ATOM      6  C   UNL     1       5.821   4.699  19.084  0.00  0.00    +0.000 A 
ATOM      7  O   UNL     1       7.027   4.935  19.047  0.00  0.00    +0.000 OA
ATOM      8  N   UNL     1       4.838   5.417  18.432  0.00  0.00    +0.000 N 
ATOM      9  H   UNL     1       6.063   2.993  20.150  0.00  0.00    +0.000 HD
ENDROOT
BRANCH   2  10
ATOM     10  C   UNL     1       1.564   3.628  19.475  0.00  0.00    +0.000 C 
ATOM     11  C   UNL     1       1.213   2.423  18.588  0.00  0.00    +0.000 C 
ATOM     12  C   UNL     1       1.159   3.279  20.924  0.00  0.00    +0.000 C 
ENDBRANCH   2  10
BRANCH   1  13
ATOM     13  S   UNL     1       2.330   6.229  17.784  0.00  0.00    +0.000 S 
BRANCH  13  20
ATOM     14  C   UNL     1       0.554   8.588  22.205  0.00  0.00    +0.000 C 
ATOM     15  C   UNL     1       1.161   8.717  20.837  0.00  0.00    +0.000 A 
ATOM     16  C   UNL     1       1.173   9.956  20.181  0.00  0.00    +0.000 A 
ATOM     17  C   UNL     1       1.645  10.061  18.871  0.00  0.00    +0.000 A 
ATOM     18  C   UNL     1       1.628  11.371  18.137  0.00  0.00    +0.000 C 
ATOM     19  C   UNL     1       2.080   8.902  18.213  0.00  0.00    +0.000 A 
ATOM     20  C   UNL     1       2.056   7.645  18.841  0.00  0.00    +0.000 A 
ATOM     21  C   UNL     1       1.626   7.568  20.168  0.00  0.00    +0.000 A 
ENDBRANCH  13  20
ENDBRANCH   1  13
BRANCH   8  22
ATOM     22  O   UNL     1       5.259   6.647  17.842  0.00  0.00    +0.000 OA
BRANCH  22  23
ATOM     23  C   UNL     1       5.518   6.511  16.437  0.00  0.00    +0.000 C 
BRANCH  23  24
ATOM     24  C   UNL     1       6.997   6.622  16.109  0.00  0.00    +0.000 C 
BRANCH  24  25
ATOM     25  O   UNL     1       7.470   5.316  15.784  0.00  0.00    +0.000 OA
BRANCH  25  26
ATOM     26  C   UNL     1       7.086   4.823  14.572  0.00  0.00    +0.000 A 
ATOM     27  C   UNL     1       6.074   3.876  14.359  0.00  0.00    +0.000 A 
ATOM     28  C   UNL     1       5.814   3.427  13.065  0.00  0.00    +0.000 A 
ATOM     29  C   UNL     1       6.547   3.920  11.988  0.00  0.00    +0.000 A 
ATOM     30  C   UNL     1       7.529   4.885  12.188  0.00  0.00    +0.000 A 
ATOM     31  C   UNL     1       7.799   5.336  13.485  0.00  0.00    +0.000 A 
ENDBRANCH  25  26
ENDBRANCH  24  25
ENDBRANCH  23  24
ENDBRANCH  22  23
ENDBRANCH   8  22
TORSDOF 8
ENDMDL
MODEL 4
REMARK VINA RESULT:      -7.9      4.274      7.108
REMARK  Name = 
REMARK  12 active torsions:
REMARK  status: ('A' for Active; 'I' for Inactive)
REMARK    1  A    between atoms: C_1  and  C_2
REMARK    2  A    between atoms: C_4  and  C_5
REMARK    3  A    between atoms: C_7  and  S_8
REMARK    4  A    between atoms: S_8  and  C_9
REMARK    5  A    between atoms: C_10  and  C_11
REMARK    6  A    between atoms: C_11  and  C_12
REMARK    7  A    between atoms: C_11  and  C_13
REMARK    8  A    between atoms: N_19  and  O_20
REMARK    9  A    between atoms: O_20  and  C_21
REMARK   10  A    between atoms: C_21  and  C_22
REMARK   11  A    between atoms: C_22  and  O_23
REMARK   12  A    between atoms: O_23  and  C_24
REMARK                            x       y       z     vdW  Elec       q    Type
REMARK                         _______ _______ _______ _____ _____    ______ ____
ROOT
ATOM      1  C   UNL     1       2.491   6.729  18.744  0.00  0.00    +0.000 A 
ATOM      2  C   UNL     1       2.375   5.459  19.224  0.00  0.00    +0.000 A 
ATOM      3  C   UNL     1       1.883   5.344  20.631  0.00  0.00    +0.000 A 
ATOM      4  O   UNL     1       1.983   4.315  21.292  0.00  0.00    +0.000 OA
ATOM      5  N   UNL     1       1.328   6.448  21.191  0.00  0.00    +0.000 N 
ATOM      6  C   UNL     1       1.509   7.725  20.748  0.00  0.00    +0.000 A 
ATOM      7  O   UNL     1       1.108   8.669  21.426  0.00  0.00    +0.000 OA
ATOM      8  N   UNL     1       2.179   7.824  19.545  0.00  0.00    +0.000 N 
ATOM      9  H   UNL     1       0.983   6.347  22.137  0.00  0.00    +0.000 HD
ENDROOT
BRANCH   2  10
ATOM     10  C   UNL     1       2.758   4.131  18.526  0.00  0.00    +0.000 C 
ATOM     11  C   UNL     1       3.788   3.338  19.345  0.00  0.00    +0.000 C 
ATOM     12  C   UNL     1       1.595   3.176  18.180  0.00  0.00    +0.000 C 
ENDBRANCH   2  10
BRANCH   1  13
ATOM     13  S   UNL     1       3.277   6.995  17.205  0.00  0.00    +0.000 S 
BRANCH  13  20
ATOM     14  C   UNL     1       8.089   5.754  19.098  0.00  0.00    +0.000 C 
ATOM     15  C   UNL     1       7.024   5.542  18.059  0.00  0.00    +0.000 A 
ATOM     16  C   UNL     1       7.326   4.882  16.860  0.00  0.00    +0.000 A 
ATOM     17  C   UNL     1       6.368   4.769  15.850  0.00  0.00    +0.000 A 
ATOM     18  C   UNL     1       6.685   4.104  14.542  0.00  0.00    +0.000 C 
ATOM     19  C   UNL     1       5.107   5.352  16.046  0.00  0.00    +0.000 A 
ATOM     20  C   UNL     1       4.788   6.038  17.230  0.00  0.00    +0.000 A 
ATOM     21  C   UNL     1       5.744   6.098  18.246  0.00  0.00    +0.000 A 
ENDBRANCH  13  20
ENDBRANCH   1  13
BRANCH   8  22
ATOM     22  O   UNL     1       2.217   9.126  18.962  0.00  0.00    +0.000 OA
BRANCH  22  23
ATOM     23  C   UNL     1       1.079   9.377  18.125  0.00  0.00    +0.000 C 
BRANCH  23  24
ATOM     24  C   UNL     1       0.299  10.605  18.562  0.00  0.00    +0.000 C 
BRANCH  24  25
ATOM     25  O   UNL     1      -1.007  10.178  18.944  0.00  0.00    +0.000 OA
BRANCH  25  26
ATOM     26  C   UNL     1      -2.001  10.405  18.038  0.00  0.00    +0.000 A 
ATOM     27  C   UNL     1      -2.069   9.860  16.747  0.00  0.00    +0.000 A 
ATOM     28  C   UNL     1      -3.124  10.213  15.907  0.00  0.00    +0.000 A 
ATOM     29  C   UNL     1      -4.110  11.093  16.346  0.00  0.00    +0.000 A 
ATOM     30  C   UNL     1      -4.066  11.611  17.637  0.00  0.00    +0.000 A 
ATOM     31  C   UNL     1      -3.007  11.266  18.483  0.00  0.00    +0.000 A 
ENDBRANCH  25  26
ENDBRANCH  24  25
ENDBRANCH  23  24
ENDBRANCH  22  23
ENDBRANCH   8  22
TORSDOF 8
ENDMDL
MODEL 5
REMARK VINA RESULT:      -7.8      3.503      5.868
REMARK  Name = 
REMARK  12 active torsions:
REMARK  status: ('A' for Active; 'I' for Inactive)
REMARK    1  A    between atoms: C_1  and  C_2
REMARK    2  A    between atoms: C_4  and  C_5
REMARK    3  A    between atoms: C_7  and  S_8
REMARK    4  A    between atoms: S_8  and  C_9
REMARK    5  A    between atoms: C_10  and  C_11
REMARK    6  A    between atoms: C_11  and  C_12
REMARK    7  A    between atoms: C_11  and  C_13
REMARK    8  A    between atoms: N_19  and  O_20
REMARK    9  A    between atoms: O_20  and  C_21
REMARK   10  A    between atoms: C_21  and  C_22
REMARK   11  A    between atoms: C_22  and  O_23
REMARK   12  A    between atoms: O_23  and  C_24
REMARK                            x       y       z     vdW  Elec       q    Type
REMARK                         _______ _______ _______ _____ _____    ______ ____
ROOT
ATOM      1  C   UNL     1       2.424   4.647  18.850  0.00  0.00    +0.000 A 
ATOM      2  C   UNL     1       2.483   3.739  19.863  0.00  0.00    +0.000 A 
ATOM      3  C   UNL     1       2.302   4.295  21.238  0.00  0.00    +0.000 A 
ATOM      4  O   UNL     1       2.595   3.673  22.255  0.00  0.00    +0.000 OA
ATOM      5  N   UNL     1       1.814   5.556  21.343  0.00  0.00    +0.000 N 
ATOM      6  C   UNL     1       1.825   6.485  20.345  0.00  0.00    +0.000 A 
ATOM      7  O   UNL     1       1.522   7.651  20.591  0.00  0.00    +0.000 OA
ATOM      8  N   UNL     1       2.224   5.999  19.116  0.00  0.00    +0.000 N 
ATOM      9  H   UNL     1       1.679   5.910  22.282  0.00  0.00    +0.000 HD
ENDROOT
BRANCH   2  10
ATOM     10  C   UNL     1       2.787   2.223  19.776  0.00  0.00    +0.000 C 
ATOM     11  C   UNL     1       2.047   1.565  18.601  0.00  0.00    +0.000 C 
ATOM     12  C   UNL     1       4.276   1.825  19.676  0.00  0.00    +0.000 C 
ENDBRANCH   2  10
BRANCH   1  13
ATOM     13  S   UNL     1       2.857   4.152  17.229  0.00  0.00    +0.000 S 
BRANCH  13  20
ATOM     14  C   UNL     1       7.588   5.878  18.935  0.00  0.00    +0.000 C 
ATOM     15  C   UNL     1       6.764   5.265  17.838  0.00  0.00    +0.000 A 
ATOM     16  C   UNL     1       7.255   5.220  16.525  0.00  0.00    +0.000 A 
ATOM     17  C   UNL     1       6.455   4.743  15.485  0.00  0.00    +0.000 A 
ATOM     18  C   UNL     1       6.946   4.726  14.066  0.00  0.00    +0.000 C 
ATOM     19  C   UNL     1       5.144   4.336  15.770  0.00  0.00    +0.000 A 
ATOM     20  C   UNL     1       4.622   4.393  17.074  0.00  0.00    +0.000 A 
ATOM     21  C   UNL     1       5.454   4.828  18.109  0.00  0.00    +0.000 A 
ENDBRANCH  13  20
ENDBRANCH   1  13
BRANCH   8  22
ATOM     22  O   UNL     1       2.066   6.893  18.014  0.00  0.00    +0.000 OA
BRANCH  22  23
ATOM     23  C   UNL     1       3.069   7.919  18.004  0.00  0.00    +0.000 C 
BRANCH  23  24
ATOM     24  C   UNL     1       2.470   9.312  17.904  0.00  0.00    +0.000 C 
BRANCH  24  25
ATOM     25  O   UNL     1       1.078   9.169  17.629  0.00  0.00    +0.000 OA
BRANCH  25  26
ATOM     26  C   UNL     1       0.246  10.030  18.282  0.00  0.00    +0.000 A 
ATOM     27  C   UNL     1       0.607  10.857  19.356  0.00  0.00    +0.000 A 
ATOM     28  C   UNL     1      -0.360  11.660  19.959  0.00  0.00    +0.000 A 
ATOM     29  C   UNL     1      -1.673  11.651  19.496  0.00  0.00    +0.000 A 
ATOM     30  C   UNL     1      -2.030  10.858  18.410  0.00  0.00    +0.000 A 
ATOM     31  C   UNL     1      -1.066  10.046  17.803  0.00  0.00    +0.000 A 
ENDBRANCH  25  26
ENDBRANCH  24  25
ENDBRANCH  23  24
ENDBRANCH  22  23
ENDBRANCH   8  22
TORSDOF 8
ENDMDL
MODEL 6
REMARK VINA RESULT:      -7.7      6.749     10.232
REMARK  Name = 
REMARK  12 active torsions:
REMARK  status: ('A' for Active; 'I' for Inactive)
REMARK    1  A    between atoms: C_1  and  C_2
REMARK    2  A    between atoms: C_4  and  C_5
REMARK    3  A    between atoms: C_7  and  S_8
REMARK    4  A    between atoms: S_8  and  C_9
REMARK    5  A    between atoms: C_10  and  C_11
REMARK    6  A    between atoms: C_11  and  C_12
REMARK    7  A    between atoms: C_11  and  C_13
REMARK    8  A    between atoms: N_19  and  O_20
REMARK    9  A    between atoms: O_20  and  C_21
REMARK   10  A    between atoms: C_21  and  C_22
REMARK   11  A    between atoms: C_22  and  O_23
REMARK   12  A    between atoms: O_23  and  C_24
REMARK                            x       y       z     vdW  Elec       q    Type
REMARK                         _______ _______ _______ _____ _____    ______ ____
ROOT
ATOM      1  C   UNL     1      -0.407  11.315  20.084  0.00  0.00    +0.000 A 
ATOM      2  C   UNL     1      -0.732  11.892  21.275  0.00  0.00    +0.000 A 
ATOM      3  C   UNL     1      -0.658  10.995  22.468  0.00  0.00    +0.000 A 
ATOM      4  O   UNL     1      -1.172  11.273  23.547  0.00  0.00    +0.000 OA
ATOM      5  N   UNL     1      -0.009   9.812  22.321  0.00  0.00    +0.000 N 
ATOM      6  C   UNL     1       0.248   9.203  21.127  0.00  0.00    +0.000 A 
ATOM      7  O   UNL     1       0.683   8.054  21.109  0.00  0.00    +0.000 OA
ATOM      8  N   UNL     1      -0.049   9.971  20.019  0.00  0.00    +0.000 N 
ATOM      9  H   UNL     1       0.049   9.225  23.143  0.00  0.00    +0.000 HD
ENDROOT
BRANCH   2  10
ATOM     10  C   UNL     1      -1.240  13.331  21.536  0.00  0.00    +0.000 C 
ATOM     11  C   UNL     1      -2.748  13.355  21.825  0.00  0.00    +0.000 C 
ATOM     12  C   UNL     1      -0.532  14.116  22.661  0.00  0.00    +0.000 C 
ENDBRANCH   2  10
BRANCH   1  13
ATOM     13  S   UNL     1      -0.686  12.196  18.600  0.00  0.00    +0.000 S 
BRANCH  13  20
ATOM     14  C   UNL     1      -3.550  10.209  14.585  0.00  0.00    +0.000 C 
ATOM     15  C   UNL     1      -3.496  10.696  16.005  0.00  0.00    +0.000 A 
ATOM     16  C   UNL     1      -4.677  11.009  16.692  0.00  0.00    +0.000 A 
ATOM     17  C   UNL     1      -4.628  11.555  17.977  0.00  0.00    +0.000 A 
ATOM     18  C   UNL     1      -5.880  11.937  18.712  0.00  0.00    +0.000 C 
ATOM     19  C   UNL     1      -3.377  11.810  18.557  0.00  0.00    +0.000 A 
ATOM     20  C   UNL     1      -2.179  11.525  17.879  0.00  0.00    +0.000 A 
ATOM     21  C   UNL     1      -2.250  10.935  16.615  0.00  0.00    +0.000 A 
ENDBRANCH  13  20
ENDBRANCH   1  13
BRANCH   8  22
ATOM     22  O   UNL     1       0.383   9.442  18.765  0.00  0.00    +0.000 OA
BRANCH  22  23
ATOM     23  C   UNL     1       1.768   9.718  18.512  0.00  0.00    +0.000 C 
BRANCH  23  24
ATOM     24  C   UNL     1       2.453   8.592  17.756  0.00  0.00    +0.000 C 
BRANCH  24  25
ATOM     25  O   UNL     1       2.343   7.408  18.545  0.00  0.00    +0.000 OA
BRANCH  25  26
ATOM     26  C   UNL     1       2.930   6.289  18.032  0.00  0.00    +0.000 A 
ATOM     27  C   UNL     1       4.202   6.231  17.445  0.00  0.00    +0.000 A 
ATOM     28  C   UNL     1       4.662   5.024  16.921  0.00  0.00    +0.000 A 
ATOM     29  C   UNL     1       3.870   3.880  16.985  0.00  0.00    +0.000 A 
ATOM     30  C   UNL     1       2.621   3.923  17.596  0.00  0.00    +0.000 A 
ATOM     31  C   UNL     1       2.151   5.132  18.120  0.00  0.00    +0.000 A 
ENDBRANCH  25  26
ENDBRANCH  24  25
ENDBRANCH  23  24
ENDBRANCH  22  23
ENDBRANCH   8  22
TORSDOF 8
ENDMDL
MODEL 7
REMARK VINA RESULT:      -7.7      3.706      7.211
REMARK  Name = 
REMARK  12 active torsions:
REMARK  status: ('A' for Active; 'I' for Inactive)
REMARK    1  A    between atoms: C_1  and  C_2
REMARK    2  A    between atoms: C_4  and  C_5
REMARK    3  A    between atoms: C_7  and  S_8
REMARK    4  A    between atoms: S_8  and  C_9
REMARK    5  A    between atoms: C_10  and  C_11
REMARK    6  A    between atoms: C_11  and  C_12
REMARK    7  A    between atoms: C_11  and  C_13
REMARK    8  A    between atoms: N_19  and  O_20
REMARK    9  A    between atoms: O_20  and  C_21
REMARK   10  A    between atoms: C_21  and  C_22
REMARK   11  A    between atoms: C_22  and  O_23
REMARK   12  A    between atoms: O_23  and  C_24
REMARK                            x       y       z     vdW  Elec       q    Type
REMARK                         _______ _______ _______ _____ _____    ______ ____
ROOT
ATOM      1  C   UNL     1       3.501   4.927  18.739  0.00  0.00    +0.000 A 
ATOM      2  C   UNL     1       3.292   3.738  19.371  0.00  0.00    +0.000 A 
ATOM      3  C   UNL     1       4.525   2.974  19.730  0.00  0.00    +0.000 A 
ATOM      4  O   UNL     1       4.509   1.788  20.045  0.00  0.00    +0.000 OA
ATOM      5  N   UNL     1       5.709   3.635  19.673  0.00  0.00    +0.000 N 
ATOM      6  C   UNL     1       5.929   4.788  18.978  0.00  0.00    +0.000 A 
ATOM      7  O   UNL     1       7.075   5.212  18.845  0.00  0.00    +0.000 OA
ATOM      8  N   UNL     1       4.790   5.363  18.448  0.00  0.00    +0.000 N 
ATOM      9  H   UNL     1       6.531   3.109  19.938  0.00  0.00    +0.000 HD
ENDROOT
BRANCH   2  10
ATOM     10  C   UNL     1       1.944   3.048  19.694  0.00  0.00    +0.000 C 
ATOM     11  C   UNL     1       1.072   3.913  20.617  0.00  0.00    +0.000 C 
ATOM     12  C   UNL     1       1.079   2.630  18.485  0.00  0.00    +0.000 C 
ENDBRANCH   2  10
BRANCH   1  13
ATOM     13  S   UNL     1       2.138   5.789  18.063  0.00  0.00    +0.000 S 
BRANCH  13  20
ATOM     14  C   UNL     1       0.678   8.741  22.238  0.00  0.00    +0.000 C 
ATOM     15  C   UNL     1       1.254   8.674  20.852  0.00  0.00    +0.000 A 
ATOM     16  C   UNL     1       1.345   9.832  20.066  0.00  0.00    +0.000 A 
ATOM     17  C   UNL     1       1.787   9.759  18.743  0.00  0.00    +0.000 A 
ATOM     18  C   UNL     1       1.851  10.980  17.872  0.00  0.00    +0.000 C 
ATOM     19  C   UNL     1       2.110   8.504  18.206  0.00  0.00    +0.000 A 
ATOM     20  C   UNL     1       2.006   7.328  18.966  0.00  0.00    +0.000 A 
ATOM     21  C   UNL     1       1.608   7.427  20.302  0.00  0.00    +0.000 A 
ENDBRANCH  13  20
ENDBRANCH   1  13
BRANCH   8  22
ATOM     22  O   UNL     1       4.959   6.662  17.881  0.00  0.00    +0.000 OA
BRANCH  22  23
ATOM     23  C   UNL     1       4.944   6.631  16.447  0.00  0.00    +0.000 C 
BRANCH  23  24
ATOM     24  C   UNL     1       5.323   5.268  15.894  0.00  0.00    +0.000 C 
BRANCH  24  25
ATOM     25  O   UNL     1       6.627   5.376  15.325  0.00  0.00    +0.000 OA
BRANCH  25  26
ATOM     26  C   UNL     1       6.779   4.860  14.072  0.00  0.00    +0.000 A 
ATOM     27  C   UNL     1       7.712   5.292  13.118  0.00  0.00    +0.000 A 
ATOM     28  C   UNL     1       7.729   4.700  11.856  0.00  0.00    +0.000 A 
ATOM     29  C   UNL     1       6.833   3.681  11.544  0.00  0.00    +0.000 A 
ATOM     30  C   UNL     1       5.928   3.224  12.496  0.00  0.00    +0.000 A 
ATOM     31  C   UNL     1       5.901   3.817  13.763  0.00  0.00    +0.000 A 
ENDBRANCH  25  26
ENDBRANCH  24  25
ENDBRANCH  23  24
ENDBRANCH  22  23
ENDBRANCH   8  22
TORSDOF 8
ENDMDL
MODEL 8
REMARK VINA RESULT:      -7.6      3.642      5.921
REMARK  Name = 
REMARK  12 active torsions:
REMARK  status: ('A' for Active; 'I' for Inactive)
REMARK    1  A    between atoms: C_1  and  C_2
REMARK    2  A    between atoms: C_4  and  C_5
REMARK    3  A    between atoms: C_7  and  S_8
REMARK    4  A    between atoms: S_8  and  C_9
REMARK    5  A    between atoms: C_10  and  C_11
REMARK    6  A    between atoms: C_11  and  C_12
REMARK    7  A    between atoms: C_11  and  C_13
REMARK    8  A    between atoms: N_19  and  O_20
REMARK    9  A    between atoms: O_20  and  C_21
REMARK   10  A    between atoms: C_21  and  C_22
REMARK   11  A    between atoms: C_22  and  O_23
REMARK   12  A    between atoms: O_23  and  C_24
REMARK                            x       y       z     vdW  Elec       q    Type
REMARK                         _______ _______ _______ _____ _____    ______ ____
ROOT
ATOM      1  C   UNL     1       2.355   4.780  18.799  0.00  0.00    +0.000 A 
ATOM      2  C   UNL     1       2.392   3.854  19.798  0.00  0.00    +0.000 A 
ATOM      3  C   UNL     1       2.220   4.392  21.182  0.00  0.00    +0.000 A 
ATOM      4  O   UNL     1       2.498   3.748  22.189  0.00  0.00    +0.000 OA
ATOM      5  N   UNL     1       1.759   5.662  21.306  0.00  0.00    +0.000 N 
ATOM      6  C   UNL     1       1.793   6.606  20.323  0.00  0.00    +0.000 A 
ATOM      7  O   UNL     1       1.513   7.774  20.587  0.00  0.00    +0.000 OA
ATOM      8  N   UNL     1       2.183   6.131  19.087  0.00  0.00    +0.000 N 
ATOM      9  H   UNL     1       1.630   6.003  22.250  0.00  0.00    +0.000 HD
ENDROOT
BRANCH   2  10
ATOM     10  C   UNL     1       2.664   2.334  19.687  0.00  0.00    +0.000 C 
ATOM     11  C   UNL     1       1.680   1.653  18.722  0.00  0.00    +0.000 C 
ATOM     12  C   UNL     1       4.092   1.920  19.272  0.00  0.00    +0.000 C 
ENDBRANCH   2  10
BRANCH   1  13
ATOM     13  S   UNL     1       2.779   4.302  17.172  0.00  0.00    +0.000 S 
BRANCH  13  20
ATOM     14  C   UNL     1       7.211   4.789  14.274  0.00  0.00    +0.000 C 
ATOM     15  C   UNL     1       6.503   5.000  15.582  0.00  0.00    +0.000 A 
ATOM     16  C   UNL     1       7.234   5.279  16.746  0.00  0.00    +0.000 A 
ATOM     17  C   UNL     1       6.591   5.378  17.982  0.00  0.00    +0.000 A 
ATOM     18  C   UNL     1       7.360   5.634  19.245  0.00  0.00    +0.000 C 
ATOM     19  C   UNL     1       5.206   5.165  18.043  0.00  0.00    +0.000 A 
ATOM     20  C   UNL     1       4.456   4.861  16.895  0.00  0.00    +0.000 A 
ATOM     21  C   UNL     1       5.110   4.814  15.661  0.00  0.00    +0.000 A 
ENDBRANCH  13  20
ENDBRANCH   1  13
BRANCH   8  22
ATOM     22  O   UNL     1       2.047   7.046  18.000  0.00  0.00    +0.000 OA
BRANCH  22  23
ATOM     23  C   UNL     1       2.916   8.179  18.135  0.00  0.00    +0.000 C 
BRANCH  23  24
ATOM     24  C   UNL     1       2.220   9.486  17.795  0.00  0.00    +0.000 C 
BRANCH  24  25
ATOM     25  O   UNL     1       0.822   9.222  17.696  0.00  0.00    +0.000 OA
BRANCH  25  26
ATOM     26  C   UNL     1      -0.002  10.111  18.321  0.00  0.00    +0.000 A 
ATOM     27  C   UNL     1       0.343  10.910  19.421  0.00  0.00    +0.000 A 
ATOM     28  C   UNL     1      -0.615  11.748  19.989  0.00  0.00    +0.000 A 
ATOM     29  C   UNL     1      -1.905  11.800  19.466  0.00  0.00    +0.000 A 
ATOM     30  C   UNL     1      -2.244  11.035  18.355  0.00  0.00    +0.000 A 
ATOM     31  C   UNL     1      -1.289  10.189  17.783  0.00  0.00    +0.000 A 
ENDBRANCH  25  26
ENDBRANCH  24  25
ENDBRANCH  23  24
ENDBRANCH  22  23
ENDBRANCH   8  22
TORSDOF 8
ENDMDL
MODEL 9
REMARK VINA RESULT:      -7.6      3.512      5.631
REMARK  Name = 
REMARK  12 active torsions:
REMARK  status: ('A' for Active; 'I' for Inactive)
REMARK    1  A    between atoms: C_1  and  C_2
REMARK    2  A    between atoms: C_4  and  C_5
REMARK    3  A    between atoms: C_7  and  S_8
REMARK    4  A    between atoms: S_8  and  C_9
REMARK    5  A    between atoms: C_10  and  C_11
REMARK    6  A    between atoms: C_11  and  C_12
REMARK    7  A    between atoms: C_11  and  C_13
REMARK    8  A    between atoms: N_19  and  O_20
REMARK    9  A    between atoms: O_20  and  C_21
REMARK   10  A    between atoms: C_21  and  C_22
REMARK   11  A    between atoms: C_22  and  O_23
REMARK   12  A    between atoms: O_23  and  C_24
REMARK                            x       y       z     vdW  Elec       q    Type
REMARK                         _______ _______ _______ _____ _____    ______ ____
ROOT
ATOM      1  C   UNL     1       2.510   4.753  18.749  0.00  0.00    +0.000 A 
ATOM      2  C   UNL     1       2.239   3.795  19.679  0.00  0.00    +0.000 A 
ATOM      3  C   UNL     1       2.065   4.286  21.079  0.00  0.00    +0.000 A 
ATOM      4  O   UNL     1       2.092   3.545  22.057  0.00  0.00    +0.000 OA
ATOM      5  N   UNL     1       1.897   5.621  21.257  0.00  0.00    +0.000 N 
ATOM      6  C   UNL     1       2.239   6.580  20.350  0.00  0.00    +0.000 A 
ATOM      7  O   UNL     1       2.211   7.766  20.674  0.00  0.00    +0.000 OA
ATOM      8  N   UNL     1       2.626   6.090  19.118  0.00  0.00    +0.000 N 
ATOM      9  H   UNL     1       1.761   5.935  22.209  0.00  0.00    +0.000 HD
ENDROOT
BRANCH   2  10
ATOM     10  C   UNL     1       2.165   2.261  19.482  0.00  0.00    +0.000 C 
ATOM     11  C   UNL     1       0.902   1.850  18.709  0.00  0.00    +0.000 C 
ATOM     12  C   UNL     1       3.376   1.597  18.790  0.00  0.00    +0.000 C 
ENDBRANCH   2  10
BRANCH   1  13
ATOM     13  S   UNL     1       2.966   4.272  17.131  0.00  0.00    +0.000 S 
BRANCH  13  20
ATOM     14  C   UNL     1       7.732   5.647  19.048  0.00  0.00    +0.000 C 
ATOM     15  C   UNL     1       6.908   5.140  17.898  0.00  0.00    +0.000 A 
ATOM     16  C   UNL     1       7.431   5.141  16.597  0.00  0.00    +0.000 A 
ATOM     17  C   UNL     1       6.637   4.765  15.512  0.00  0.00    +0.000 A 
ATOM     18  C   UNL     1       7.166   4.800  14.107  0.00  0.00    +0.000 C 
ATOM     19  C   UNL     1       5.299   4.413  15.742  0.00  0.00    +0.000 A 
ATOM     20  C   UNL     1       4.745   4.426  17.033  0.00  0.00    +0.000 A 
ATOM     21  C   UNL     1       5.569   4.759  18.111  0.00  0.00    +0.000 A 
ENDBRANCH  13  20
ENDBRANCH   1  13
BRANCH   8  22
ATOM     22  O   UNL     1       2.806   7.066  18.092  0.00  0.00    +0.000 OA
BRANCH  22  23
ATOM     23  C   UNL     1       1.594   7.780  17.807  0.00  0.00    +0.000 C 
BRANCH  23  24
ATOM     24  C   UNL     1       1.800   9.285  17.788  0.00  0.00    +0.000 C 
BRANCH  24  25
ATOM     25  O   UNL     1       0.527   9.901  17.973  0.00  0.00    +0.000 OA
BRANCH  25  26
ATOM     26  C   UNL     1       0.341  10.548  19.159  0.00  0.00    +0.000 A 
ATOM     27  C   UNL     1      -0.454  10.093  20.221  0.00  0.00    +0.000 A 
ATOM     28  C   UNL     1      -0.589  10.880  21.364  0.00  0.00    +0.000 A 
ATOM     29  C   UNL     1       0.066  12.106  21.458  0.00  0.00    +0.000 A 
ATOM     30  C   UNL     1       0.883  12.546  20.422  0.00  0.00    +0.000 A 
ATOM     31  C   UNL     1       1.019  11.764  19.270  0.00  0.00    +0.000 A 
ENDBRANCH  25  26
ENDBRANCH  24  25
ENDBRANCH  23  24
ENDBRANCH  22  23
ENDBRANCH   8  22
TORSDOF 8
ENDMDL
