MODEL 1
REMARK VINA RESULT:      -8.6      0.000      0.000
REMARK  Name = 
REMARK  11 active torsions:
REMARK  status: ('A' for Active; 'I' for Inactive)
REMARK    1  A    between atoms: C_1  and  C_2
REMARK    2  A    between atoms: C_2  and  N_3
REMARK    3  A    between atoms: N_3  and  C_4
REMARK    4  A    between atoms: C_4  and  C_5
REMARK    5  A    between atoms: C_5  and  N_6
REMARK    6  A    between atoms: N_6  and  C_7
REMARK    7  A    between atoms: C_9  and  N_10
REMARK    8  A    between atoms: C_12  and  C_13
REMARK    9  A    between atoms: C_13  and  C_14
REMARK   10  A    between atoms: C_16  and  C_17
REMARK   11  A    between atoms: C_33  and  C_34
REMARK                            x       y       z     vdW  Elec       q    Type
REMARK                         _______ _______ _______ _____ _____    ______ ____
ROOT
ATOM      1  N   UNL     1       1.731   7.046  20.208  0.00  0.00    +0.000 N 
ATOM      2  C   UNL     1       0.889   7.328  21.254  0.00  0.00    +0.000 A 
ATOM      3  C   UNL     1       0.435   8.636  21.167  0.00  0.00    +0.000 A 
ATOM      4  C   UNL     1       1.022   9.211  19.959  0.00  0.00    +0.000 A 
ATOM      5  C   UNL     1       1.041  10.466  19.242  0.00  0.00    +0.000 A 
ATOM      6  C   UNL     1       1.695  10.442  17.985  0.00  0.00    +0.000 A 
ATOM      7  C   UNL     1       2.342   9.317  17.531  0.00  0.00    +0.000 A 
ATOM      8  N   UNL     1       2.421   8.175  18.204  0.00  0.00    +0.000 NA
ATOM      9  C   UNL     1       1.773   8.162  19.388  0.00  0.00    +0.000 A 
ENDROOT
BRANCH   5  10
ATOM     10  C   UNL     1       0.560  11.780  19.760  0.00  0.00    +0.000 A 
ATOM     11  C   UNL     1      -0.072  12.725  18.965  0.00  0.00    +0.000 A 
ATOM     12  N   UNL     1      -0.604  13.907  19.364  0.00  0.00    +0.000 NA
ATOM     13  C   UNL     1      -0.773  14.084  20.673  0.00  0.00    +0.000 A 
ATOM     14  C   UNL     1      -1.507  15.172  21.111  0.00  0.00    +0.000 A 
ATOM     15  C   UNL     1      -1.976  15.241  22.423  0.00  0.00    +0.000 A 
ATOM     16  C   UNL     1      -1.657  14.230  23.321  0.00  0.00    +0.000 A 
ATOM     17  C   UNL     1      -0.783  13.212  22.935  0.00  0.00    +0.000 A 
ATOM     18  C   UNL     1      -0.327  13.137  21.606  0.00  0.00    +0.000 A 
ATOM     19  C   UNL     1       0.477  12.077  21.134  0.00  0.00    +0.000 A 
ENDBRANCH   5  10
BRANCH   1  22
ATOM     20  C   UNL     1       4.499   4.588  19.567  0.00  0.00    +0.000 A 
ATOM     21  C   UNL     1       3.759   5.791  19.630  0.00  0.00    +0.000 A 
ATOM     22  C   UNL     1       2.394   5.801  19.978  0.00  0.00    +0.000 A 
ATOM     23  C   UNL     1       1.721   4.594  20.126  0.00  0.00    +0.000 A 
ATOM     24  C   UNL     1       2.407   3.383  19.967  0.00  0.00    +0.000 A 
ATOM     25  C   UNL     1       3.791   3.370  19.712  0.00  0.00    +0.000 A 
BRANCH  25  26
ATOM     26  C   UNL     1       4.420   2.012  19.718  0.00  0.00    +0.000 C 
ATOM     27  N   UNL     1       4.087   1.172  18.700  0.00  0.00    +0.000 N 
ATOM     28  O   UNL     1       5.243   1.676  20.563  0.00  0.00    +0.000 OA
ATOM     29  H   UNL     1       3.337   1.427  18.065  0.00  0.00    +0.000 HD
ATOM     30  H   UNL     1       4.527   0.265  18.645  0.00  0.00    +0.000 HD
ENDBRANCH  25  26
BRANCH  20  31
ATOM     31  N   UNL     1       5.877   4.598  19.212  0.00  0.00    +0.000 N 
ATOM     32  H   UNL     1       6.129   3.634  18.985  0.00  0.00    +0.000 HD
BRANCH  31  33
ATOM     33  C   UNL     1       6.262   5.475  18.088  0.00  0.00    +0.000 C 
BRANCH  33  34
ATOM     34  C   UNL     1       6.973   4.679  16.974  0.00  0.00    +0.000 C 
BRANCH  34  35
ATOM     35  N   UNL     1       7.315   5.546  15.836  0.00  0.00    +0.000 NA
ATOM     36  H   UNL     1       6.751   6.394  15.887  0.00  0.00    +0.000 HD
BRANCH  35  38
ATOM     37  C   UNL     1       5.613   4.358  14.566  0.00  0.00    +0.000 C 
ATOM     38  C   UNL     1       7.041   4.881  14.563  0.00  0.00    +0.000 C 
ENDBRANCH  35  38
ENDBRANCH  34  35
ENDBRANCH  33  34
ENDBRANCH  31  33
ENDBRANCH  20  31
ENDBRANCH   1  22
BRANCH   3  39
ATOM     39  C   UNL     1      -0.477   9.256  22.195  0.00  0.00    +0.000 C 
ATOM     40  C   UNL     1       0.119   9.482  23.579  0.00  0.00    +0.000 C 
ENDBRANCH   3  39
TORSDOF 9
ENDMDL
MODEL 2
REMARK VINA RESULT:      -8.5      1.199      1.633
REMARK  Name = 
REMARK  11 active torsions:
REMARK  status: ('A' for Active; 'I' for Inactive)
REMARK    1  A    between atoms: C_1  and  C_2
REMARK    2  A    between atoms: C_2  and  N_3
REMARK    3  A    between atoms: N_3  and  C_4
REMARK    4  A    between atoms: C_4  and  C_5
REMARK    5  A    between atoms: C_5  and  N_6
REMARK    6  A    between atoms: N_6  and  C_7
REMARK    7  A    between atoms: C_9  and  N_10
REMARK    8  A    between atoms: C_12  and  C_13
REMARK    9  A    between atoms: C_13  and  C_14
REMARK   10  A    between atoms: C_16  and  C_17
REMARK   11  A    between atoms: C_33  and  C_34
REMARK                            x       y       z     vdW  Elec       q    Type
REMARK                         _______ _______ _______ _____ _____    ______ ____
ROOT
ATOM      1  N   UNL     1       1.801   6.666  20.199  0.00  0.00    +0.000 N 
ATOM      2  C   UNL     1       0.977   6.915  21.268  0.00  0.00    +0.000 A 
ATOM      3  C   UNL     1       0.541   8.231  21.244  0.00  0.00    +0.000 A 
ATOM      4  C   UNL     1       1.121   8.849  20.053  0.00  0.00    +0.000 A 
ATOM      5  C   UNL     1       1.148  10.134  19.391  0.00  0.00    +0.000 A 
ATOM      6  C   UNL     1       1.785  10.154  18.124  0.00  0.00    +0.000 A 
ATOM      7  C   UNL     1       2.409   9.041  17.613  0.00  0.00    +0.000 A 
ATOM      8  N   UNL     1       2.481   7.871  18.236  0.00  0.00    +0.000 NA
ATOM      9  C   UNL     1       1.848   7.816  19.427  0.00  0.00    +0.000 A 
ENDROOT
BRANCH   5  10
ATOM     10  C   UNL     1       0.693  11.430  19.970  0.00  0.00    +0.000 A 
ATOM     11  C   UNL     1       1.414  12.610  19.854  0.00  0.00    +0.000 A 
ATOM     12  N   UNL     1       1.043  13.842  20.283  0.00  0.00    +0.000 NA
ATOM     13  C   UNL     1      -0.233  14.006  20.622  0.00  0.00    +0.000 A 
ATOM     14  C   UNL     1      -0.704  15.287  20.854  0.00  0.00    +0.000 A 
ATOM     15  C   UNL     1      -2.072  15.551  20.905  0.00  0.00    +0.000 A 
ATOM     16  C   UNL     1      -2.980  14.507  20.776  0.00  0.00    +0.000 A 
ATOM     17  C   UNL     1      -2.516  13.192  20.706  0.00  0.00    +0.000 A 
ATOM     18  C   UNL     1      -1.134  12.932  20.636  0.00  0.00    +0.000 A 
ATOM     19  C   UNL     1      -0.610  11.633  20.464  0.00  0.00    +0.000 A 
ENDBRANCH   5  10
BRANCH   1  22
ATOM     20  C   UNL     1       4.528   4.196  19.439  0.00  0.00    +0.000 A 
ATOM     21  C   UNL     1       3.808   5.407  19.562  0.00  0.00    +0.000 A 
ATOM     22  C   UNL     1       2.442   5.422  19.907  0.00  0.00    +0.000 A 
ATOM     23  C   UNL     1       1.748   4.222  19.993  0.00  0.00    +0.000 A 
ATOM     24  C   UNL     1       2.414   3.008  19.774  0.00  0.00    +0.000 A 
ATOM     25  C   UNL     1       3.798   2.985  19.521  0.00  0.00    +0.000 A 
BRANCH  25  26
ATOM     26  C   UNL     1       4.403   1.617  19.459  0.00  0.00    +0.000 C 
ATOM     27  N   UNL     1       4.012   0.815  18.430  0.00  0.00    +0.000 N 
ATOM     28  O   UNL     1       5.255   1.242  20.256  0.00  0.00    +0.000 OA
ATOM     29  H   UNL     1       3.240   1.101  17.837  0.00  0.00    +0.000 HD
ATOM     30  H   UNL     1       4.434  -0.098  18.330  0.00  0.00    +0.000 HD
ENDBRANCH  25  26
BRANCH  20  31
ATOM     31  N   UNL     1       5.906   4.200  19.087  0.00  0.00    +0.000 N 
ATOM     32  H   UNL     1       6.010   3.559  18.297  0.00  0.00    +0.000 HD
BRANCH  31  33
ATOM     33  C   UNL     1       6.492   5.508  18.728  0.00  0.00    +0.000 C 
BRANCH  33  34
ATOM     34  C   UNL     1       6.791   5.591  17.217  0.00  0.00    +0.000 C 
BRANCH  34  35
ATOM     35  N   UNL     1       7.542   6.814  16.891  0.00  0.00    +0.000 NA
ATOM     36  H   UNL     1       8.374   6.558  16.361  0.00  0.00    +0.000 HD
BRANCH  35  38
ATOM     37  C   UNL     1       8.082   9.003  17.805  0.00  0.00    +0.000 C 
ATOM     38  C   UNL     1       7.959   7.517  18.104  0.00  0.00    +0.000 C 
ENDBRANCH  35  38
ENDBRANCH  34  35
ENDBRANCH  33  34
ENDBRANCH  31  33
ENDBRANCH  20  31
ENDBRANCH   1  22
BRANCH   3  39
ATOM     39  C   UNL     1      -0.348   8.819  22.310  0.00  0.00    +0.000 C 
ATOM     40  C   UNL     1       0.354   9.547  23.449  0.00  0.00    +0.000 C 
ENDBRANCH   3  39
TORSDOF 9
ENDMDL
MODEL 3
REMARK VINA RESULT:      -8.4      2.460      4.439
REMARK  Name = 
REMARK  11 active torsions:
REMARK  status: ('A' for Active; 'I' for Inactive)
REMARK    1  A    between atoms: C_1  and  C_2
REMARK    2  A    between atoms: C_2  and  N_3
REMARK    3  A    between atoms: N_3  and  C_4
REMARK    4  A    between atoms: C_4  and  C_5
REMARK    5  A    between atoms: C_5  and  N_6
REMARK    6  A    between atoms: N_6  and  C_7
REMARK    7  A    between atoms: C_9  and  N_10
REMARK    8  A    between atoms: C_12  and  C_13
REMARK    9  A    between atoms: C_13  and  C_14
REMARK   10  A    between atoms: C_16  and  C_17
REMARK   11  A    between atoms: C_33  and  C_34
REMARK                            x       y       z     vdW  Elec       q    Type
REMARK                         _______ _______ _______ _____ _____    ______ ____
ROOT
ATOM      1  N   UNL     1       1.225   9.211  19.311  0.00  0.00    +0.000 N 
ATOM      2  C   UNL     1       0.692  10.120  18.430  0.00  0.00    +0.000 A 
ATOM      3  C   UNL     1      -0.179  10.976  19.088  0.00  0.00    +0.000 A 
ATOM      4  C   UNL     1      -0.173  10.586  20.497  0.00  0.00    +0.000 A 
ATOM      5  C   UNL     1      -0.808  10.966  21.740  0.00  0.00    +0.000 A 
ATOM      6  C   UNL     1      -0.316  10.317  22.899  0.00  0.00    +0.000 A 
ATOM      7  C   UNL     1       0.637   9.328  22.823  0.00  0.00    +0.000 A 
ATOM      8  N   UNL     1       1.174   8.892  21.690  0.00  0.00    +0.000 NA
ATOM      9  C   UNL     1       0.750   9.523  20.575  0.00  0.00    +0.000 A 
ENDROOT
BRANCH   5  10
ATOM     10  C   UNL     1      -1.992  11.861  21.883  0.00  0.00    +0.000 A 
ATOM     11  C   UNL     1      -2.745  12.304  20.806  0.00  0.00    +0.000 A 
ATOM     12  N   UNL     1      -3.874  13.055  20.849  0.00  0.00    +0.000 NA
ATOM     13  C   UNL     1      -4.476  13.175  22.031  0.00  0.00    +0.000 A 
ATOM     14  C   UNL     1      -5.737  13.742  22.083  0.00  0.00    +0.000 A 
ATOM     15  C   UNL     1      -6.535  13.615  23.220  0.00  0.00    +0.000 A 
ATOM     16  C   UNL     1      -6.039  12.957  24.339  0.00  0.00    +0.000 A 
ATOM     17  C   UNL     1      -4.711  12.525  24.354  0.00  0.00    +0.000 A 
ATOM     18  C   UNL     1      -3.916  12.639  23.199  0.00  0.00    +0.000 A 
ATOM     19  C   UNL     1      -2.601  12.131  23.124  0.00  0.00    +0.000 A 
ENDBRANCH   5  10
BRANCH   1  22
ATOM     20  C   UNL     1       3.078   5.949  19.504  0.00  0.00    +0.000 A 
ATOM     21  C   UNL     1       2.311   7.082  19.862  0.00  0.00    +0.000 A 
ATOM     22  C   UNL     1       2.151   8.173  18.986  0.00  0.00    +0.000 A 
ATOM     23  C   UNL     1       2.874   8.205  17.799  0.00  0.00    +0.000 A 
ATOM     24  C   UNL     1       3.723   7.141  17.465  0.00  0.00    +0.000 A 
ATOM     25  C   UNL     1       3.813   6.008  18.294  0.00  0.00    +0.000 A 
BRANCH  25  26
ATOM     26  C   UNL     1       4.636   4.887  17.740  0.00  0.00    +0.000 C 
ATOM     27  N   UNL     1       4.661   4.749  16.386  0.00  0.00    +0.000 N 
ATOM     28  O   UNL     1       5.309   4.154  18.457  0.00  0.00    +0.000 OA
ATOM     29  H   UNL     1       4.029   5.300  15.814  0.00  0.00    +0.000 HD
ATOM     30  H   UNL     1       5.242   4.033  15.974  0.00  0.00    +0.000 HD
ENDBRANCH  25  26
BRANCH  20  31
ATOM     31  N   UNL     1       3.229   4.857  20.402  0.00  0.00    +0.000 N 
ATOM     32  H   UNL     1       4.014   5.088  21.016  0.00  0.00    +0.000 HD
BRANCH  31  33
ATOM     33  C   UNL     1       2.054   4.516  21.230  0.00  0.00    +0.000 C 
BRANCH  33  34
ATOM     34  C   UNL     1       1.525   3.106  20.896  0.00  0.00    +0.000 C 
BRANCH  34  35
ATOM     35  N   UNL     1       0.464   3.163  19.878  0.00  0.00    +0.000 NA
ATOM     36  H   UNL     1      -0.432   2.975  20.326  0.00  0.00    +0.000 HD
BRANCH  35  38
ATOM     37  C   UNL     1       2.020   2.427  18.159  0.00  0.00    +0.000 C 
ATOM     38  C   UNL     1       0.681   2.166  18.831  0.00  0.00    +0.000 C 
ENDBRANCH  35  38
ENDBRANCH  34  35
ENDBRANCH  33  34
ENDBRANCH  31  33
ENDBRANCH  20  31
ENDBRANCH   1  22
BRANCH   3  39
ATOM     39  C   UNL     1      -0.952  12.059  18.382  0.00  0.00    +0.000 C 
ATOM     40  C   UNL     1      -0.332  13.450  18.394  0.00  0.00    +0.000 C 
ENDBRANCH   3  39
TORSDOF 9
ENDMDL
MODEL 4
REMARK VINA RESULT:      -8.4      1.088      1.647
REMARK  Name = 
REMARK  11 active torsions:
REMARK  status: ('A' for Active; 'I' for Inactive)
REMARK    1  A    between atoms: C_1  and  C_2
REMARK    2  A    between atoms: C_2  and  N_3
REMARK    3  A    between atoms: N_3  and  C_4
REMARK    4  A    between atoms: C_4  and  C_5
REMARK    5  A    between atoms: C_5  and  N_6
REMARK    6  A    between atoms: N_6  and  C_7
REMARK    7  A    between atoms: C_9  and  N_10
REMARK    8  A    between atoms: C_12  and  C_13
REMARK    9  A    between atoms: C_13  and  C_14
REMARK   10  A    between atoms: C_16  and  C_17
REMARK   11  A    between atoms: C_33  and  C_34
REMARK                            x       y       z     vdW  Elec       q    Type
REMARK                         _______ _______ _______ _____ _____    ______ ____
ROOT
ATOM      1  N   UNL     1       1.819   6.884  20.193  0.00  0.00    +0.000 N 
ATOM      2  C   UNL     1       0.980   7.153  21.246  0.00  0.00    +0.000 A 
ATOM      3  C   UNL     1       0.528   8.463  21.180  0.00  0.00    +0.000 A 
ATOM      4  C   UNL     1       1.113   9.054  19.978  0.00  0.00    +0.000 A 
ATOM      5  C   UNL     1       1.132  10.319  19.279  0.00  0.00    +0.000 A 
ATOM      6  C   UNL     1       1.781  10.311  18.019  0.00  0.00    +0.000 A 
ATOM      7  C   UNL     1       2.425   9.191  17.547  0.00  0.00    +0.000 A 
ATOM      8  N   UNL     1       2.504   8.041  18.203  0.00  0.00    +0.000 NA
ATOM      9  C   UNL     1       1.860   8.012  19.389  0.00  0.00    +0.000 A 
ENDROOT
BRANCH   5  10
ATOM     10  C   UNL     1       0.655  11.626  19.816  0.00  0.00    +0.000 A 
ATOM     11  C   UNL     1       0.999  12.102  21.073  0.00  0.00    +0.000 A 
ATOM     12  N   UNL     1       0.674  13.304  21.610  0.00  0.00    +0.000 NA
ATOM     13  C   UNL     1       0.197  14.230  20.780  0.00  0.00    +0.000 A 
ATOM     14  C   UNL     1       0.060  15.529  21.236  0.00  0.00    +0.000 A 
ATOM     15  C   UNL     1      -0.132  16.586  20.346  0.00  0.00    +0.000 A 
ATOM     16  C   UNL     1      -0.242  16.328  18.985  0.00  0.00    +0.000 A 
ATOM     17  C   UNL     1      -0.268  15.008  18.532  0.00  0.00    +0.000 A 
ATOM     18  C   UNL     1      -0.056  13.946  19.430  0.00  0.00    +0.000 A 
ATOM     19  C   UNL     1       0.028  12.600  19.015  0.00  0.00    +0.000 A 
ENDBRANCH   5  10
BRANCH   1  22
ATOM     20  C   UNL     1       4.587   4.421  19.576  0.00  0.00    +0.000 A 
ATOM     21  C   UNL     1       3.856   5.629  19.654  0.00  0.00    +0.000 A 
ATOM     22  C   UNL     1       2.478   5.641  19.944  0.00  0.00    +0.000 A 
ATOM     23  C   UNL     1       1.787   4.438  20.017  0.00  0.00    +0.000 A 
ATOM     24  C   UNL     1       2.468   3.225  19.841  0.00  0.00    +0.000 A 
ATOM     25  C   UNL     1       3.860   3.206  19.644  0.00  0.00    +0.000 A 
BRANCH  25  26
ATOM     26  C   UNL     1       4.475   1.842  19.624  0.00  0.00    +0.000 C 
ATOM     27  N   UNL     1       4.150   1.033  18.578  0.00  0.00    +0.000 N 
ATOM     28  O   UNL     1       5.280   1.475  20.473  0.00  0.00    +0.000 OA
ATOM     29  H   UNL     1       3.414   1.313  17.938  0.00  0.00    +0.000 HD
ATOM     30  H   UNL     1       4.581   0.122  18.506  0.00  0.00    +0.000 HD
ENDBRANCH  25  26
BRANCH  20  31
ATOM     31  N   UNL     1       5.978   4.428  19.280  0.00  0.00    +0.000 N 
ATOM     32  H   UNL     1       6.394   3.652  19.800  0.00  0.00    +0.000 HD
BRANCH  31  33
ATOM     33  C   UNL     1       6.350   4.308  17.855  0.00  0.00    +0.000 C 
BRANCH  33  34
ATOM     34  C   UNL     1       6.919   5.635  17.312  0.00  0.00    +0.000 C 
BRANCH  34  35
ATOM     35  N   UNL     1       7.109   5.574  15.854  0.00  0.00    +0.000 NA
ATOM     36  H   UNL     1       7.686   6.362  15.564  0.00  0.00    +0.000 HD
BRANCH  35  38
ATOM     37  C   UNL     1       4.928   6.652  15.855  0.00  0.00    +0.000 C 
ATOM     38  C   UNL     1       5.829   5.650  15.151  0.00  0.00    +0.000 C 
ENDBRANCH  35  38
ENDBRANCH  34  35
ENDBRANCH  33  34
ENDBRANCH  31  33
ENDBRANCH  20  31
ENDBRANCH   1  22
BRANCH   3  39
ATOM     39  C   UNL     1      -0.378   9.070  22.219  0.00  0.00    +0.000 C 
ATOM     40  C   UNL     1       0.267   9.434  23.550  0.00  0.00    +0.000 C 
ENDBRANCH   3  39
TORSDOF 9
ENDMDL
MODEL 5
REMARK VINA RESULT:      -8.4      1.116      1.240
REMARK  Name = 
REMARK  11 active torsions:
REMARK  status: ('A' for Active; 'I' for Inactive)
REMARK    1  A    between atoms: C_1  and  C_2
REMARK    2  A    between atoms: C_2  and  N_3
REMARK    3  A    between atoms: N_3  and  C_4
REMARK    4  A    between atoms: C_4  and  C_5
REMARK    5  A    between atoms: C_5  and  N_6
REMARK    6  A    between atoms: N_6  and  C_7
REMARK    7  A    between atoms: C_9  and  N_10
REMARK    8  A    between atoms: C_12  and  C_13
REMARK    9  A    between atoms: C_13  and  C_14
REMARK   10  A    between atoms: C_16  and  C_17
REMARK   11  A    between atoms: C_33  and  C_34
REMARK                            x       y       z     vdW  Elec       q    Type
REMARK                         _______ _______ _______ _____ _____    ______ ____
ROOT
ATOM      1  N   UNL     1       1.825   6.754  20.215  0.00  0.00    +0.000 N 
ATOM      2  C   UNL     1       0.968   7.027  21.251  0.00  0.00    +0.000 A 
ATOM      3  C   UNL     1       0.514   8.335  21.170  0.00  0.00    +0.000 A 
ATOM      4  C   UNL     1       1.119   8.921  19.976  0.00  0.00    +0.000 A 
ATOM      5  C   UNL     1       1.148  10.184  19.271  0.00  0.00    +0.000 A 
ATOM      6  C   UNL     1       1.820  10.171  18.024  0.00  0.00    +0.000 A 
ATOM      7  C   UNL     1       2.474   9.050  17.568  0.00  0.00    +0.000 A 
ATOM      8  N   UNL     1       2.543   7.903  18.232  0.00  0.00    +0.000 NA
ATOM      9  C   UNL     1       1.878   7.878  19.406  0.00  0.00    +0.000 A 
ENDROOT
BRANCH   5  10
ATOM     10  C   UNL     1       0.659  11.492  19.794  0.00  0.00    +0.000 A 
ATOM     11  C   UNL     1      -0.600  11.668  20.347  0.00  0.00    +0.000 A 
ATOM     12  N   UNL     1      -1.097  12.797  20.910  0.00  0.00    +0.000 NA
ATOM     13  C   UNL     1      -0.228  13.763  21.199  0.00  0.00    +0.000 A 
ATOM     14  C   UNL     1      -0.650  14.834  21.967  0.00  0.00    +0.000 A 
ATOM     15  C   UNL     1       0.269  15.702  22.556  0.00  0.00    +0.000 A 
ATOM     16  C   UNL     1       1.628  15.525  22.325  0.00  0.00    +0.000 A 
ATOM     17  C   UNL     1       2.054  14.549  21.422  0.00  0.00    +0.000 A 
ATOM     18  C   UNL     1       1.125  13.664  20.845  0.00  0.00    +0.000 A 
ATOM     19  C   UNL     1       1.508  12.597  20.004  0.00  0.00    +0.000 A 
ENDBRANCH   5  10
BRANCH   1  22
ATOM     20  C   UNL     1       4.601   4.305  19.574  0.00  0.00    +0.000 A 
ATOM     21  C   UNL     1       3.857   5.506  19.639  0.00  0.00    +0.000 A 
ATOM     22  C   UNL     1       2.491   5.511  19.983  0.00  0.00    +0.000 A 
ATOM     23  C   UNL     1       1.820   4.303  20.124  0.00  0.00    +0.000 A 
ATOM     24  C   UNL     1       2.510   3.093  19.964  0.00  0.00    +0.000 A 
ATOM     25  C   UNL     1       3.894   3.085  19.713  0.00  0.00    +0.000 A 
BRANCH  25  26
ATOM     26  C   UNL     1       4.526   1.728  19.717  0.00  0.00    +0.000 C 
ATOM     27  N   UNL     1       4.215   0.899  18.682  0.00  0.00    +0.000 N 
ATOM     28  O   UNL     1       5.333   1.384  20.574  0.00  0.00    +0.000 OA
ATOM     29  H   UNL     1       3.478   1.159  18.036  0.00  0.00    +0.000 HD
ATOM     30  H   UNL     1       4.658  -0.007  18.627  0.00  0.00    +0.000 HD
ENDBRANCH  25  26
BRANCH  20  31
ATOM     31  N   UNL     1       5.979   4.319  19.224  0.00  0.00    +0.000 N 
ATOM     32  H   UNL     1       6.095   3.652  18.458  0.00  0.00    +0.000 HD
BRANCH  31  33
ATOM     33  C   UNL     1       6.543   5.623  18.818  0.00  0.00    +0.000 C 
BRANCH  33  34
ATOM     34  C   UNL     1       7.386   5.492  17.532  0.00  0.00    +0.000 C 
BRANCH  34  35
ATOM     35  N   UNL     1       7.113   4.219  16.847  0.00  0.00    +0.000 NA
ATOM     36  H   UNL     1       7.963   3.656  16.848  0.00  0.00    +0.000 HD
BRANCH  35  38
ATOM     37  C   UNL     1       5.491   5.360  15.436  0.00  0.00    +0.000 C 
ATOM     38  C   UNL     1       6.705   4.442  15.460  0.00  0.00    +0.000 C 
ENDBRANCH  35  38
ENDBRANCH  34  35
ENDBRANCH  33  34
ENDBRANCH  31  33
ENDBRANCH  20  31
ENDBRANCH   1  22
BRANCH   3  39
ATOM     39  C   UNL     1      -0.412   8.946  22.191  0.00  0.00    +0.000 C 
ATOM     40  C   UNL     1       0.246   9.543  23.428  0.00  0.00    +0.000 C 
ENDBRANCH   3  39
TORSDOF 9
ENDMDL
MODEL 6
REMARK VINA RESULT:      -8.3      1.344      1.778
REMARK  Name = 
REMARK  11 active torsions:
REMARK  status: ('A' for Active; 'I' for Inactive)
REMARK    1  A    between atoms: C_1  and  C_2
REMARK    2  A    between atoms: C_2  and  N_3
REMARK    3  A    between atoms: N_3  and  C_4
REMARK    4  A    between atoms: C_4  and  C_5
REMARK    5  A    between atoms: C_5  and  N_6
REMARK    6  A    between atoms: N_6  and  C_7
REMARK    7  A    between atoms: C_9  and  N_10
REMARK    8  A    between atoms: C_12  and  C_13
REMARK    9  A    between atoms: C_13  and  C_14
REMARK   10  A    between atoms: C_16  and  C_17
REMARK   11  A    between atoms: C_33  and  C_34
REMARK                            x       y       z     vdW  Elec       q    Type
REMARK                         _______ _______ _______ _____ _____    ______ ____
ROOT
ATOM      1  N   UNL     1       1.871   6.759  20.311  0.00  0.00    +0.000 N 
ATOM      2  C   UNL     1       1.021   7.122  21.326  0.00  0.00    +0.000 A 
ATOM      3  C   UNL     1       0.577   8.423  21.141  0.00  0.00    +0.000 A 
ATOM      4  C   UNL     1       1.179   8.905  19.899  0.00  0.00    +0.000 A 
ATOM      5  C   UNL     1       1.213  10.105  19.093  0.00  0.00    +0.000 A 
ATOM      6  C   UNL     1       1.878   9.984  17.847  0.00  0.00    +0.000 A 
ATOM      7  C   UNL     1       2.521   8.825  17.482  0.00  0.00    +0.000 A 
ATOM      8  N   UNL     1       2.586   7.736  18.237  0.00  0.00    +0.000 NA
ATOM      9  C   UNL     1       1.927   7.813  19.413  0.00  0.00    +0.000 A 
ENDROOT
BRANCH   5  10
ATOM     10  C   UNL     1       0.737  11.456  19.509  0.00  0.00    +0.000 A 
ATOM     11  C   UNL     1      -0.590  11.739  19.795  0.00  0.00    +0.000 A 
ATOM     12  N   UNL     1      -1.097  12.913  20.249  0.00  0.00    +0.000 NA
ATOM     13  C   UNL     1      -0.229  13.810  20.711  0.00  0.00    +0.000 A 
ATOM     14  C   UNL     1      -0.709  14.921  21.380  0.00  0.00    +0.000 A 
ATOM     15  C   UNL     1       0.140  15.722  22.145  0.00  0.00    +0.000 A 
ATOM     16  C   UNL     1       1.498  15.433  22.194  0.00  0.00    +0.000 A 
ATOM     17  C   UNL     1       2.018  14.414  21.393  0.00  0.00    +0.000 A 
ATOM     18  C   UNL     1       1.155  13.598  20.638  0.00  0.00    +0.000 A 
ATOM     19  C   UNL     1       1.612  12.492  19.890  0.00  0.00    +0.000 A 
ENDBRANCH   5  10
BRANCH   1  22
ATOM     20  C   UNL     1       4.524   4.232  19.485  0.00  0.00    +0.000 A 
ATOM     21  C   UNL     1       3.753   5.417  19.491  0.00  0.00    +0.000 A 
ATOM     22  C   UNL     1       2.526   5.496  20.179  0.00  0.00    +0.000 A 
ATOM     23  C   UNL     1       1.990   4.349  20.749  0.00  0.00    +0.000 A 
ATOM     24  C   UNL     1       2.685   3.134  20.670  0.00  0.00    +0.000 A 
ATOM     25  C   UNL     1       3.953   3.072  20.065  0.00  0.00    +0.000 A 
BRANCH  25  26
ATOM     26  C   UNL     1       4.645   1.750  20.187  0.00  0.00    +0.000 C 
ATOM     27  N   UNL     1       4.507   0.882  19.146  0.00  0.00    +0.000 N 
ATOM     28  O   UNL     1       5.353   1.468  21.147  0.00  0.00    +0.000 OA
ATOM     29  H   UNL     1       3.845   1.090  18.405  0.00  0.00    +0.000 HD
ATOM     30  H   UNL     1       4.997  -0.001  19.172  0.00  0.00    +0.000 HD
ENDBRANCH  25  26
BRANCH  20  31
ATOM     31  N   UNL     1       5.760   4.169  18.784  0.00  0.00    +0.000 N 
ATOM     32  H   UNL     1       5.552   3.800  17.853  0.00  0.00    +0.000 HD
BRANCH  31  33
ATOM     33  C   UNL     1       6.504   5.438  18.644  0.00  0.00    +0.000 C 
BRANCH  33  34
ATOM     34  C   UNL     1       6.759   5.777  17.161  0.00  0.00    +0.000 C 
BRANCH  34  35
ATOM     35  N   UNL     1       7.141   7.188  16.997  0.00  0.00    +0.000 NA
ATOM     36  H   UNL     1       7.663   7.290  16.127  0.00  0.00    +0.000 HD
BRANCH  35  38
ATOM     37  C   UNL     1       8.216   9.138  17.979  0.00  0.00    +0.000 C 
ATOM     38  C   UNL     1       7.987   7.639  18.103  0.00  0.00    +0.000 C 
ENDBRANCH  35  38
ENDBRANCH  34  35
ENDBRANCH  33  34
ENDBRANCH  31  33
ENDBRANCH  20  31
ENDBRANCH   1  22
BRANCH   3  39
ATOM     39  C   UNL     1      -0.339   9.122  22.112  0.00  0.00    +0.000 C 
ATOM     40  C   UNL     1       0.263   9.495  23.460  0.00  0.00    +0.000 C 
ENDBRANCH   3  39
TORSDOF 9
ENDMDL
MODEL 7
REMARK VINA RESULT:      -8.2      1.467      2.116
REMARK  Name = 
REMARK  11 active torsions:
REMARK  status: ('A' for Active; 'I' for Inactive)
REMARK    1  A    between atoms: C_1  and  C_2
REMARK    2  A    between atoms: C_2  and  N_3
REMARK    3  A    between atoms: N_3  and  C_4
REMARK    4  A    between atoms: C_4  and  C_5
REMARK    5  A    between atoms: C_5  and  N_6
REMARK    6  A    between atoms: N_6  and  C_7
REMARK    7  A    between atoms: C_9  and  N_10
REMARK    8  A    between atoms: C_12  and  C_13
REMARK    9  A    between atoms: C_13  and  C_14
REMARK   10  A    between atoms: C_16  and  C_17
REMARK   11  A    between atoms: C_33  and  C_34
REMARK                            x       y       z     vdW  Elec       q    Type
REMARK                         _______ _______ _______ _____ _____    ______ ____
ROOT
ATOM      1  N   UNL     1       1.758   7.359  20.423  0.00  0.00    +0.000 N 
ATOM      2  C   UNL     1       1.231   7.721  21.638  0.00  0.00    +0.000 A 
ATOM      3  C   UNL     1       0.861   9.057  21.624  0.00  0.00    +0.000 A 
ATOM      4  C   UNL     1       1.159   9.567  20.287  0.00  0.00    +0.000 A 
ATOM      5  C   UNL     1       1.081  10.806  19.546  0.00  0.00    +0.000 A 
ATOM      6  C   UNL     1       1.389  10.712  18.166  0.00  0.00    +0.000 A 
ATOM      7  C   UNL     1       1.821   9.534  17.602  0.00  0.00    +0.000 A 
ATOM      8  N   UNL     1       1.990   8.401  18.273  0.00  0.00    +0.000 NA
ATOM      9  C   UNL     1       1.665   8.456  19.582  0.00  0.00    +0.000 A 
ENDROOT
BRANCH   5  10
ATOM     10  C   UNL     1       0.839  12.160  20.123  0.00  0.00    +0.000 A 
ATOM     11  C   UNL     1       1.654  12.732  21.088  0.00  0.00    +0.000 A 
ATOM     12  N   UNL     1       1.553  13.979  21.612  0.00  0.00    +0.000 NA
ATOM     13  C   UNL     1       0.763  14.841  20.974  0.00  0.00    +0.000 A 
ATOM     14  C   UNL     1       0.798  16.175  21.339  0.00  0.00    +0.000 A 
ATOM     15  C   UNL     1       0.241  17.158  20.522  0.00  0.00    +0.000 A 
ATOM     16  C   UNL     1      -0.407  16.792  19.348  0.00  0.00    +0.000 A 
ATOM     17  C   UNL     1      -0.590  15.440  19.053  0.00  0.00    +0.000 A 
ATOM     18  C   UNL     1      -0.011  14.452  19.872  0.00  0.00    +0.000 A 
ATOM     19  C   UNL     1      -0.078  13.075  19.569  0.00  0.00    +0.000 A 
ENDBRANCH   5  10
BRANCH   1  22
ATOM     20  C   UNL     1       4.082   4.694  19.155  0.00  0.00    +0.000 A 
ATOM     21  C   UNL     1       3.463   5.948  19.366  0.00  0.00    +0.000 A 
ATOM     22  C   UNL     1       2.252   6.064  20.077  0.00  0.00    +0.000 A 
ATOM     23  C   UNL     1       1.575   4.913  20.461  0.00  0.00    +0.000 A 
ATOM     24  C   UNL     1       2.115   3.652  20.174  0.00  0.00    +0.000 A 
ATOM     25  C   UNL     1       3.369   3.534  19.547  0.00  0.00    +0.000 A 
BRANCH  25  26
ATOM     26  C   UNL     1       3.891   2.135  19.441  0.00  0.00    +0.000 C 
ATOM     27  N   UNL     1       3.270   1.309  18.555  0.00  0.00    +0.000 N 
ATOM     28  O   UNL     1       4.868   1.752  20.075  0.00  0.00    +0.000 OA
ATOM     29  H   UNL     1       2.408   1.609  18.109  0.00  0.00    +0.000 HD
ATOM     30  H   UNL     1       3.623   0.372  18.422  0.00  0.00    +0.000 HD
ENDBRANCH  25  26
BRANCH  20  31
ATOM     31  N   UNL     1       5.304   4.596  18.433  0.00  0.00    +0.000 N 
ATOM     32  H   UNL     1       5.683   3.665  18.621  0.00  0.00    +0.000 HD
BRANCH  31  33
ATOM     33  C   UNL     1       5.224   4.798  16.972  0.00  0.00    +0.000 C 
BRANCH  33  34
ATOM     34  C   UNL     1       6.445   5.580  16.448  0.00  0.00    +0.000 C 
BRANCH  34  35
ATOM     35  N   UNL     1       6.448   6.962  16.953  0.00  0.00    +0.000 NA
ATOM     36  H   UNL     1       6.452   7.603  16.161  0.00  0.00    +0.000 HD
BRANCH  35  38
ATOM     37  C   UNL     1       7.942   8.713  17.741  0.00  0.00    +0.000 C 
ATOM     38  C   UNL     1       7.632   7.224  17.770  0.00  0.00    +0.000 C 
ENDBRANCH  35  38
ENDBRANCH  34  35
ENDBRANCH  33  34
ENDBRANCH  31  33
ENDBRANCH  20  31
ENDBRANCH   1  22
BRANCH   3  39
ATOM     39  C   UNL     1       0.286   9.761  22.827  0.00  0.00    +0.000 C 
ATOM     40  C   UNL     1      -1.025  10.507  22.611  0.00  0.00    +0.000 C 
ENDBRANCH   3  39
TORSDOF 9
ENDMDL
MODEL 8
REMARK VINA RESULT:      -8.2      2.222      4.653
REMARK  Name = 
REMARK  11 active torsions:
REMARK  status: ('A' for Active; 'I' for Inactive)
REMARK    1  A    between atoms: C_1  and  C_2
REMARK    2  A    between atoms: C_2  and  N_3
REMARK    3  A    between atoms: N_3  and  C_4
REMARK    4  A    between atoms: C_4  and  C_5
REMARK    5  A    between atoms: C_5  and  N_6
REMARK    6  A    between atoms: N_6  and  C_7
REMARK    7  A    between atoms: C_9  and  N_10
REMARK    8  A    between atoms: C_12  and  C_13
REMARK    9  A    between atoms: C_13  and  C_14
REMARK   10  A    between atoms: C_16  and  C_17
REMARK   11  A    between atoms: C_33  and  C_34
REMARK                            x       y       z     vdW  Elec       q    Type
REMARK                         _______ _______ _______ _____ _____    ______ ____
ROOT
ATOM      1  N   UNL     1       0.848  10.074  19.695  0.00  0.00    +0.000 N 
ATOM      2  C   UNL     1       0.641  11.226  18.977  0.00  0.00    +0.000 A 
ATOM      3  C   UNL     1      -0.181  12.092  19.682  0.00  0.00    +0.000 A 
ATOM      4  C   UNL     1      -0.496  11.440  20.952  0.00  0.00    +0.000 A 
ATOM      5  C   UNL     1      -1.273  11.688  22.145  0.00  0.00    +0.000 A 
ATOM      6  C   UNL     1      -1.114  10.738  23.185  0.00  0.00    +0.000 A 
ATOM      7  C   UNL     1      -0.340   9.614  23.022  0.00  0.00    +0.000 A 
ATOM      8  N   UNL     1       0.315   9.311  21.908  0.00  0.00    +0.000 NA
ATOM      9  C   UNL     1       0.210  10.220  20.916  0.00  0.00    +0.000 A 
ENDROOT
BRANCH   5  10
ATOM     10  C   UNL     1      -2.300  12.756  22.318  0.00  0.00    +0.000 A 
ATOM     11  C   UNL     1      -3.654  12.551  22.099  0.00  0.00    +0.000 A 
ATOM     12  N   UNL     1      -4.660  13.438  22.301  0.00  0.00    +0.000 NA
ATOM     13  C   UNL     1      -4.375  14.524  23.015  0.00  0.00    +0.000 A 
ATOM     14  C   UNL     1      -5.411  15.342  23.431  0.00  0.00    +0.000 A 
ATOM     15  C   UNL     1      -5.215  16.302  24.424  0.00  0.00    +0.000 A 
ATOM     16  C   UNL     1      -3.948  16.480  24.967  0.00  0.00    +0.000 A 
ATOM     17  C   UNL     1      -2.864  15.775  24.441  0.00  0.00    +0.000 A 
ATOM     18  C   UNL     1      -3.070  14.795  23.452  0.00  0.00    +0.000 A 
ATOM     19  C   UNL     1      -2.029  13.983  22.954  0.00  0.00    +0.000 A 
ENDBRANCH   5  10
BRANCH   1  22
ATOM     20  C   UNL     1       2.400   6.654  19.704  0.00  0.00    +0.000 A 
ATOM     21  C   UNL     1       1.785   7.851  20.137  0.00  0.00    +0.000 A 
ATOM     22  C   UNL     1       1.634   8.957  19.277  0.00  0.00    +0.000 A 
ATOM     23  C   UNL     1       2.226   8.927  18.021  0.00  0.00    +0.000 A 
ATOM     24  C   UNL     1       2.931   7.791  17.602  0.00  0.00    +0.000 A 
ATOM     25  C   UNL     1       3.004   6.650  18.422  0.00  0.00    +0.000 A 
BRANCH  25  26
ATOM     26  C   UNL     1       3.656   5.460  17.789  0.00  0.00    +0.000 C 
ATOM     27  N   UNL     1       5.017   5.450  17.750  0.00  0.00    +0.000 N 
ATOM     28  O   UNL     1       3.010   4.505  17.372  0.00  0.00    +0.000 OA
ATOM     29  H   UNL     1       5.532   6.284  18.012  0.00  0.00    +0.000 HD
ATOM     30  H   UNL     1       5.493   4.643  17.372  0.00  0.00    +0.000 HD
ENDBRANCH  25  26
BRANCH  20  31
ATOM     31  N   UNL     1       2.545   5.548  20.587  0.00  0.00    +0.000 N 
ATOM     32  H   UNL     1       2.667   5.934  21.526  0.00  0.00    +0.000 HD
BRANCH  31  33
ATOM     33  C   UNL     1       1.437   4.571  20.608  0.00  0.00    +0.000 C 
BRANCH  33  34
ATOM     34  C   UNL     1       1.967   3.124  20.677  0.00  0.00    +0.000 C 
BRANCH  34  35
ATOM     35  N   UNL     1       1.908   2.474  19.359  0.00  0.00    +0.000 NA
ATOM     36  H   UNL     1       1.152   1.790  19.362  0.00  0.00    +0.000 HD
BRANCH  35  38
ATOM     37  C   UNL     1       4.267   2.335  19.939  0.00  0.00    +0.000 C 
ATOM     38  C   UNL     1       3.160   1.782  19.053  0.00  0.00    +0.000 C 
ENDBRANCH  35  38
ENDBRANCH  34  35
ENDBRANCH  33  34
ENDBRANCH  31  33
ENDBRANCH  20  31
ENDBRANCH   1  22
BRANCH   3  39
ATOM     39  C   UNL     1      -0.624  13.426  19.138  0.00  0.00    +0.000 C 
ATOM     40  C   UNL     1       0.437  14.518  19.077  0.00  0.00    +0.000 C 
ENDBRANCH   3  39
TORSDOF 9
ENDMDL
MODEL 9
REMARK VINA RESULT:      -8.2      0.778      1.190
REMARK  Name = 
REMARK  11 active torsions:
REMARK  status: ('A' for Active; 'I' for Inactive)
REMARK    1  A    between atoms: C_1  and  C_2
REMARK    2  A    between atoms: C_2  and  N_3
REMARK    3  A    between atoms: N_3  and  C_4
REMARK    4  A    between atoms: C_4  and  C_5
REMARK    5  A    between atoms: C_5  and  N_6
REMARK    6  A    between atoms: N_6  and  C_7
REMARK    7  A    between atoms: C_9  and  N_10
REMARK    8  A    between atoms: C_12  and  C_13
REMARK    9  A    between atoms: C_13  and  C_14
REMARK   10  A    between atoms: C_16  and  C_17
REMARK   11  A    between atoms: C_33  and  C_34
REMARK                            x       y       z     vdW  Elec       q    Type
REMARK                         _______ _______ _______ _____ _____    ______ ____
ROOT
ATOM      1  N   UNL     1       1.669   7.004  20.261  0.00  0.00    +0.000 N 
ATOM      2  C   UNL     1       0.826   7.345  21.289  0.00  0.00    +0.000 A 
ATOM      3  C   UNL     1       0.419   8.665  21.161  0.00  0.00    +0.000 A 
ATOM      4  C   UNL     1       1.039   9.185  19.944  0.00  0.00    +0.000 A 
ATOM      5  C   UNL     1       1.109  10.418  19.193  0.00  0.00    +0.000 A 
ATOM      6  C   UNL     1       1.775  10.335  17.944  0.00  0.00    +0.000 A 
ATOM      7  C   UNL     1       2.387   9.176  17.529  0.00  0.00    +0.000 A 
ATOM      8  N   UNL     1       2.418   8.052  18.234  0.00  0.00    +0.000 NA
ATOM      9  C   UNL     1       1.758   8.095  19.411  0.00  0.00    +0.000 A 
ENDROOT
BRANCH   5  10
ATOM     10  C   UNL     1       0.670  11.762  19.668  0.00  0.00    +0.000 A 
ATOM     11  C   UNL     1       0.075  12.703  18.841  0.00  0.00    +0.000 A 
ATOM     12  N   UNL     1      -0.420  13.914  19.202  0.00  0.00    +0.000 NA
ATOM     13  C   UNL     1      -0.591  14.135  20.503  0.00  0.00    +0.000 A 
ATOM     14  C   UNL     1      -1.291  15.259  20.904  0.00  0.00    +0.000 A 
ATOM     15  C   UNL     1      -1.765  15.383  22.210  0.00  0.00    +0.000 A 
ATOM     16  C   UNL     1      -1.486  14.389  23.140  0.00  0.00    +0.000 A 
ATOM     17  C   UNL     1      -0.644  13.332  22.790  0.00  0.00    +0.000 A 
ATOM     18  C   UNL     1      -0.183  13.202  21.467  0.00  0.00    +0.000 A 
ATOM     19  C   UNL     1       0.588  12.102  21.032  0.00  0.00    +0.000 A 
ENDBRANCH   5  10
BRANCH   1  22
ATOM     20  C   UNL     1       4.019   4.385  18.947  0.00  0.00    +0.000 A 
ATOM     21  C   UNL     1       3.252   5.568  19.058  0.00  0.00    +0.000 A 
ATOM     22  C   UNL     1       2.289   5.731  20.074  0.00  0.00    +0.000 A 
ATOM     23  C   UNL     1       1.983   4.657  20.901  0.00  0.00    +0.000 A 
ATOM     24  C   UNL     1       2.657   3.437  20.747  0.00  0.00    +0.000 A 
ATOM     25  C   UNL     1       3.683   3.300  19.795  0.00  0.00    +0.000 A 
BRANCH  25  26
ATOM     26  C   UNL     1       4.417   1.997  19.844  0.00  0.00    +0.000 C 
ATOM     27  N   UNL     1       4.215   1.135  18.809  0.00  0.00    +0.000 N 
ATOM     28  O   UNL     1       5.210   1.725  20.739  0.00  0.00    +0.000 OA
ATOM     29  H   UNL     1       3.489   1.331  18.128  0.00  0.00    +0.000 HD
ATOM     30  H   UNL     1       4.728   0.265  18.784  0.00  0.00    +0.000 HD
ENDBRANCH  25  26
BRANCH  20  31
ATOM     31  N   UNL     1       4.986   4.237  17.914  0.00  0.00    +0.000 N 
ATOM     32  H   UNL     1       4.614   4.718  17.092  0.00  0.00    +0.000 HD
BRANCH  31  33
ATOM     33  C   UNL     1       6.341   4.749  18.201  0.00  0.00    +0.000 C 
BRANCH  33  34
ATOM     34  C   UNL     1       7.208   4.786  16.926  0.00  0.00    +0.000 C 
BRANCH  34  35
ATOM     35  N   UNL     1       7.469   6.170  16.501  0.00  0.00    +0.000 NA
ATOM     36  H   UNL     1       8.477   6.314  16.450  0.00  0.00    +0.000 HD
BRANCH  35  38
ATOM     37  C   UNL     1       7.890   8.275  17.647  0.00  0.00    +0.000 C 
ATOM     38  C   UNL     1       6.908   7.130  17.451  0.00  0.00    +0.000 C 
ENDBRANCH  35  38
ENDBRANCH  34  35
ENDBRANCH  33  34
ENDBRANCH  31  33
ENDBRANCH  20  31
ENDBRANCH   1  22
BRANCH   3  39
ATOM     39  C   UNL     1      -0.481   9.346  22.161  0.00  0.00    +0.000 C 
ATOM     40  C   UNL     1       0.065   9.484  23.576  0.00  0.00    +0.000 C 
ENDBRANCH   3  39
TORSDOF 9
ENDMDL
