MODEL 1
REMARK VINA RESULT:      -8.0      0.000      0.000
REMARK  Name = 
REMARK  12 active torsions:
REMARK  status: ('A' for Active; 'I' for Inactive)
REMARK    1  A    between atoms: C_1  and  C_2
REMARK    2  A    between atoms: C_2  and  N_3
REMARK    3  A    between atoms: N_3  and  C_4
REMARK    4  A    between atoms: N_3  and  S_6
REMARK    5  A    between atoms: C_4  and  C_5
REMARK    6  A    between atoms: S_6  and  C_9
REMARK    7  A    between atoms: C_12  and  C_13
REMARK    8  A    between atoms: N_15  and  C_16
REMARK    9  A    between atoms: N_20  and  C_21
REMARK   10  A    between atoms: C_21  and  C_22
REMARK   11  A    between atoms: C_21  and  C_23
REMARK   12  A    between atoms: C_21  and  C_24
REMARK                            x       y       z     vdW  Elec       q    Type
REMARK                         _______ _______ _______ _____ _____    ______ ____
ROOT
ATOM      1  C   UNL     1       2.146   7.564  19.175  0.00  0.00    +0.000 C 
ATOM      2  O   UNL     1       2.125   7.471  17.962  0.00  0.00    +0.000 OA
ATOM      3  N   UNL     1       2.816   6.575  19.975  0.00  0.00    +0.000 N 
ATOM      4  H   UNL     1       2.605   6.511  20.961  0.00  0.00    +0.000 HD
ENDROOT
BRANCH   3   5
ATOM      5  C   UNL     1       3.548   5.553  19.396  0.00  0.00    +0.000 A 
ATOM      6  C   UNL     1       4.660   5.695  18.610  0.00  0.00    +0.000 A 
ATOM      7  C   UNL     1       5.122   4.388  18.391  0.00  0.00    +0.000 A 
ATOM      8  N   UNL     1       4.361   3.464  18.969  0.00  0.00    +0.000 NA
ATOM      9  N   UNL     1       3.369   4.181  19.555  0.00  0.00    +0.000 N 
ATOM     10  C   UNL     1       6.393   4.206  17.653  0.00  0.00    +0.000 C 
ATOM     11  S   UNL     1       7.047   5.905  17.627  0.00  0.00    +0.000 S 
ATOM     12  O   UNL     1       7.989   6.060  18.721  0.00  0.00    +0.000 OA
ATOM     13  O   UNL     1       7.403   6.268  16.271  0.00  0.00    +0.000 OA
ATOM     14  C   UNL     1       5.508   6.785  18.089  0.00  0.00    +0.000 C 
BRANCH   9  15
ATOM     15  C   UNL     1       2.198   3.494  20.141  0.00  0.00    +0.000 C 
ATOM     16  C   UNL     1       0.984   4.443  20.285  0.00  0.00    +0.000 C 
ATOM     17  C   UNL     1       1.774   2.318  19.245  0.00  0.00    +0.000 C 
ATOM     18  C   UNL     1       2.538   2.973  21.555  0.00  0.00    +0.000 C 
ENDBRANCH   9  15
ENDBRANCH   3   5
BRANCH   1  22
ATOM     19  C   UNL     1       0.081  10.585  21.393  0.00  0.00    +0.000 A 
ATOM     20  C   UNL     1       0.460   9.398  22.030  0.00  0.00    +0.000 A 
ATOM     21  C   UNL     1       1.128   8.403  21.302  0.00  0.00    +0.000 A 
ATOM     22  C   UNL     1       1.411   8.601  19.941  0.00  0.00    +0.000 A 
ATOM     23  C   UNL     1       1.001   9.780  19.304  0.00  0.00    +0.000 A 
ATOM     24  C   UNL     1       0.335  10.770  20.029  0.00  0.00    +0.000 A 
BRANCH  19  25
ATOM     25  S   UNL     1      -0.846  11.826  22.283  0.00  0.00    +0.000 S 
ATOM     26  O   UNL     1       0.118  12.770  22.803  0.00  0.00    +0.000 OA
ATOM     27  O   UNL     1      -1.765  11.127  23.157  0.00  0.00    +0.000 OA
BRANCH  25  28
ATOM     28  N   UNL     1      -1.780  12.605  21.069  0.00  0.00    +0.000 NA
BRANCH  28  30
ATOM     29  C   UNL     1      -3.820  13.625  22.120  0.00  0.00    +0.000 C 
ATOM     30  C   UNL     1      -3.259  12.506  21.254  0.00  0.00    +0.000 C 
ENDBRANCH  28  30
BRANCH  28  31
ATOM     31  C   UNL     1      -1.280  13.980  20.731  0.00  0.00    +0.000 C 
ATOM     32  C   UNL     1      -0.605  14.073  19.371  0.00  0.00    +0.000 C 
ENDBRANCH  28  31
ENDBRANCH  25  28
ENDBRANCH  19  25
ENDBRANCH   1  22
TORSDOF 7
ENDMDL
MODEL 2
REMARK VINA RESULT:      -8.0      0.703      1.092
REMARK  Name = 
REMARK  12 active torsions:
REMARK  status: ('A' for Active; 'I' for Inactive)
REMARK    1  A    between atoms: C_1  and  C_2
REMARK    2  A    between atoms: C_2  and  N_3
REMARK    3  A    between atoms: N_3  and  C_4
REMARK    4  A    between atoms: N_3  and  S_6
REMARK    5  A    between atoms: C_4  and  C_5
REMARK    6  A    between atoms: S_6  and  C_9
REMARK    7  A    between atoms: C_12  and  C_13
REMARK    8  A    between atoms: N_15  and  C_16
REMARK    9  A    between atoms: N_20  and  C_21
REMARK   10  A    between atoms: C_21  and  C_22
REMARK   11  A    between atoms: C_21  and  C_23
REMARK   12  A    between atoms: C_21  and  C_24
REMARK                            x       y       z     vdW  Elec       q    Type
REMARK                         _______ _______ _______ _____ _____    ______ ____
ROOT
ATOM      1  C   UNL     1       2.197   7.697  18.828  0.00  0.00    +0.000 C 
ATOM      2  O   UNL     1       2.175   7.517  17.624  0.00  0.00    +0.000 OA
ATOM      3  N   UNL     1       2.859   6.764  19.698  0.00  0.00    +0.000 N 
ATOM      4  H   UNL     1       2.647   6.772  20.686  0.00  0.00    +0.000 HD
ENDROOT
BRANCH   3   5
ATOM      5  C   UNL     1       3.584   5.696  19.195  0.00  0.00    +0.000 A 
ATOM      6  C   UNL     1       4.702   5.772  18.409  0.00  0.00    +0.000 A 
ATOM      7  C   UNL     1       5.151   4.449  18.283  0.00  0.00    +0.000 A 
ATOM      8  N   UNL     1       4.376   3.574  18.916  0.00  0.00    +0.000 NA
ATOM      9  N   UNL     1       3.388   4.341  19.445  0.00  0.00    +0.000 N 
ATOM     10  C   UNL     1       6.425   4.203  17.569  0.00  0.00    +0.000 C 
ATOM     11  S   UNL     1       7.098   5.889  17.433  0.00  0.00    +0.000 S 
ATOM     12  O   UNL     1       8.034   6.108  18.521  0.00  0.00    +0.000 OA
ATOM     13  O   UNL     1       7.468   6.156  16.059  0.00  0.00    +0.000 OA
ATOM     14  C   UNL     1       5.567   6.815  17.822  0.00  0.00    +0.000 C 
BRANCH   9  15
ATOM     15  C   UNL     1       2.205   3.707  20.067  0.00  0.00    +0.000 C 
ATOM     16  C   UNL     1       1.382   2.890  19.044  0.00  0.00    +0.000 C 
ATOM     17  C   UNL     1       2.648   2.751  21.188  0.00  0.00    +0.000 C 
ATOM     18  C   UNL     1       1.266   4.787  20.648  0.00  0.00    +0.000 C 
ENDBRANCH   9  15
ENDBRANCH   3   5
BRANCH   1  22
ATOM     19  C   UNL     1       0.155  10.884  20.823  0.00  0.00    +0.000 A 
ATOM     20  C   UNL     1       0.438   9.702  21.518  0.00  0.00    +0.000 A 
ATOM     21  C   UNL     1       1.098   8.653  20.862  0.00  0.00    +0.000 A 
ATOM     22  C   UNL     1       1.470   8.792  19.516  0.00  0.00    +0.000 A 
ATOM     23  C   UNL     1       1.157   9.968  18.819  0.00  0.00    +0.000 A 
ATOM     24  C   UNL     1       0.498  11.012  19.473  0.00  0.00    +0.000 A 
BRANCH  19  25
ATOM     25  S   UNL     1      -0.761  12.196  21.618  0.00  0.00    +0.000 S 
ATOM     26  O   UNL     1       0.215  13.096  22.190  0.00  0.00    +0.000 OA
ATOM     27  O   UNL     1      -1.780  11.571  22.434  0.00  0.00    +0.000 OA
BRANCH  25  28
ATOM     28  N   UNL     1      -1.556  12.997  20.323  0.00  0.00    +0.000 NA
BRANCH  28  30
ATOM     29  C   UNL     1      -3.195  11.801  18.842  0.00  0.00    +0.000 C 
ATOM     30  C   UNL     1      -2.982  12.601  20.120  0.00  0.00    +0.000 C 
ENDBRANCH  28  30
BRANCH  28  31
ATOM     31  C   UNL     1      -1.308  14.478  20.303  0.00  0.00    +0.000 C 
ATOM     32  C   UNL     1      -0.341  14.927  19.217  0.00  0.00    +0.000 C 
ENDBRANCH  28  31
ENDBRANCH  25  28
ENDBRANCH  19  25
ENDBRANCH   1  22
TORSDOF 7
ENDMDL
MODEL 3
REMARK VINA RESULT:      -8.0      0.674      1.355
REMARK  Name = 
REMARK  12 active torsions:
REMARK  status: ('A' for Active; 'I' for Inactive)
REMARK    1  A    between atoms: C_1  and  C_2
REMARK    2  A    between atoms: C_2  and  N_3
REMARK    3  A    between atoms: N_3  and  C_4
REMARK    4  A    between atoms: N_3  and  S_6
REMARK    5  A    between atoms: C_4  and  C_5
REMARK    6  A    between atoms: S_6  and  C_9
REMARK    7  A    between atoms: C_12  and  C_13
REMARK    8  A    between atoms: N_15  and  C_16
REMARK    9  A    between atoms: N_20  and  C_21
REMARK   10  A    between atoms: C_21  and  C_22
REMARK   11  A    between atoms: C_21  and  C_23
REMARK   12  A    between atoms: C_21  and  C_24
REMARK                            x       y       z     vdW  Elec       q    Type
REMARK                         _______ _______ _______ _____ _____    ______ ____
ROOT
ATOM      1  C   UNL     1       2.195   7.548  19.032  0.00  0.00    +0.000 C 
ATOM      2  O   UNL     1       2.113   7.415  17.825  0.00  0.00    +0.000 OA
ATOM      3  N   UNL     1       2.888   6.576  19.833  0.00  0.00    +0.000 N 
ATOM      4  H   UNL     1       2.724   6.548  20.829  0.00  0.00    +0.000 HD
ENDROOT
BRANCH   3   5
ATOM      5  C   UNL     1       3.577   5.523  19.254  0.00  0.00    +0.000 A 
ATOM      6  C   UNL     1       4.670   5.620  18.436  0.00  0.00    +0.000 A 
ATOM      7  C   UNL     1       5.091   4.298  18.231  0.00  0.00    +0.000 A 
ATOM      8  N   UNL     1       4.322   3.405  18.846  0.00  0.00    +0.000 NA
ATOM      9  N   UNL     1       3.365   4.160  19.444  0.00  0.00    +0.000 N 
ATOM     10  C   UNL     1       6.337   4.067  17.463  0.00  0.00    +0.000 C 
ATOM     11  S   UNL     1       7.034   5.746  17.387  0.00  0.00    +0.000 S 
ATOM     12  O   UNL     1       8.010   5.897  18.452  0.00  0.00    +0.000 OA
ATOM     13  O   UNL     1       7.364   6.075  16.015  0.00  0.00    +0.000 OA
ATOM     14  C   UNL     1       5.533   6.677  17.871  0.00  0.00    +0.000 C 
BRANCH   9  15
ATOM     15  C   UNL     1       2.192   3.516  20.075  0.00  0.00    +0.000 C 
ATOM     16  C   UNL     1       1.519   2.493  19.130  0.00  0.00    +0.000 C 
ATOM     17  C   UNL     1       2.624   2.770  21.349  0.00  0.00    +0.000 C 
ATOM     18  C   UNL     1       1.129   4.578  20.430  0.00  0.00    +0.000 C 
ENDBRANCH   9  15
ENDBRANCH   3   5
BRANCH   1  22
ATOM     19  C   UNL     1       0.172  10.621  21.218  0.00  0.00    +0.000 A 
ATOM     20  C   UNL     1       0.651  10.890  19.931  0.00  0.00    +0.000 A 
ATOM     21  C   UNL     1       1.323   9.887  19.218  0.00  0.00    +0.000 A 
ATOM     22  C   UNL     1       1.512   8.622  19.796  0.00  0.00    +0.000 A 
ATOM     23  C   UNL     1       1.056   8.371  21.098  0.00  0.00    +0.000 A 
ATOM     24  C   UNL     1       0.387   9.370  21.808  0.00  0.00    +0.000 A 
BRANCH  19  25
ATOM     25  S   UNL     1      -0.610  11.912  22.174  0.00  0.00    +0.000 S 
ATOM     26  O   UNL     1       0.135  13.125  21.921  0.00  0.00    +0.000 OA
ATOM     27  O   UNL     1      -0.786  11.401  23.517  0.00  0.00    +0.000 OA
BRANCH  25  28
ATOM     28  N   UNL     1      -2.171  12.067  21.472  0.00  0.00    +0.000 NA
BRANCH  28  30
ATOM     29  C   UNL     1      -3.345  14.005  22.555  0.00  0.00    +0.000 C 
ATOM     30  C   UNL     1      -3.246  12.493  22.418  0.00  0.00    +0.000 C 
ENDBRANCH  28  30
BRANCH  28  31
ATOM     31  C   UNL     1      -2.159  12.803  20.163  0.00  0.00    +0.000 C 
ATOM     32  C   UNL     1      -2.706  11.995  18.996  0.00  0.00    +0.000 C 
ENDBRANCH  28  31
ENDBRANCH  25  28
ENDBRANCH  19  25
ENDBRANCH   1  22
TORSDOF 7
ENDMDL
MODEL 4
REMARK VINA RESULT:      -8.0      1.126      1.661
REMARK  Name = 
REMARK  12 active torsions:
REMARK  status: ('A' for Active; 'I' for Inactive)
REMARK    1  A    between atoms: C_1  and  C_2
REMARK    2  A    between atoms: C_2  and  N_3
REMARK    3  A    between atoms: N_3  and  C_4
REMARK    4  A    between atoms: N_3  and  S_6
REMARK    5  A    between atoms: C_4  and  C_5
REMARK    6  A    between atoms: S_6  and  C_9
REMARK    7  A    between atoms: C_12  and  C_13
REMARK    8  A    between atoms: N_15  and  C_16
REMARK    9  A    between atoms: N_20  and  C_21
REMARK   10  A    between atoms: C_21  and  C_22
REMARK   11  A    between atoms: C_21  and  C_23
REMARK   12  A    between atoms: C_21  and  C_24
REMARK                            x       y       z     vdW  Elec       q    Type
REMARK                         _______ _______ _______ _____ _____    ______ ____
ROOT
ATOM      1  C   UNL     1       2.172   7.538  19.053  0.00  0.00    +0.000 C 
ATOM      2  O   UNL     1       2.174   7.427  17.840  0.00  0.00    +0.000 OA
ATOM      3  N   UNL     1       2.836   6.567  19.879  0.00  0.00    +0.000 N 
ATOM      4  H   UNL     1       2.606   6.514  20.862  0.00  0.00    +0.000 HD
ENDROOT
BRANCH   3   5
ATOM      5  C   UNL     1       3.588   5.543  19.329  0.00  0.00    +0.000 A 
ATOM      6  C   UNL     1       4.702   5.684  18.546  0.00  0.00    +0.000 A 
ATOM      7  C   UNL     1       5.187   4.381  18.361  0.00  0.00    +0.000 A 
ATOM      8  N   UNL     1       4.438   3.458  18.956  0.00  0.00    +0.000 NA
ATOM      9  N   UNL     1       3.430   4.173  19.519  0.00  0.00    +0.000 N 
ATOM     10  C   UNL     1       6.465   4.202  17.635  0.00  0.00    +0.000 C 
ATOM     11  S   UNL     1       7.091   5.910  17.573  0.00  0.00    +0.000 S 
ATOM     12  O   UNL     1       8.024   6.107  18.668  0.00  0.00    +0.000 OA
ATOM     13  O   UNL     1       7.451   6.247  16.211  0.00  0.00    +0.000 OA
ATOM     14  C   UNL     1       5.536   6.776  18.004  0.00  0.00    +0.000 C 
BRANCH   9  15
ATOM     15  C   UNL     1       2.266   3.480  20.115  0.00  0.00    +0.000 C 
ATOM     16  C   UNL     1       1.125   4.465  20.462  0.00  0.00    +0.000 C 
ATOM     17  C   UNL     1       1.710   2.441  19.126  0.00  0.00    +0.000 C 
ATOM     18  C   UNL     1       2.678   2.779  21.427  0.00  0.00    +0.000 C 
ENDBRANCH   9  15
ENDBRANCH   3   5
BRANCH   1  22
ATOM     19  C   UNL     1       0.033  10.577  21.173  0.00  0.00    +0.000 A 
ATOM     20  C   UNL     1       0.679   9.561  21.887  0.00  0.00    +0.000 A 
ATOM     21  C   UNL     1       1.372   8.558  21.192  0.00  0.00    +0.000 A 
ATOM     22  C   UNL     1       1.414   8.578  19.789  0.00  0.00    +0.000 A 
ATOM     23  C   UNL     1       0.739   9.583  19.082  0.00  0.00    +0.000 A 
ATOM     24  C   UNL     1       0.049  10.580  19.774  0.00  0.00    +0.000 A 
BRANCH  19  25
ATOM     25  S   UNL     1      -0.925  11.813  22.037  0.00  0.00    +0.000 S 
ATOM     26  O   UNL     1      -1.124  11.318  23.381  0.00  0.00    +0.000 OA
ATOM     27  O   UNL     1      -2.044  12.157  21.186  0.00  0.00    +0.000 OA
BRANCH  25  28
ATOM     28  N   UNL     1       0.113  13.180  22.102  0.00  0.00    +0.000 NA
BRANCH  28  30
ATOM     29  C   UNL     1       0.951  14.328  20.031  0.00  0.00    +0.000 C 
ATOM     30  C   UNL     1       1.171  13.217  21.048  0.00  0.00    +0.000 C 
ENDBRANCH  28  30
BRANCH  28  31
ATOM     31  C   UNL     1      -0.626  14.473  22.295  0.00  0.00    +0.000 C 
ATOM     32  C   UNL     1      -1.052  14.731  23.732  0.00  0.00    +0.000 C 
ENDBRANCH  28  31
ENDBRANCH  25  28
ENDBRANCH  19  25
ENDBRANCH   1  22
TORSDOF 7
ENDMDL
MODEL 5
REMARK VINA RESULT:      -7.9      3.063      9.445
REMARK  Name = 
REMARK  12 active torsions:
REMARK  status: ('A' for Active; 'I' for Inactive)
REMARK    1  A    between atoms: C_1  and  C_2
REMARK    2  A    between atoms: C_2  and  N_3
REMARK    3  A    between atoms: N_3  and  C_4
REMARK    4  A    between atoms: N_3  and  S_6
REMARK    5  A    between atoms: C_4  and  C_5
REMARK    6  A    between atoms: S_6  and  C_9
REMARK    7  A    between atoms: C_12  and  C_13
REMARK    8  A    between atoms: N_15  and  C_16
REMARK    9  A    between atoms: N_20  and  C_21
REMARK   10  A    between atoms: C_21  and  C_22
REMARK   11  A    between atoms: C_21  and  C_23
REMARK   12  A    between atoms: C_21  and  C_24
REMARK                            x       y       z     vdW  Elec       q    Type
REMARK                         _______ _______ _______ _____ _____    ______ ____
ROOT
ATOM      1  C   UNL     1       1.440   9.355  18.470  0.00  0.00    +0.000 C 
ATOM      2  O   UNL     1       1.758  10.421  17.975  0.00  0.00    +0.000 OA
ATOM      3  N   UNL     1       0.222   9.230  19.223  0.00  0.00    +0.000 N 
ATOM      4  H   UNL     1       0.103   8.441  19.843  0.00  0.00    +0.000 HD
ENDROOT
BRANCH   3   5
ATOM      5  C   UNL     1      -0.680  10.276  19.316  0.00  0.00    +0.000 A 
ATOM      6  C   UNL     1      -1.703  10.546  18.448  0.00  0.00    +0.000 A 
ATOM      7  C   UNL     1      -2.416  11.600  19.038  0.00  0.00    +0.000 A 
ATOM      8  N   UNL     1      -1.889  12.003  20.190  0.00  0.00    +0.000 NA
ATOM      9  N   UNL     1      -0.796  11.212  20.340  0.00  0.00    +0.000 N 
ATOM     10  C   UNL     1      -3.665  12.058  18.386  0.00  0.00    +0.000 C 
ATOM     11  S   UNL     1      -3.950  10.731  17.174  0.00  0.00    +0.000 S 
ATOM     12  O   UNL     1      -4.886   9.775  17.738  0.00  0.00    +0.000 OA
ATOM     13  O   UNL     1      -4.165  11.308  15.863  0.00  0.00    +0.000 OA
ATOM     14  C   UNL     1      -2.284   9.971  17.218  0.00  0.00    +0.000 C 
BRANCH   9  15
ATOM     15  C   UNL     1       0.181  11.486  21.417  0.00  0.00    +0.000 C 
ATOM     16  C   UNL     1       1.450  12.189  20.879  0.00  0.00    +0.000 C 
ATOM     17  C   UNL     1      -0.450  12.402  22.480  0.00  0.00    +0.000 C 
ATOM     18  C   UNL     1       0.636  10.165  22.073  0.00  0.00    +0.000 C 
ENDBRANCH   9  15
ENDBRANCH   3   5
BRANCH   1  22
ATOM     19  C   UNL     1       3.876   5.839  18.392  0.00  0.00    +0.000 A 
ATOM     20  C   UNL     1       2.991   6.042  19.457  0.00  0.00    +0.000 A 
ATOM     21  C   UNL     1       2.200   7.200  19.488  0.00  0.00    +0.000 A 
ATOM     22  C   UNL     1       2.299   8.146  18.456  0.00  0.00    +0.000 A 
ATOM     23  C   UNL     1       3.210   7.948  17.409  0.00  0.00    +0.000 A 
ATOM     24  C   UNL     1       3.998   6.796  17.378  0.00  0.00    +0.000 A 
BRANCH  19  25
ATOM     25  S   UNL     1       4.953   4.413  18.379  0.00  0.00    +0.000 S 
ATOM     26  O   UNL     1       4.190   3.322  17.814  0.00  0.00    +0.000 OA
ATOM     27  O   UNL     1       5.548   4.316  19.695  0.00  0.00    +0.000 OA
BRANCH  25  28
ATOM     28  N   UNL     1       6.202   4.839  17.279  0.00  0.00    +0.000 NA
BRANCH  28  30
ATOM     29  C   UNL     1       7.753   6.543  18.278  0.00  0.00    +0.000 C 
ATOM     30  C   UNL     1       7.535   5.084  17.906  0.00  0.00    +0.000 C 
ENDBRANCH  28  30
BRANCH  28  31
ATOM     31  C   UNL     1       6.233   3.969  16.055  0.00  0.00    +0.000 C 
ATOM     32  C   UNL     1       5.679   4.640  14.807  0.00  0.00    +0.000 C 
ENDBRANCH  28  31
ENDBRANCH  25  28
ENDBRANCH  19  25
ENDBRANCH   1  22
TORSDOF 7
ENDMDL
MODEL 6
REMARK VINA RESULT:      -7.9      0.435      1.264
REMARK  Name = 
REMARK  12 active torsions:
REMARK  status: ('A' for Active; 'I' for Inactive)
REMARK    1  A    between atoms: C_1  and  C_2
REMARK    2  A    between atoms: C_2  and  N_3
REMARK    3  A    between atoms: N_3  and  C_4
REMARK    4  A    between atoms: N_3  and  S_6
REMARK    5  A    between atoms: C_4  and  C_5
REMARK    6  A    between atoms: S_6  and  C_9
REMARK    7  A    between atoms: C_12  and  C_13
REMARK    8  A    between atoms: N_15  and  C_16
REMARK    9  A    between atoms: N_20  and  C_21
REMARK   10  A    between atoms: C_21  and  C_22
REMARK   11  A    between atoms: C_21  and  C_23
REMARK   12  A    between atoms: C_21  and  C_24
REMARK                            x       y       z     vdW  Elec       q    Type
REMARK                         _______ _______ _______ _____ _____    ______ ____
ROOT
ATOM      1  C   UNL     1       2.202   7.620  18.905  0.00  0.00    +0.000 C 
ATOM      2  O   UNL     1       2.194   7.444  17.701  0.00  0.00    +0.000 OA
ATOM      3  N   UNL     1       2.855   6.683  19.780  0.00  0.00    +0.000 N 
ATOM      4  H   UNL     1       2.631   6.688  20.765  0.00  0.00    +0.000 HD
ENDROOT
BRANCH   3   5
ATOM      5  C   UNL     1       3.586   5.619  19.281  0.00  0.00    +0.000 A 
ATOM      6  C   UNL     1       4.702   5.699  18.493  0.00  0.00    +0.000 A 
ATOM      7  C   UNL     1       5.161   4.378  18.373  0.00  0.00    +0.000 A 
ATOM      8  N   UNL     1       4.394   3.501  19.013  0.00  0.00    +0.000 NA
ATOM      9  N   UNL     1       3.401   4.263  19.539  0.00  0.00    +0.000 N 
ATOM     10  C   UNL     1       6.435   4.138  17.658  0.00  0.00    +0.000 C 
ATOM     11  S   UNL     1       7.095   5.828  17.512  0.00  0.00    +0.000 S 
ATOM     12  O   UNL     1       8.032   6.060  18.596  0.00  0.00    +0.000 OA
ATOM     13  O   UNL     1       7.461   6.090  16.135  0.00  0.00    +0.000 OA
ATOM     14  C   UNL     1       5.558   6.745  17.898  0.00  0.00    +0.000 C 
BRANCH   9  15
ATOM     15  C   UNL     1       2.223   3.625  20.167  0.00  0.00    +0.000 C 
ATOM     16  C   UNL     1       2.591   2.913  21.491  0.00  0.00    +0.000 C 
ATOM     17  C   UNL     1       1.155   4.686  20.483  0.00  0.00    +0.000 C 
ATOM     18  C   UNL     1       1.630   2.555  19.225  0.00  0.00    +0.000 C 
ENDBRANCH   9  15
ENDBRANCH   3   5
BRANCH   1  22
ATOM     19  C   UNL     1       0.025  10.738  20.865  0.00  0.00    +0.000 A 
ATOM     20  C   UNL     1       0.403  10.896  19.527  0.00  0.00    +0.000 A 
ATOM     21  C   UNL     1       1.125   9.878  18.887  0.00  0.00    +0.000 A 
ATOM     22  C   UNL     1       1.466   8.711  19.589  0.00  0.00    +0.000 A 
ATOM     23  C   UNL     1       1.109   8.576  20.938  0.00  0.00    +0.000 A 
ATOM     24  C   UNL     1       0.390   9.589  21.575  0.00  0.00    +0.000 A 
BRANCH  19  25
ATOM     25  S   UNL     1      -0.821  12.059  21.721  0.00  0.00    +0.000 S 
ATOM     26  O   UNL     1       0.202  12.944  22.232  0.00  0.00    +0.000 OA
ATOM     27  O   UNL     1      -1.794  11.444  22.599  0.00  0.00    +0.000 OA
BRANCH  25  28
ATOM     28  N   UNL     1      -1.688  12.875  20.482  0.00  0.00    +0.000 NA
BRANCH  28  30
ATOM     29  C   UNL     1      -3.899  13.895  21.097  0.00  0.00    +0.000 C 
ATOM     30  C   UNL     1      -3.169  12.688  20.524  0.00  0.00    +0.000 C 
ENDBRANCH  28  30
BRANCH  28  31
ATOM     31  C   UNL     1      -1.240  14.295  20.286  0.00  0.00    +0.000 C 
ATOM     32  C   UNL     1      -0.356  14.500  19.065  0.00  0.00    +0.000 C 
ENDBRANCH  28  31
ENDBRANCH  25  28
ENDBRANCH  19  25
ENDBRANCH   1  22
TORSDOF 7
ENDMDL
MODEL 7
REMARK VINA RESULT:      -7.9      3.074      9.490
REMARK  Name = 
REMARK  12 active torsions:
REMARK  status: ('A' for Active; 'I' for Inactive)
REMARK    1  A    between atoms: C_1  and  C_2
REMARK    2  A    between atoms: C_2  and  N_3
REMARK    3  A    between atoms: N_3  and  C_4
REMARK    4  A    between atoms: N_3  and  S_6
REMARK    5  A    between atoms: C_4  and  C_5
REMARK    6  A    between atoms: S_6  and  C_9
REMARK    7  A    between atoms: C_12  and  C_13
REMARK    8  A    between atoms: N_15  and  C_16
REMARK    9  A    between atoms: N_20  and  C_21
REMARK   10  A    between atoms: C_21  and  C_22
REMARK   11  A    between atoms: C_21  and  C_23
REMARK   12  A    between atoms: C_21  and  C_24
REMARK                            x       y       z     vdW  Elec       q    Type
REMARK                         _______ _______ _______ _____ _____    ______ ____
ROOT
ATOM      1  C   UNL     1       1.462   9.377  18.471  0.00  0.00    +0.000 C 
ATOM      2  O   UNL     1       1.810  10.466  18.052  0.00  0.00    +0.000 OA
ATOM      3  N   UNL     1       0.206   9.221  19.154  0.00  0.00    +0.000 N 
ATOM      4  H   UNL     1       0.051   8.400  19.722  0.00  0.00    +0.000 HD
ENDROOT
BRANCH   3   5
ATOM      5  C   UNL     1      -0.694  10.268  19.259  0.00  0.00    +0.000 A 
ATOM      6  C   UNL     1      -1.685  10.579  18.369  0.00  0.00    +0.000 A 
ATOM      7  C   UNL     1      -2.413  11.613  18.977  0.00  0.00    +0.000 A 
ATOM      8  N   UNL     1      -1.922  11.966  20.161  0.00  0.00    +0.000 NA
ATOM      9  N   UNL     1      -0.839  11.163  20.316  0.00  0.00    +0.000 N 
ATOM     10  C   UNL     1      -3.636  12.105  18.303  0.00  0.00    +0.000 C 
ATOM     11  S   UNL     1      -3.888  10.829  17.029  0.00  0.00    +0.000 S 
ATOM     12  O   UNL     1      -4.847   9.857  17.523  0.00  0.00    +0.000 OA
ATOM     13  O   UNL     1      -4.056  11.459  15.736  0.00  0.00    +0.000 OA
ATOM     14  C   UNL     1      -2.228  10.058  17.098  0.00  0.00    +0.000 C 
BRANCH   9  15
ATOM     15  C   UNL     1       0.103  11.388  21.434  0.00  0.00    +0.000 C 
ATOM     16  C   UNL     1       0.611  10.057  22.037  0.00  0.00    +0.000 C 
ATOM     17  C   UNL     1       1.327  12.180  20.941  0.00  0.00    +0.000 C 
ATOM     18  C   UNL     1      -0.595  12.166  22.571  0.00  0.00    +0.000 C 
ENDBRANCH   9  15
ENDBRANCH   3   5
BRANCH   1  22
ATOM     19  C   UNL     1       3.958   5.903  18.401  0.00  0.00    +0.000 A 
ATOM     20  C   UNL     1       4.047   6.838  17.364  0.00  0.00    +0.000 A 
ATOM     21  C   UNL     1       3.222   7.972  17.381  0.00  0.00    +0.000 A 
ATOM     22  C   UNL     1       2.313   8.163  18.434  0.00  0.00    +0.000 A 
ATOM     23  C   UNL     1       2.210   7.206  19.453  0.00  0.00    +0.000 A 
ATOM     24  C   UNL     1       3.031   6.077  19.435  0.00  0.00    +0.000 A 
BRANCH  19  25
ATOM     25  S   UNL     1       4.940   4.411  18.352  0.00  0.00    +0.000 S 
ATOM     26  O   UNL     1       4.088   3.371  17.819  0.00  0.00    +0.000 OA
ATOM     27  O   UNL     1       5.576   4.276  19.646  0.00  0.00    +0.000 OA
BRANCH  25  28
ATOM     28  N   UNL     1       6.171   4.756  17.205  0.00  0.00    +0.000 NA
BRANCH  28  30
ATOM     29  C   UNL     1       7.765   6.326  18.347  0.00  0.00    +0.000 C 
ATOM     30  C   UNL     1       7.537   4.930  17.783  0.00  0.00    +0.000 C 
ENDBRANCH  28  30
BRANCH  28  31
ATOM     31  C   UNL     1       6.112   3.873  15.991  0.00  0.00    +0.000 C 
ATOM     32  C   UNL     1       5.809   4.619  14.701  0.00  0.00    +0.000 C 
ENDBRANCH  28  31
ENDBRANCH  25  28
ENDBRANCH  19  25
ENDBRANCH   1  22
TORSDOF 7
ENDMDL
MODEL 8
REMARK VINA RESULT:      -7.8      1.186      1.998
REMARK  Name = 
REMARK  12 active torsions:
REMARK  status: ('A' for Active; 'I' for Inactive)
REMARK    1  A    between atoms: C_1  and  C_2
REMARK    2  A    between atoms: C_2  and  N_3
REMARK    3  A    between atoms: N_3  and  C_4
REMARK    4  A    between atoms: N_3  and  S_6
REMARK    5  A    between atoms: C_4  and  C_5
REMARK    6  A    between atoms: S_6  and  C_9
REMARK    7  A    between atoms: C_12  and  C_13
REMARK    8  A    between atoms: N_15  and  C_16
REMARK    9  A    between atoms: N_20  and  C_21
REMARK   10  A    between atoms: C_21  and  C_22
REMARK   11  A    between atoms: C_21  and  C_23
REMARK   12  A    between atoms: C_21  and  C_24
REMARK                            x       y       z     vdW  Elec       q    Type
REMARK                         _______ _______ _______ _____ _____    ______ ____
ROOT
ATOM      1  C   UNL     1       2.197   7.567  19.033  0.00  0.00    +0.000 C 
ATOM      2  O   UNL     1       2.204   7.446  17.822  0.00  0.00    +0.000 OA
ATOM      3  N   UNL     1       2.860   6.605  19.871  0.00  0.00    +0.000 N 
ATOM      4  H   UNL     1       2.626   6.560  20.853  0.00  0.00    +0.000 HD
ENDROOT
BRANCH   3   5
ATOM      5  C   UNL     1       3.617   5.578  19.332  0.00  0.00    +0.000 A 
ATOM      6  C   UNL     1       4.731   5.716  18.549  0.00  0.00    +0.000 A 
ATOM      7  C   UNL     1       5.222   4.413  18.379  0.00  0.00    +0.000 A 
ATOM      8  N   UNL     1       4.476   3.493  18.983  0.00  0.00    +0.000 NA
ATOM      9  N   UNL     1       3.465   4.210  19.537  0.00  0.00    +0.000 N 
ATOM     10  C   UNL     1       6.502   4.231  17.656  0.00  0.00    +0.000 C 
ATOM     11  S   UNL     1       7.120   5.941  17.576  0.00  0.00    +0.000 S 
ATOM     12  O   UNL     1       8.051   6.154  18.670  0.00  0.00    +0.000 OA
ATOM     13  O   UNL     1       7.480   6.266  16.211  0.00  0.00    +0.000 OA
ATOM     14  C   UNL     1       5.561   6.805  17.997  0.00  0.00    +0.000 C 
BRANCH   9  15
ATOM     15  C   UNL     1       2.303   3.519  20.139  0.00  0.00    +0.000 C 
ATOM     16  C   UNL     1       1.684   2.482  19.172  0.00  0.00    +0.000 C 
ATOM     17  C   UNL     1       2.736   2.775  21.415  0.00  0.00    +0.000 C 
ATOM     18  C   UNL     1       1.196   4.538  20.483  0.00  0.00    +0.000 C 
ENDBRANCH   9  15
ENDBRANCH   3   5
BRANCH   1  22
ATOM     19  C   UNL     1      -0.057  10.542  21.125  0.00  0.00    +0.000 A 
ATOM     20  C   UNL     1       0.028  10.594  19.729  0.00  0.00    +0.000 A 
ATOM     21  C   UNL     1       0.774   9.626  19.044  0.00  0.00    +0.000 A 
ATOM     22  C   UNL     1       1.432   8.612  19.758  0.00  0.00    +0.000 A 
ATOM     23  C   UNL     1       1.367   8.585  21.158  0.00  0.00    +0.000 A 
ATOM     24  C   UNL     1       0.623   9.550  21.840  0.00  0.00    +0.000 A 
BRANCH  19  25
ATOM     25  S   UNL     1      -0.933  11.816  22.021  0.00  0.00    +0.000 S 
ATOM     26  O   UNL     1      -1.080  11.343  23.379  0.00  0.00    +0.000 OA
ATOM     27  O   UNL     1      -2.083  12.185  21.222  0.00  0.00    +0.000 OA
BRANCH  25  28
ATOM     28  N   UNL     1       0.148  13.151  22.017  0.00  0.00    +0.000 NA
BRANCH  28  30
ATOM     29  C   UNL     1       2.302  13.592  20.802  0.00  0.00    +0.000 C 
ATOM     30  C   UNL     1       0.791  13.436  20.699  0.00  0.00    +0.000 C 
ENDBRANCH  28  30
BRANCH  28  31
ATOM     31  C   UNL     1      -0.402  14.359  22.721  0.00  0.00    +0.000 C 
ATOM     32  C   UNL     1      -0.910  15.442  21.781  0.00  0.00    +0.000 C 
ENDBRANCH  28  31
ENDBRANCH  25  28
ENDBRANCH  19  25
ENDBRANCH   1  22
TORSDOF 7
ENDMDL
MODEL 9
REMARK VINA RESULT:      -7.8      2.440      9.518
REMARK  Name = 
REMARK  12 active torsions:
REMARK  status: ('A' for Active; 'I' for Inactive)
REMARK    1  A    between atoms: C_1  and  C_2
REMARK    2  A    between atoms: C_2  and  N_3
REMARK    3  A    between atoms: N_3  and  C_4
REMARK    4  A    between atoms: N_3  and  S_6
REMARK    5  A    between atoms: C_4  and  C_5
REMARK    6  A    between atoms: S_6  and  C_9
REMARK    7  A    between atoms: C_12  and  C_13
REMARK    8  A    between atoms: N_15  and  C_16
REMARK    9  A    between atoms: N_20  and  C_21
REMARK   10  A    between atoms: C_21  and  C_22
REMARK   11  A    between atoms: C_21  and  C_23
REMARK   12  A    between atoms: C_21  and  C_24
REMARK                            x       y       z     vdW  Elec       q    Type
REMARK                         _______ _______ _______ _____ _____    ______ ____
ROOT
ATOM      1  C   UNL     1       0.613  10.430  19.178  0.00  0.00    +0.000 C 
ATOM      2  O   UNL     1       1.037  11.546  18.941  0.00  0.00    +0.000 OA
ATOM      3  N   UNL     1      -0.686  10.247  19.765  0.00  0.00    +0.000 N 
ATOM      4  H   UNL     1      -0.913   9.363  20.199  0.00  0.00    +0.000 HD
ENDROOT
BRANCH   3   5
ATOM      5  C   UNL     1      -1.539  11.317  19.978  0.00  0.00    +0.000 A 
ATOM      6  C   UNL     1      -1.519  12.172  21.047  0.00  0.00    +0.000 A 
ATOM      7  C   UNL     1      -2.464  13.162  20.741  0.00  0.00    +0.000 A 
ATOM      8  N   UNL     1      -3.071  12.960  19.576  0.00  0.00    +0.000 NA
ATOM      9  N   UNL     1      -2.528  11.800  19.125  0.00  0.00    +0.000 N 
ATOM     10  C   UNL     1      -2.605  14.311  21.665  0.00  0.00    +0.000 C 
ATOM     11  S   UNL     1      -1.137  14.108  22.723  0.00  0.00    +0.000 S 
ATOM     12  O   UNL     1      -0.075  14.960  22.219  0.00  0.00    +0.000 OA
ATOM     13  O   UNL     1      -1.533  14.148  24.116  0.00  0.00    +0.000 OA
ATOM     14  C   UNL     1      -0.727  12.381  22.275  0.00  0.00    +0.000 C 
BRANCH   9  15
ATOM     15  C   UNL     1      -3.090  11.126  17.934  0.00  0.00    +0.000 C 
ATOM     16  C   UNL     1      -3.260   9.605  18.158  0.00  0.00    +0.000 C 
ATOM     17  C   UNL     1      -4.473  11.713  17.601  0.00  0.00    +0.000 C 
ATOM     18  C   UNL     1      -2.146  11.305  16.725  0.00  0.00    +0.000 C 
ENDBRANCH   9  15
ENDBRANCH   3   5
BRANCH   1  22
ATOM     19  C   UNL     1       2.851   6.821  18.654  0.00  0.00    +0.000 A 
ATOM     20  C   UNL     1       2.237   7.080  19.885  0.00  0.00    +0.000 A 
ATOM     21  C   UNL     1       1.512   8.268  20.061  0.00  0.00    +0.000 A 
ATOM     22  C   UNL     1       1.406   9.188  19.006  0.00  0.00    +0.000 A 
ATOM     23  C   UNL     1       2.049   8.933  17.786  0.00  0.00    +0.000 A 
ATOM     24  C   UNL     1       2.771   7.751  17.612  0.00  0.00    +0.000 A 
BRANCH  19  25
ATOM     25  S   UNL     1       3.849   5.354  18.440  0.00  0.00    +0.000 S 
ATOM     26  O   UNL     1       4.775   5.317  19.550  0.00  0.00    +0.000 OA
ATOM     27  O   UNL     1       4.314   5.351  17.069  0.00  0.00    +0.000 OA
BRANCH  25  28
ATOM     28  N   UNL     1       2.734   4.058  18.609  0.00  0.00    +0.000 NA
BRANCH  28  30
ATOM     29  C   UNL     1       3.474   1.718  18.079  0.00  0.00    +0.000 C 
ATOM     30  C   UNL     1       2.837   2.999  17.561  0.00  0.00    +0.000 C 
ENDBRANCH  28  30
BRANCH  28  31
ATOM     31  C   UNL     1       2.638   3.541  20.016  0.00  0.00    +0.000 C 
ATOM     32  C   UNL     1       1.223   3.526  20.573  0.00  0.00    +0.000 C 
ENDBRANCH  28  31
ENDBRANCH  25  28
ENDBRANCH  19  25
ENDBRANCH   1  22
TORSDOF 7
ENDMDL
