MODEL 1
REMARK VINA RESULT:      -9.8      0.000      0.000
REMARK  Name = 
REMARK  8 active torsions:
REMARK  status: ('A' for Active; 'I' for Inactive)
REMARK    1  A    between atoms: C_1  and  C_2
REMARK    2  A    between atoms: C_7  and  C_8
REMARK    3  A    between atoms: C_8  and  C_9
REMARK    4  A    between atoms: C_11  and  C_12
REMARK    5  A    between atoms: C_16  and  O_17
REMARK    6  A    between atoms: O_17  and  C_18
REMARK    7  A    between atoms: C_21  and  C_22
REMARK    8  A    between atoms: C_27  and  N_28
REMARK                            x       y       z     vdW  Elec       q    Type
REMARK                         _______ _______ _______ _____ _____    ______ ____
ROOT
ATOM      1  C   UNL     1       6.325   6.216  16.714  0.00  0.00    +0.000 A 
ATOM      2  C   UNL     1       6.788   5.286  15.786  0.00  0.00    +0.000 A 
ATOM      3  C   UNL     1       6.023   4.146  15.491  0.00  0.00    +0.000 A 
ATOM      4  C   UNL     1       4.783   3.931  16.109  0.00  0.00    +0.000 A 
ATOM      5  C   UNL     1       4.292   4.864  17.017  0.00  0.00    +0.000 A 
ATOM      6  C   UNL     1       5.078   5.995  17.311  0.00  0.00    +0.000 A 
ENDROOT
BRANCH   1   8
ATOM      7  C   UNL     1       7.823   7.647  18.136  0.00  0.00    +0.000 C 
ATOM      8  C   UNL     1       7.054   7.454  17.043  0.00  0.00    +0.000 C 
BRANCH   7  15
ATOM      9  C   UNL     1      10.596  14.464  18.154  0.00  0.00    +0.000 C 
ATOM     10  C   UNL     1      10.235  13.077  18.602  0.00  0.00    +0.000 A 
ATOM     11  C   UNL     1      10.634  12.599  19.859  0.00  0.00    +0.000 A 
ATOM     12  C   UNL     1      10.310  11.305  20.295  0.00  0.00    +0.000 A 
ATOM     13  C   UNL     1       9.573  10.509  19.416  0.00  0.00    +0.000 A 
ATOM     14  N   UNL     1       9.093   9.225  19.500  0.00  0.00    +0.000 N 
ATOM     15  C   UNL     1       8.426   8.925  18.329  0.00  0.00    +0.000 A 
ATOM     16  N   UNL     1       8.458   9.967  17.515  0.00  0.00    +0.000 NA
ATOM     17  C   UNL     1       9.161  10.949  18.165  0.00  0.00    +0.000 A 
ATOM     18  C   UNL     1       9.490  12.248  17.747  0.00  0.00    +0.000 A 
ATOM     19  H   UNL     1       9.221   8.612  20.293  0.00  0.00    +0.000 HD
ENDBRANCH   7  15
BRANCH   7  20
ATOM     20  C   UNL     1       8.072   6.451  19.041  0.00  0.00    +0.000 C 
ATOM     21  N   UNL     1       8.279   5.459  19.792  0.00  0.00    +0.000 NA
ENDBRANCH   7  20
ENDBRANCH   1   8
BRANCH   5  22
ATOM     22  O   UNL     1       3.009   4.672  17.537  0.00  0.00    +0.000 OA
BRANCH  22  23
ATOM     23  C   UNL     1       2.526   5.574  18.478  0.00  0.00    +0.000 A 
ATOM     24  C   UNL     1       2.490   6.933  18.135  0.00  0.00    +0.000 A 
ATOM     25  C   UNL     1       2.024   7.899  19.011  0.00  0.00    +0.000 A 
ATOM     26  C   UNL     1       1.598   7.553  20.297  0.00  0.00    +0.000 A 
ATOM     27  C   UNL     1       1.647   6.203  20.678  0.00  0.00    +0.000 A 
ATOM     28  C   UNL     1       2.122   5.219  19.791  0.00  0.00    +0.000 A 
BRANCH  26  29
ATOM     29  C   UNL     1       1.111   8.619  21.248  0.00  0.00    +0.000 C 
ATOM     30  F   UNL     1      -0.130   8.359  21.744  0.00  0.00    +0.000 F 
ATOM     31  F   UNL     1       1.924   8.767  22.328  0.00  0.00    +0.000 F 
ATOM     32  F   UNL     1       1.031   9.846  20.663  0.00  0.00    +0.000 F 
ENDBRANCH  26  29
BRANCH  28  33
ATOM     33  N   UNL     1       2.148   3.830  20.272  0.00  0.00    +0.000 N 
ATOM     34  O   UNL     1       3.225   3.283  20.418  0.00  0.00    +0.000 OA
ATOM     35  O   UNL     1       1.040   3.282  20.508  0.00  0.00    +0.000 OA
ENDBRANCH  28  33
ENDBRANCH  22  23
ENDBRANCH   5  22
TORSDOF 7
ENDMDL
MODEL 2
REMARK VINA RESULT:      -9.3      0.405      1.089
REMARK  Name = 
REMARK  8 active torsions:
REMARK  status: ('A' for Active; 'I' for Inactive)
REMARK    1  A    between atoms: C_1  and  C_2
REMARK    2  A    between atoms: C_7  and  C_8
REMARK    3  A    between atoms: C_8  and  C_9
REMARK    4  A    between atoms: C_11  and  C_12
REMARK    5  A    between atoms: C_16  and  O_17
REMARK    6  A    between atoms: O_17  and  C_18
REMARK    7  A    between atoms: C_21  and  C_22
REMARK    8  A    between atoms: C_27  and  N_28
REMARK                            x       y       z     vdW  Elec       q    Type
REMARK                         _______ _______ _______ _____ _____    ______ ____
ROOT
ATOM      1  C   UNL     1       6.382   6.180  16.714  0.00  0.00    +0.000 A 
ATOM      2  C   UNL     1       6.868   5.269  15.779  0.00  0.00    +0.000 A 
ATOM      3  C   UNL     1       6.122   4.122  15.463  0.00  0.00    +0.000 A 
ATOM      4  C   UNL     1       4.879   3.882  16.065  0.00  0.00    +0.000 A 
ATOM      5  C   UNL     1       4.364   4.796  16.978  0.00  0.00    +0.000 A 
ATOM      6  C   UNL     1       5.131   5.934  17.295  0.00  0.00    +0.000 A 
ENDROOT
BRANCH   1   8
ATOM      7  C   UNL     1       7.830   7.620  18.178  0.00  0.00    +0.000 C 
ATOM      8  C   UNL     1       7.090   7.424  17.066  0.00  0.00    +0.000 C 
BRANCH   7  15
ATOM      9  C   UNL     1      11.360  13.788  20.090  0.00  0.00    +0.000 C 
ATOM     10  C   UNL     1      10.456  12.839  19.358  0.00  0.00    +0.000 A 
ATOM     11  C   UNL     1       9.675  13.275  18.278  0.00  0.00    +0.000 A 
ATOM     12  C   UNL     1       8.822  12.405  17.583  0.00  0.00    +0.000 A 
ATOM     13  C   UNL     1       8.781  11.078  18.019  0.00  0.00    +0.000 A 
ATOM     14  N   UNL     1       8.078   9.978  17.593  0.00  0.00    +0.000 N 
ATOM     15  C   UNL     1       8.415   8.903  18.391  0.00  0.00    +0.000 A 
ATOM     16  N   UNL     1       9.306   9.277  19.295  0.00  0.00    +0.000 NA
ATOM     17  C   UNL     1       9.541  10.612  19.083  0.00  0.00    +0.000 A 
ATOM     18  C   UNL     1      10.393  11.495  19.764  0.00  0.00    +0.000 A 
ATOM     19  H   UNL     1       7.423   9.974  16.825  0.00  0.00    +0.000 HD
ENDBRANCH   7  15
BRANCH   7  20
ATOM     20  C   UNL     1       8.071   6.422  19.082  0.00  0.00    +0.000 C 
ATOM     21  N   UNL     1       8.270   5.428  19.833  0.00  0.00    +0.000 NA
ENDBRANCH   7  20
ENDBRANCH   1   8
BRANCH   5  22
ATOM     22  O   UNL     1       3.079   4.581  17.482  0.00  0.00    +0.000 OA
BRANCH  22  23
ATOM     23  C   UNL     1       2.570   5.468  18.423  0.00  0.00    +0.000 A 
ATOM     24  C   UNL     1       2.586   6.836  18.118  0.00  0.00    +0.000 A 
ATOM     25  C   UNL     1       2.099   7.790  18.997  0.00  0.00    +0.000 A 
ATOM     26  C   UNL     1       1.598   7.420  20.248  0.00  0.00    +0.000 A 
ATOM     27  C   UNL     1       1.593   6.059  20.591  0.00  0.00    +0.000 A 
ATOM     28  C   UNL     1       2.089   5.087  19.701  0.00  0.00    +0.000 A 
BRANCH  26  29
ATOM     29  C   UNL     1       1.089   8.472  21.203  0.00  0.00    +0.000 C 
ATOM     30  F   UNL     1      -0.186   8.235  21.620  0.00  0.00    +0.000 F 
ATOM     31  F   UNL     1       1.842   8.561  22.332  0.00  0.00    +0.000 F 
ATOM     32  F   UNL     1       1.079   9.717  20.654  0.00  0.00    +0.000 F 
ENDBRANCH  26  29
BRANCH  28  33
ATOM     33  N   UNL     1       2.056   3.686  20.143  0.00  0.00    +0.000 N 
ATOM     34  O   UNL     1       2.989   3.257  20.795  0.00  0.00    +0.000 OA
ATOM     35  O   UNL     1       1.050   3.003  19.815  0.00  0.00    +0.000 OA
ENDBRANCH  28  33
ENDBRANCH  22  23
ENDBRANCH   5  22
TORSDOF 7
ENDMDL
MODEL 3
REMARK VINA RESULT:      -8.9      5.355      8.142
REMARK  Name = 
REMARK  8 active torsions:
REMARK  status: ('A' for Active; 'I' for Inactive)
REMARK    1  A    between atoms: C_1  and  C_2
REMARK    2  A    between atoms: C_7  and  C_8
REMARK    3  A    between atoms: C_8  and  C_9
REMARK    4  A    between atoms: C_11  and  C_12
REMARK    5  A    between atoms: C_16  and  O_17
REMARK    6  A    between atoms: O_17  and  C_18
REMARK    7  A    between atoms: C_21  and  C_22
REMARK    8  A    between atoms: C_27  and  N_28
REMARK                            x       y       z     vdW  Elec       q    Type
REMARK                         _______ _______ _______ _____ _____    ______ ____
ROOT
ATOM      1  C   UNL     1       1.907   5.441  20.464  0.00  0.00    +0.000 A 
ATOM      2  C   UNL     1       1.206   4.240  20.553  0.00  0.00    +0.000 A 
ATOM      3  C   UNL     1       1.827   3.036  20.186  0.00  0.00    +0.000 A 
ATOM      4  C   UNL     1       3.156   3.017  19.741  0.00  0.00    +0.000 A 
ATOM      5  C   UNL     1       3.880   4.202  19.673  0.00  0.00    +0.000 A 
ATOM      6  C   UNL     1       3.238   5.404  20.032  0.00  0.00    +0.000 A 
ENDROOT
BRANCH   1   8
ATOM      7  C   UNL     1       1.476   7.903  20.203  0.00  0.00    +0.000 C 
ATOM      8  C   UNL     1       1.334   6.737  20.870  0.00  0.00    +0.000 C 
BRANCH   7  15
ATOM      9  C   UNL     1      -0.975  14.510  22.325  0.00  0.00    +0.000 C 
ATOM     10  C   UNL     1      -0.768  13.024  22.268  0.00  0.00    +0.000 A 
ATOM     11  C   UNL     1      -1.399  12.172  23.187  0.00  0.00    +0.000 A 
ATOM     12  C   UNL     1      -1.215  10.781  23.153  0.00  0.00    +0.000 A 
ATOM     13  C   UNL     1      -0.369  10.280  22.160  0.00  0.00    +0.000 A 
ATOM     14  N   UNL     1       0.037   9.009  21.836  0.00  0.00    +0.000 N 
ATOM     15  C   UNL     1       0.894   9.081  20.756  0.00  0.00    +0.000 A 
ATOM     16  N   UNL     1       1.038  10.342  20.381  0.00  0.00    +0.000 NA
ATOM     17  C   UNL     1       0.271  11.093  21.235  0.00  0.00    +0.000 A 
ATOM     18  C   UNL     1       0.073  12.482  21.280  0.00  0.00    +0.000 A 
ATOM     19  H   UNL     1      -0.249   8.171  22.322  0.00  0.00    +0.000 HD
ENDBRANCH   7  15
BRANCH   7  20
ATOM     20  C   UNL     1       2.170   7.860  18.851  0.00  0.00    +0.000 C 
ATOM     21  N   UNL     1       2.746   7.824  17.729  0.00  0.00    +0.000 NA
ENDBRANCH   7  20
ENDBRANCH   1   8
BRANCH   5  22
ATOM     22  O   UNL     1       5.232   4.137  19.323  0.00  0.00    +0.000 OA
BRANCH  22  23
ATOM     23  C   UNL     1       5.583   4.231  17.982  0.00  0.00    +0.000 A 
ATOM     24  C   UNL     1       4.774   3.581  17.039  0.00  0.00    +0.000 A 
ATOM     25  C   UNL     1       5.050   3.623  15.682  0.00  0.00    +0.000 A 
ATOM     26  C   UNL     1       6.176   4.297  15.202  0.00  0.00    +0.000 A 
ATOM     27  C   UNL     1       7.019   4.936  16.125  0.00  0.00    +0.000 A 
ATOM     28  C   UNL     1       6.743   4.893  17.505  0.00  0.00    +0.000 A 
BRANCH  26  29
ATOM     29  C   UNL     1       6.475   4.318  13.723  0.00  0.00    +0.000 C 
ATOM     30  F   UNL     1       5.376   4.590  12.965  0.00  0.00    +0.000 F 
ATOM     31  F   UNL     1       7.403   5.255  13.389  0.00  0.00    +0.000 F 
ATOM     32  F   UNL     1       6.958   3.129  13.269  0.00  0.00    +0.000 F 
ENDBRANCH  26  29
BRANCH  28  33
ATOM     33  N   UNL     1       7.681   5.581  18.404  0.00  0.00    +0.000 N 
ATOM     34  O   UNL     1       7.831   6.782  18.282  0.00  0.00    +0.000 OA
ATOM     35  O   UNL     1       8.280   4.877  19.258  0.00  0.00    +0.000 OA
ENDBRANCH  28  33
ENDBRANCH  22  23
ENDBRANCH   5  22
TORSDOF 7
ENDMDL
MODEL 4
REMARK VINA RESULT:      -8.8      5.389      8.176
REMARK  Name = 
REMARK  8 active torsions:
REMARK  status: ('A' for Active; 'I' for Inactive)
REMARK    1  A    between atoms: C_1  and  C_2
REMARK    2  A    between atoms: C_7  and  C_8
REMARK    3  A    between atoms: C_8  and  C_9
REMARK    4  A    between atoms: C_11  and  C_12
REMARK    5  A    between atoms: C_16  and  O_17
REMARK    6  A    between atoms: O_17  and  C_18
REMARK    7  A    between atoms: C_21  and  C_22
REMARK    8  A    between atoms: C_27  and  N_28
REMARK                            x       y       z     vdW  Elec       q    Type
REMARK                         _______ _______ _______ _____ _____    ______ ____
ROOT
ATOM      1  C   UNL     1       1.884   5.478  20.529  0.00  0.00    +0.000 A 
ATOM      2  C   UNL     1       1.188   4.276  20.644  0.00  0.00    +0.000 A 
ATOM      3  C   UNL     1       1.805   3.069  20.281  0.00  0.00    +0.000 A 
ATOM      4  C   UNL     1       3.128   3.048  19.816  0.00  0.00    +0.000 A 
ATOM      5  C   UNL     1       3.848   4.234  19.724  0.00  0.00    +0.000 A 
ATOM      6  C   UNL     1       3.209   5.438  20.078  0.00  0.00    +0.000 A 
ENDROOT
BRANCH   1   8
ATOM      7  C   UNL     1       1.460   7.939  20.257  0.00  0.00    +0.000 C 
ATOM      8  C   UNL     1       1.314   6.777  20.929  0.00  0.00    +0.000 C 
BRANCH   7  15
ATOM      9  C   UNL     1      -2.009  13.395  23.773  0.00  0.00    +0.000 C 
ATOM     10  C   UNL     1      -1.139  12.667  22.789  0.00  0.00    +0.000 A 
ATOM     11  C   UNL     1      -0.457  13.362  21.779  0.00  0.00    +0.000 A 
ATOM     12  C   UNL     1       0.358  12.700  20.848  0.00  0.00    +0.000 A 
ATOM     13  C   UNL     1       0.457  11.312  20.969  0.00  0.00    +0.000 A 
ATOM     14  N   UNL     1       1.141  10.360  20.253  0.00  0.00    +0.000 N 
ATOM     15  C   UNL     1       0.880   9.122  20.804  0.00  0.00    +0.000 A 
ATOM     16  N   UNL     1       0.069   9.253  21.841  0.00  0.00    +0.000 NA
ATOM     17  C   UNL     1      -0.203  10.593  21.956  0.00  0.00    +0.000 A 
ATOM     18  C   UNL     1      -1.011  11.270  22.882  0.00  0.00    +0.000 A 
ATOM     19  H   UNL     1       1.728  10.551  19.454  0.00  0.00    +0.000 HD
ENDBRANCH   7  15
BRANCH   7  20
ATOM     20  C   UNL     1       2.153   7.888  18.905  0.00  0.00    +0.000 C 
ATOM     21  N   UNL     1       2.729   7.845  17.783  0.00  0.00    +0.000 NA
ENDBRANCH   7  20
ENDBRANCH   1   8
BRANCH   5  22
ATOM     22  O   UNL     1       5.194   4.167  19.354  0.00  0.00    +0.000 OA
BRANCH  22  23
ATOM     23  C   UNL     1       5.524   4.233  18.006  0.00  0.00    +0.000 A 
ATOM     24  C   UNL     1       4.644   3.653  17.081  0.00  0.00    +0.000 A 
ATOM     25  C   UNL     1       4.894   3.673  15.719  0.00  0.00    +0.000 A 
ATOM     26  C   UNL     1       6.063   4.250  15.214  0.00  0.00    +0.000 A 
ATOM     27  C   UNL     1       6.975   4.815  16.118  0.00  0.00    +0.000 A 
ATOM     28  C   UNL     1       6.725   4.795  17.504  0.00  0.00    +0.000 A 
BRANCH  26  29
ATOM     29  C   UNL     1       6.331   4.247  13.729  0.00  0.00    +0.000 C 
ATOM     30  F   UNL     1       7.239   5.190  13.353  0.00  0.00    +0.000 F 
ATOM     31  F   UNL     1       6.823   3.057  13.289  0.00  0.00    +0.000 F 
ATOM     32  F   UNL     1       5.212   4.489  12.994  0.00  0.00    +0.000 F 
ENDBRANCH  26  29
BRANCH  28  33
ATOM     33  N   UNL     1       7.736   5.401  18.383  0.00  0.00    +0.000 N 
ATOM     34  O   UNL     1       7.753   6.612  18.505  0.00  0.00    +0.000 OA
ATOM     35  O   UNL     1       8.535   4.621  18.964  0.00  0.00    +0.000 OA
ENDBRANCH  28  33
ENDBRANCH  22  23
ENDBRANCH   5  22
TORSDOF 7
ENDMDL
MODEL 5
REMARK VINA RESULT:      -8.6      2.416      2.983
REMARK  Name = 
REMARK  8 active torsions:
REMARK  status: ('A' for Active; 'I' for Inactive)
REMARK    1  A    between atoms: C_1  and  C_2
REMARK    2  A    between atoms: C_7  and  C_8
REMARK    3  A    between atoms: C_8  and  C_9
REMARK    4  A    between atoms: C_11  and  C_12
REMARK    5  A    between atoms: C_16  and  O_17
REMARK    6  A    between atoms: O_17  and  C_18
REMARK    7  A    between atoms: C_21  and  C_22
REMARK    8  A    between atoms: C_27  and  N_28
REMARK                            x       y       z     vdW  Elec       q    Type
REMARK                         _______ _______ _______ _____ _____    ______ ____
ROOT
ATOM      1  C   UNL     1       6.743   6.177  16.385  0.00  0.00    +0.000 A 
ATOM      2  C   UNL     1       7.395   5.257  15.566  0.00  0.00    +0.000 A 
ATOM      3  C   UNL     1       6.732   4.090  15.153  0.00  0.00    +0.000 A 
ATOM      4  C   UNL     1       5.409   3.838  15.541  0.00  0.00    +0.000 A 
ATOM      5  C   UNL     1       4.733   4.759  16.334  0.00  0.00    +0.000 A 
ATOM      6  C   UNL     1       5.417   5.917  16.751  0.00  0.00    +0.000 A 
ENDROOT
BRANCH   1   8
ATOM      7  C   UNL     1       7.906   7.670  18.037  0.00  0.00    +0.000 C 
ATOM      8  C   UNL     1       7.361   7.441  16.823  0.00  0.00    +0.000 C 
BRANCH   7  15
ATOM      9  C   UNL     1      10.194  14.647  18.543  0.00  0.00    +0.000 C 
ATOM     10  C   UNL     1       9.946  13.206  18.885  0.00  0.00    +0.000 A 
ATOM     11  C   UNL     1      10.420  12.658  20.086  0.00  0.00    +0.000 A 
ATOM     12  C   UNL     1      10.202  11.313  20.422  0.00  0.00    +0.000 A 
ATOM     13  C   UNL     1       9.493  10.539  19.501  0.00  0.00    +0.000 A 
ATOM     14  N   UNL     1       9.107   9.220  19.491  0.00  0.00    +0.000 N 
ATOM     15  C   UNL     1       8.424   8.968  18.319  0.00  0.00    +0.000 A 
ATOM     16  N   UNL     1       8.356  10.072  17.593  0.00  0.00    +0.000 NA
ATOM     17  C   UNL     1       9.010  11.048  18.303  0.00  0.00    +0.000 A 
ATOM     18  C   UNL     1       9.232  12.396  17.984  0.00  0.00    +0.000 A 
ATOM     19  H   UNL     1       9.304   8.557  20.227  0.00  0.00    +0.000 HD
ENDBRANCH   7  15
BRANCH   7  20
ATOM     20  C   UNL     1       8.017   6.492  18.991  0.00  0.00    +0.000 C 
ATOM     21  N   UNL     1       8.109   5.514  19.784  0.00  0.00    +0.000 NA
ENDBRANCH   7  20
ENDBRANCH   1   8
BRANCH   5  22
ATOM     22  O   UNL     1       3.384   4.527  16.619  0.00  0.00    +0.000 OA
BRANCH  22  23
ATOM     23  C   UNL     1       3.026   4.152  17.908  0.00  0.00    +0.000 A 
ATOM     24  C   UNL     1       3.083   2.792  18.242  0.00  0.00    +0.000 A 
ATOM     25  C   UNL     1       2.744   2.330  19.503  0.00  0.00    +0.000 A 
ATOM     26  C   UNL     1       2.296   3.212  20.491  0.00  0.00    +0.000 A 
ATOM     27  C   UNL     1       2.203   4.577  20.178  0.00  0.00    +0.000 A 
ATOM     28  C   UNL     1       2.545   5.049  18.896  0.00  0.00    +0.000 A 
BRANCH  26  29
ATOM     29  C   UNL     1       1.911   2.693  21.854  0.00  0.00    +0.000 C 
ATOM     30  F   UNL     1       0.570   2.488  21.983  0.00  0.00    +0.000 F 
ATOM     31  F   UNL     1       2.502   1.503  22.146  0.00  0.00    +0.000 F 
ATOM     32  F   UNL     1       2.258   3.545  22.857  0.00  0.00    +0.000 F 
ENDBRANCH  26  29
BRANCH  28  33
ATOM     33  N   UNL     1       2.411   6.492  18.648  0.00  0.00    +0.000 N 
ATOM     34  O   UNL     1       2.085   6.866  17.537  0.00  0.00    +0.000 OA
ATOM     35  O   UNL     1       2.644   7.265  19.613  0.00  0.00    +0.000 OA
ENDBRANCH  28  33
ENDBRANCH  22  23
ENDBRANCH   5  22
TORSDOF 7
ENDMDL
MODEL 6
REMARK VINA RESULT:      -8.6      4.911      6.837
REMARK  Name = 
REMARK  8 active torsions:
REMARK  status: ('A' for Active; 'I' for Inactive)
REMARK    1  A    between atoms: C_1  and  C_2
REMARK    2  A    between atoms: C_7  and  C_8
REMARK    3  A    between atoms: C_8  and  C_9
REMARK    4  A    between atoms: C_11  and  C_12
REMARK    5  A    between atoms: C_16  and  O_17
REMARK    6  A    between atoms: O_17  and  C_18
REMARK    7  A    between atoms: C_21  and  C_22
REMARK    8  A    between atoms: C_27  and  N_28
REMARK                            x       y       z     vdW  Elec       q    Type
REMARK                         _______ _______ _______ _____ _____    ______ ____
ROOT
ATOM      1  C   UNL     1       2.785   5.256  18.673  0.00  0.00    +0.000 A 
ATOM      2  C   UNL     1       2.024   4.311  19.357  0.00  0.00    +0.000 A 
ATOM      3  C   UNL     1       1.301   4.685  20.501  0.00  0.00    +0.000 A 
ATOM      4  C   UNL     1       1.320   6.009  20.963  0.00  0.00    +0.000 A 
ATOM      5  C   UNL     1       2.051   6.972  20.276  0.00  0.00    +0.000 A 
ATOM      6  C   UNL     1       2.781   6.576  19.138  0.00  0.00    +0.000 A 
ENDROOT
BRANCH   1   8
ATOM      7  C   UNL     1       4.881   4.921  17.328  0.00  0.00    +0.000 C 
ATOM      8  C   UNL     1       3.536   4.945  17.443  0.00  0.00    +0.000 C 
BRANCH   7  15
ATOM      9  C   UNL     1       7.243   2.608  10.752  0.00  0.00    +0.000 C 
ATOM     10  C   UNL     1       7.072   3.450  11.984  0.00  0.00    +0.000 A 
ATOM     11  C   UNL     1       7.796   4.640  12.149  0.00  0.00    +0.000 A 
ATOM     12  C   UNL     1       7.653   5.439  13.293  0.00  0.00    +0.000 A 
ATOM     13  C   UNL     1       6.758   4.993  14.268  0.00  0.00    +0.000 A 
ATOM     14  N   UNL     1       6.376   5.500  15.486  0.00  0.00    +0.000 N 
ATOM     15  C   UNL     1       5.452   4.644  16.050  0.00  0.00    +0.000 A 
ATOM     16  N   UNL     1       5.229   3.624  15.237  0.00  0.00    +0.000 NA
ATOM     17  C   UNL     1       6.026   3.821  14.137  0.00  0.00    +0.000 A 
ATOM     18  C   UNL     1       6.176   3.036  12.984  0.00  0.00    +0.000 A 
ATOM     19  H   UNL     1       6.727   6.356  15.889  0.00  0.00    +0.000 HD
ENDBRANCH   7  15
BRANCH   7  20
ATOM     20  C   UNL     1       5.699   5.097  18.597  0.00  0.00    +0.000 C 
ATOM     21  N   UNL     1       6.377   5.242  19.651  0.00  0.00    +0.000 NA
ENDBRANCH   7  20
ENDBRANCH   1   8
BRANCH   5  22
ATOM     22  O   UNL     1       1.967   8.300  20.703  0.00  0.00    +0.000 OA
BRANCH  22  23
ATOM     23  C   UNL     1       1.045   9.143  20.094  0.00  0.00    +0.000 A 
ATOM     24  C   UNL     1       1.210   9.431  18.732  0.00  0.00    +0.000 A 
ATOM     25  C   UNL     1       0.338  10.260  18.046  0.00  0.00    +0.000 A 
ATOM     26  C   UNL     1      -0.732  10.874  18.704  0.00  0.00    +0.000 A 
ATOM     27  C   UNL     1      -0.906  10.626  20.074  0.00  0.00    +0.000 A 
ATOM     28  C   UNL     1      -0.021   9.785  20.775  0.00  0.00    +0.000 A 
BRANCH  26  29
ATOM     29  C   UNL     1      -1.662  11.792  17.949  0.00  0.00    +0.000 C 
ATOM     30  F   UNL     1      -2.772  12.125  18.664  0.00  0.00    +0.000 F 
ATOM     31  F   UNL     1      -1.070  12.967  17.604  0.00  0.00    +0.000 F 
ATOM     32  F   UNL     1      -2.114  11.240  16.790  0.00  0.00    +0.000 F 
ENDBRANCH  26  29
BRANCH  28  33
ATOM     33  N   UNL     1      -0.270   9.585  22.210  0.00  0.00    +0.000 N 
ATOM     34  O   UNL     1       0.110  10.435  22.992  0.00  0.00    +0.000 OA
ATOM     35  O   UNL     1      -0.870   8.531  22.548  0.00  0.00    +0.000 OA
ENDBRANCH  28  33
ENDBRANCH  22  23
ENDBRANCH   5  22
TORSDOF 7
ENDMDL
MODEL 7
REMARK VINA RESULT:      -8.6      5.298      8.277
REMARK  Name = 
REMARK  8 active torsions:
REMARK  status: ('A' for Active; 'I' for Inactive)
REMARK    1  A    between atoms: C_1  and  C_2
REMARK    2  A    between atoms: C_7  and  C_8
REMARK    3  A    between atoms: C_8  and  C_9
REMARK    4  A    between atoms: C_11  and  C_12
REMARK    5  A    between atoms: C_16  and  O_17
REMARK    6  A    between atoms: O_17  and  C_18
REMARK    7  A    between atoms: C_21  and  C_22
REMARK    8  A    between atoms: C_27  and  N_28
REMARK                            x       y       z     vdW  Elec       q    Type
REMARK                         _______ _______ _______ _____ _____    ______ ____
ROOT
ATOM      1  C   UNL     1       1.958   6.140  20.383  0.00  0.00    +0.000 A 
ATOM      2  C   UNL     1       1.295   4.920  20.495  0.00  0.00    +0.000 A 
ATOM      3  C   UNL     1       1.927   3.737  20.078  0.00  0.00    +0.000 A 
ATOM      4  C   UNL     1       3.230   3.760  19.562  0.00  0.00    +0.000 A 
ATOM      5  C   UNL     1       3.917   4.965  19.471  0.00  0.00    +0.000 A 
ATOM      6  C   UNL     1       3.264   6.144  19.880  0.00  0.00    +0.000 A 
ENDROOT
BRANCH   1   8
ATOM      7  C   UNL     1       1.352   8.566  20.130  0.00  0.00    +0.000 C 
ATOM      8  C   UNL     1       1.373   7.415  20.837  0.00  0.00    +0.000 C 
BRANCH   7  15
ATOM      9  C   UNL     1      -2.101  13.884  23.867  0.00  0.00    +0.000 C 
ATOM     10  C   UNL     1      -1.209  13.196  22.873  0.00  0.00    +0.000 A 
ATOM     11  C   UNL     1      -0.458  13.934  21.947  0.00  0.00    +0.000 A 
ATOM     12  C   UNL     1       0.378  13.310  21.009  0.00  0.00    +0.000 A 
ATOM     13  C   UNL     1       0.426  11.914  21.035  0.00  0.00    +0.000 A 
ATOM     14  N   UNL     1       1.112  10.991  20.284  0.00  0.00    +0.000 N 
ATOM     15  C   UNL     1       0.785   9.727  20.734  0.00  0.00    +0.000 A 
ATOM     16  N   UNL     1      -0.069   9.815  21.740  0.00  0.00    +0.000 NA
ATOM     17  C   UNL     1      -0.303  11.153  21.938  0.00  0.00    +0.000 A 
ATOM     18  C   UNL     1      -1.131  11.792  22.873  0.00  0.00    +0.000 A 
ATOM     19  H   UNL     1       1.742  11.216  19.528  0.00  0.00    +0.000 HD
ENDBRANCH   7  15
BRANCH   7  20
ATOM     20  C   UNL     1       1.848   8.518  18.695  0.00  0.00    +0.000 C 
ATOM     21  N   UNL     1       2.261   8.480  17.503  0.00  0.00    +0.000 NA
ENDBRANCH   7  20
ENDBRANCH   1   8
BRANCH   5  22
ATOM     22  O   UNL     1       5.249   4.941  19.048  0.00  0.00    +0.000 OA
BRANCH  22  23
ATOM     23  C   UNL     1       5.520   4.782  17.694  0.00  0.00    +0.000 A 
ATOM     24  C   UNL     1       4.762   3.850  16.973  0.00  0.00    +0.000 A 
ATOM     25  C   UNL     1       4.964   3.628  15.621  0.00  0.00    +0.000 A 
ATOM     26  C   UNL     1       5.967   4.311  14.926  0.00  0.00    +0.000 A 
ATOM     27  C   UNL     1       6.760   5.231  15.629  0.00  0.00    +0.000 A 
ATOM     28  C   UNL     1       6.558   5.458  17.004  0.00  0.00    +0.000 A 
BRANCH  26  29
ATOM     29  C   UNL     1       6.190   4.044  13.457  0.00  0.00    +0.000 C 
ATOM     30  F   UNL     1       5.057   4.191  12.715  0.00  0.00    +0.000 F 
ATOM     31  F   UNL     1       7.110   4.882  12.908  0.00  0.00    +0.000 F 
ATOM     32  F   UNL     1       6.635   2.781  13.216  0.00  0.00    +0.000 F 
ENDBRANCH  26  29
BRANCH  28  33
ATOM     33  N   UNL     1       7.438   6.432  17.665  0.00  0.00    +0.000 N 
ATOM     34  O   UNL     1       7.991   6.110  18.701  0.00  0.00    +0.000 OA
ATOM     35  O   UNL     1       7.570   7.555  17.115  0.00  0.00    +0.000 OA
ENDBRANCH  28  33
ENDBRANCH  22  23
ENDBRANCH   5  22
TORSDOF 7
ENDMDL
MODEL 8
REMARK VINA RESULT:      -8.6      5.003      7.223
REMARK  Name = 
REMARK  8 active torsions:
REMARK  status: ('A' for Active; 'I' for Inactive)
REMARK    1  A    between atoms: C_1  and  C_2
REMARK    2  A    between atoms: C_7  and  C_8
REMARK    3  A    between atoms: C_8  and  C_9
REMARK    4  A    between atoms: C_11  and  C_12
REMARK    5  A    between atoms: C_16  and  O_17
REMARK    6  A    between atoms: O_17  and  C_18
REMARK    7  A    between atoms: C_21  and  C_22
REMARK    8  A    between atoms: C_27  and  N_28
REMARK                            x       y       z     vdW  Elec       q    Type
REMARK                         _______ _______ _______ _____ _____    ______ ____
ROOT
ATOM      1  C   UNL     1       2.902   6.301  18.541  0.00  0.00    +0.000 A 
ATOM      2  C   UNL     1       2.388   5.475  19.538  0.00  0.00    +0.000 A 
ATOM      3  C   UNL     1       1.704   6.033  20.630  0.00  0.00    +0.000 A 
ATOM      4  C   UNL     1       1.514   7.418  20.729  0.00  0.00    +0.000 A 
ATOM      5  C   UNL     1       1.995   8.256  19.729  0.00  0.00    +0.000 A 
ATOM      6  C   UNL     1       2.691   7.681  18.647  0.00  0.00    +0.000 A 
ENDROOT
BRANCH   1   8
ATOM      7  C   UNL     1       4.890   5.407  17.292  0.00  0.00    +0.000 C 
ATOM      8  C   UNL     1       3.594   5.784  17.347  0.00  0.00    +0.000 C 
BRANCH   7  15
ATOM      9  C   UNL     1       6.960   2.329  10.935  0.00  0.00    +0.000 C 
ATOM     10  C   UNL     1       6.883   3.284  12.091  0.00  0.00    +0.000 A 
ATOM     11  C   UNL     1       7.720   4.408  12.155  0.00  0.00    +0.000 A 
ATOM     12  C   UNL     1       7.666   5.310  13.228  0.00  0.00    +0.000 A 
ATOM     13  C   UNL     1       6.739   5.037  14.236  0.00  0.00    +0.000 A 
ATOM     14  N   UNL     1       6.419   5.680  15.407  0.00  0.00    +0.000 N 
ATOM     15  C   UNL     1       5.421   4.969  16.042  0.00  0.00    +0.000 A 
ATOM     16  N   UNL     1       5.093   3.911  15.319  0.00  0.00    +0.000 NA
ATOM     17  C   UNL     1       5.895   3.936  14.206  0.00  0.00    +0.000 A 
ATOM     18  C   UNL     1       5.958   3.045  13.123  0.00  0.00    +0.000 A 
ATOM     19  H   UNL     1       6.856   6.529  15.737  0.00  0.00    +0.000 HD
ENDBRANCH   7  15
BRANCH   7  20
ATOM     20  C   UNL     1       5.673   5.385  18.594  0.00  0.00    +0.000 C 
ATOM     21  N   UNL     1       6.322   5.366  19.676  0.00  0.00    +0.000 NA
ENDBRANCH   7  20
ENDBRANCH   1   8
BRANCH   5  22
ATOM     22  O   UNL     1       1.701   9.620  19.806  0.00  0.00    +0.000 OA
BRANCH  22  23
ATOM     23  C   UNL     1       0.427  10.052  19.458  0.00  0.00    +0.000 A 
ATOM     24  C   UNL     1      -0.074   9.691  18.199  0.00  0.00    +0.000 A 
ATOM     25  C   UNL     1      -1.333  10.078  17.771  0.00  0.00    +0.000 A 
ATOM     26  C   UNL     1      -2.147  10.880  18.577  0.00  0.00    +0.000 A 
ATOM     27  C   UNL     1      -1.662  11.279  19.831  0.00  0.00    +0.000 A 
ATOM     28  C   UNL     1      -0.381  10.890  20.269  0.00  0.00    +0.000 A 
BRANCH  26  29
ATOM     29  C   UNL     1      -3.509  11.311  18.089  0.00  0.00    +0.000 C 
ATOM     30  F   UNL     1      -3.477  11.844  16.836  0.00  0.00    +0.000 F 
ATOM     31  F   UNL     1      -4.395  10.281  18.036  0.00  0.00    +0.000 F 
ATOM     32  F   UNL     1      -4.074  12.258  18.886  0.00  0.00    +0.000 F 
ENDBRANCH  26  29
BRANCH  28  33
ATOM     33  N   UNL     1       0.054  11.358  21.592  0.00  0.00    +0.000 N 
ATOM     34  O   UNL     1       0.370  12.526  21.723  0.00  0.00    +0.000 OA
ATOM     35  O   UNL     1       0.073  10.512  22.524  0.00  0.00    +0.000 OA
ENDBRANCH  28  33
ENDBRANCH  22  23
ENDBRANCH   5  22
TORSDOF 7
ENDMDL
MODEL 9
REMARK VINA RESULT:      -8.4      5.211      8.319
REMARK  Name = 
REMARK  8 active torsions:
REMARK  status: ('A' for Active; 'I' for Inactive)
REMARK    1  A    between atoms: C_1  and  C_2
REMARK    2  A    between atoms: C_7  and  C_8
REMARK    3  A    between atoms: C_8  and  C_9
REMARK    4  A    between atoms: C_11  and  C_12
REMARK    5  A    between atoms: C_16  and  O_17
REMARK    6  A    between atoms: O_17  and  C_18
REMARK    7  A    between atoms: C_21  and  C_22
REMARK    8  A    between atoms: C_27  and  N_28
REMARK                            x       y       z     vdW  Elec       q    Type
REMARK                         _______ _______ _______ _____ _____    ______ ____
ROOT
ATOM      1  C   UNL     1       1.842   6.613  20.484  0.00  0.00    +0.000 A 
ATOM      2  C   UNL     1       1.170   5.399  20.599  0.00  0.00    +0.000 A 
ATOM      3  C   UNL     1       1.790   4.210  20.181  0.00  0.00    +0.000 A 
ATOM      4  C   UNL     1       3.091   4.221  19.660  0.00  0.00    +0.000 A 
ATOM      5  C   UNL     1       3.788   5.421  19.565  0.00  0.00    +0.000 A 
ATOM      6  C   UNL     1       3.147   6.606  19.975  0.00  0.00    +0.000 A 
ENDROOT
BRANCH   1   8
ATOM      7  C   UNL     1       1.180   9.021  20.201  0.00  0.00    +0.000 C 
ATOM      8  C   UNL     1       1.270   7.894  20.939  0.00  0.00    +0.000 C 
BRANCH   7  15
ATOM      9  C   UNL     1      -0.885  15.600  22.773  0.00  0.00    +0.000 C 
ATOM     10  C   UNL     1      -0.831  14.116  22.550  0.00  0.00    +0.000 A 
ATOM     11  C   UNL     1      -1.700  13.252  23.232  0.00  0.00    +0.000 A 
ATOM     12  C   UNL     1      -1.664  11.863  23.041  0.00  0.00    +0.000 A 
ATOM     13  C   UNL     1      -0.715  11.374  22.139  0.00  0.00    +0.000 A 
ATOM     14  N   UNL     1      -0.397  10.107  21.715  0.00  0.00    +0.000 N 
ATOM     15  C   UNL     1       0.639  10.192  20.807  0.00  0.00    +0.000 A 
ATOM     16  N   UNL     1       0.981  11.459  20.633  0.00  0.00    +0.000 NA
ATOM     17  C   UNL     1       0.160  12.200  21.447  0.00  0.00    +0.000 A 
ATOM     18  C   UNL     1       0.107  13.587  21.646  0.00  0.00    +0.000 A 
ATOM     19  H   UNL     1      -0.851   9.263  22.032  0.00  0.00    +0.000 HD
ENDBRANCH   7  15
BRANCH   7  20
ATOM     20  C   UNL     1       1.575   8.935  18.735  0.00  0.00    +0.000 C 
ATOM     21  N   UNL     1       1.903   8.863  17.519  0.00  0.00    +0.000 NA
ENDBRANCH   7  20
ENDBRANCH   1   8
BRANCH   5  22
ATOM     22  O   UNL     1       5.118   5.385  19.137  0.00  0.00    +0.000 OA
BRANCH  22  23
ATOM     23  C   UNL     1       5.385   5.117  17.799  0.00  0.00    +0.000 A 
ATOM     24  C   UNL     1       4.587   4.169  17.143  0.00  0.00    +0.000 A 
ATOM     25  C   UNL     1       4.783   3.841  15.811  0.00  0.00    +0.000 A 
ATOM     26  C   UNL     1       5.817   4.427  15.075  0.00  0.00    +0.000 A 
ATOM     27  C   UNL     1       6.648   5.360  15.714  0.00  0.00    +0.000 A 
ATOM     28  C   UNL     1       6.454   5.694  17.068  0.00  0.00    +0.000 A 
BRANCH  26  29
ATOM     29  C   UNL     1       6.031   4.045  13.631  0.00  0.00    +0.000 C 
ATOM     30  F   UNL     1       6.444   2.756  13.480  0.00  0.00    +0.000 F 
ATOM     31  F   UNL     1       4.900   4.166  12.885  0.00  0.00    +0.000 F 
ATOM     32  F   UNL     1       6.973   4.814  13.020  0.00  0.00    +0.000 F 
ENDBRANCH  26  29
BRANCH  28  33
ATOM     33  N   UNL     1       7.375   6.673  17.662  0.00  0.00    +0.000 N 
ATOM     34  O   UNL     1       7.508   7.754  17.118  0.00  0.00    +0.000 OA
ATOM     35  O   UNL     1       7.979   6.332  18.712  0.00  0.00    +0.000 OA
ENDBRANCH  28  33
ENDBRANCH  22  23
ENDBRANCH   5  22
TORSDOF 7
ENDMDL
