MODEL 1
REMARK VINA RESULT:      -7.7      0.000      0.000
REMARK  Name = 
REMARK  7 active torsions:
REMARK  status: ('A' for Active; 'I' for Inactive)
REMARK    1  A    between atoms: C_1  and  O_2
REMARK    2  A    between atoms: O_2  and  C_3
REMARK    3  A    between atoms: C_6  and  C_7
REMARK    4  A    between atoms: C_7  and  S_8
REMARK    5  A    between atoms: S_8  and  C_11
REMARK    6  A    between atoms: C_15  and  C_17
REMARK    7  A    between atoms: C_24  and  C_25
REMARK                            x       y       z     vdW  Elec       q    Type
REMARK                         _______ _______ _______ _____ _____    ______ ____
ROOT
ATOM      1  C   UNL     1       2.186   4.489  19.083  0.00  0.00    +0.000 A 
ATOM      2  S   UNL     1       2.131   5.967  18.225  0.00  0.00    +0.000 S 
ATOM      3  C   UNL     1       1.996   6.830  19.689  0.00  0.00    +0.000 A 
ATOM      4  N   UNL     1       1.904   8.196  19.729  0.00  0.00    +0.000 N 
ATOM      5  C   UNL     1       1.650   9.031  18.660  0.00  0.00    +0.000 C 
ATOM      6  O   UNL     1       1.465   8.699  17.494  0.00  0.00    +0.000 OA
ATOM      7  N   UNL     1       2.012   6.095  20.776  0.00  0.00    +0.000 NA
ATOM      8  C   UNL     1       2.099   4.746  20.441  0.00  0.00    +0.000 A 
ATOM      9  C   UNL     1       2.098   3.748  21.544  0.00  0.00    +0.000 C 
ATOM     10  H   UNL     1       1.937   8.616  20.653  0.00  0.00    +0.000 HD
ENDROOT
BRANCH   5  11
ATOM     11  C   UNL     1       1.551  10.481  19.026  0.00  0.00    +0.000 A 
ATOM     12  C   UNL     1       2.129  11.433  18.189  0.00  0.00    +0.000 A 
ATOM     13  C   UNL     1       1.992  12.776  18.519  0.00  0.00    +0.000 A 
ATOM     14  C   UNL     1       1.294  13.123  19.670  0.00  0.00    +0.000 A 
ATOM     15  C   UNL     1       0.759  12.108  20.452  0.00  0.00    +0.000 A 
ATOM     16  N   UNL     1       0.864  10.788  20.161  0.00  0.00    +0.000 NA
ENDBRANCH   5  11
BRANCH   1  17
ATOM     17  S   UNL     1       2.366   3.008  18.117  0.00  0.00    +0.000 S 
ATOM     18  O   UNL     1       2.111   3.447  16.757  0.00  0.00    +0.000 OA
ATOM     19  O   UNL     1       1.522   2.030  18.775  0.00  0.00    +0.000 OA
BRANCH  17  20
ATOM     20  C   UNL     1       4.089   2.556  18.292  0.00  0.00    +0.000 C 
BRANCH  20  24
ATOM     21  C   UNL     1       6.676   5.740  16.898  0.00  0.00    +0.000 A 
ATOM     22  C   UNL     1       6.420   5.575  18.259  0.00  0.00    +0.000 A 
ATOM     23  C   UNL     1       5.583   4.550  18.709  0.00  0.00    +0.000 A 
ATOM     24  C   UNL     1       4.972   3.678  17.800  0.00  0.00    +0.000 A 
ATOM     25  C   UNL     1       5.208   3.869  16.429  0.00  0.00    +0.000 A 
ATOM     26  C   UNL     1       6.057   4.892  15.982  0.00  0.00    +0.000 A 
BRANCH  21  28
ATOM     27  C   UNL     1       7.708   7.750  17.611  0.00  0.00    +0.000 C 
ATOM     28  O   UNL     1       7.508   6.781  16.590  0.00  0.00    +0.000 OA
ENDBRANCH  21  28
ENDBRANCH  20  24
ENDBRANCH  17  20
ENDBRANCH   1  17
TORSDOF 5
ENDMDL
MODEL 2
REMARK VINA RESULT:      -7.6      2.042      2.804
REMARK  Name = 
REMARK  7 active torsions:
REMARK  status: ('A' for Active; 'I' for Inactive)
REMARK    1  A    between atoms: C_1  and  O_2
REMARK    2  A    between atoms: O_2  and  C_3
REMARK    3  A    between atoms: C_6  and  C_7
REMARK    4  A    between atoms: C_7  and  S_8
REMARK    5  A    between atoms: S_8  and  C_11
REMARK    6  A    between atoms: C_15  and  C_17
REMARK    7  A    between atoms: C_24  and  C_25
REMARK                            x       y       z     vdW  Elec       q    Type
REMARK                         _______ _______ _______ _____ _____    ______ ____
ROOT
ATOM      1  C   UNL     1       3.069   4.173  19.619  0.00  0.00    +0.000 A 
ATOM      2  S   UNL     1       2.914   5.853  19.336  0.00  0.00    +0.000 S 
ATOM      3  C   UNL     1       1.911   6.007  20.706  0.00  0.00    +0.000 A 
ATOM      4  N   UNL     1       1.383   7.209  21.097  0.00  0.00    +0.000 N 
ATOM      5  C   UNL     1       1.351   8.370  20.352  0.00  0.00    +0.000 C 
ATOM      6  O   UNL     1       1.788   8.529  19.217  0.00  0.00    +0.000 OA
ATOM      7  N   UNL     1       1.701   4.897  21.375  0.00  0.00    +0.000 NA
ATOM      8  C   UNL     1       2.344   3.831  20.748  0.00  0.00    +0.000 A 
ATOM      9  C   UNL     1       2.196   2.476  21.343  0.00  0.00    +0.000 C 
ATOM     10  H   UNL     1       0.890   7.210  21.984  0.00  0.00    +0.000 HD
ENDROOT
BRANCH   5  11
ATOM     11  C   UNL     1       0.654   9.511  21.026  0.00  0.00    +0.000 A 
ATOM     12  C   UNL     1      -0.007   9.286  22.231  0.00  0.00    +0.000 A 
ATOM     13  C   UNL     1      -0.614  10.364  22.867  0.00  0.00    +0.000 A 
ATOM     14  C   UNL     1      -0.547  11.622  22.278  0.00  0.00    +0.000 A 
ATOM     15  C   UNL     1       0.124  11.753  21.070  0.00  0.00    +0.000 A 
ATOM     16  N   UNL     1       0.734  10.730  20.423  0.00  0.00    +0.000 NA
ENDBRANCH   5  11
BRANCH   1  17
ATOM     17  S   UNL     1       4.098   3.263  18.492  0.00  0.00    +0.000 S 
ATOM     18  O   UNL     1       3.641   1.893  18.634  0.00  0.00    +0.000 OA
ATOM     19  O   UNL     1       5.454   3.655  18.827  0.00  0.00    +0.000 OA
BRANCH  17  20
ATOM     20  C   UNL     1       3.659   3.881  16.870  0.00  0.00    +0.000 C 
BRANCH  20  24
ATOM     21  C   UNL     1       7.159   5.332  14.767  0.00  0.00    +0.000 A 
ATOM     22  C   UNL     1       6.443   4.235  14.289  0.00  0.00    +0.000 A 
ATOM     23  C   UNL     1       5.317   3.764  14.967  0.00  0.00    +0.000 A 
ATOM     24  C   UNL     1       4.892   4.376  16.153  0.00  0.00    +0.000 A 
ATOM     25  C   UNL     1       5.634   5.460  16.649  0.00  0.00    +0.000 A 
ATOM     26  C   UNL     1       6.759   5.937  15.958  0.00  0.00    +0.000 A 
BRANCH  21  28
ATOM     27  C   UNL     1       8.152   5.424  12.619  0.00  0.00    +0.000 C 
ATOM     28  O   UNL     1       8.241   5.690  14.013  0.00  0.00    +0.000 OA
ENDBRANCH  21  28
ENDBRANCH  20  24
ENDBRANCH  17  20
ENDBRANCH   1  17
TORSDOF 5
ENDMDL
MODEL 3
REMARK VINA RESULT:      -7.3      1.904      2.592
REMARK  Name = 
REMARK  7 active torsions:
REMARK  status: ('A' for Active; 'I' for Inactive)
REMARK    1  A    between atoms: C_1  and  O_2
REMARK    2  A    between atoms: O_2  and  C_3
REMARK    3  A    between atoms: C_6  and  C_7
REMARK    4  A    between atoms: C_7  and  S_8
REMARK    5  A    between atoms: S_8  and  C_11
REMARK    6  A    between atoms: C_15  and  C_17
REMARK    7  A    between atoms: C_24  and  C_25
REMARK                            x       y       z     vdW  Elec       q    Type
REMARK                         _______ _______ _______ _____ _____    ______ ____
ROOT
ATOM      1  C   UNL     1       3.266   4.728  19.085  0.00  0.00    +0.000 A 
ATOM      2  S   UNL     1       2.891   6.391  18.957  0.00  0.00    +0.000 S 
ATOM      3  C   UNL     1       2.053   6.333  20.440  0.00  0.00    +0.000 A 
ATOM      4  N   UNL     1       1.446   7.434  20.983  0.00  0.00    +0.000 N 
ATOM      5  C   UNL     1       1.193   8.629  20.342  0.00  0.00    +0.000 C 
ATOM      6  O   UNL     1       1.468   8.915  19.181  0.00  0.00    +0.000 OA
ATOM      7  N   UNL     1       2.051   5.164  21.037  0.00  0.00    +0.000 NA
ATOM      8  C   UNL     1       2.727   4.227  20.258  0.00  0.00    +0.000 A 
ATOM      9  C   UNL     1       2.805   2.827  20.755  0.00  0.00    +0.000 C 
ATOM     10  H   UNL     1       1.068   7.317  21.918  0.00  0.00    +0.000 HD
ENDROOT
BRANCH   5  11
ATOM     11  C   UNL     1       0.461   9.632  21.181  0.00  0.00    +0.000 A 
ATOM     12  C   UNL     1      -0.176   9.207  22.344  0.00  0.00    +0.000 A 
ATOM     13  C   UNL     1      -0.816  10.155  23.135  0.00  0.00    +0.000 A 
ATOM     14  C   UNL     1      -0.805  11.487  22.736  0.00  0.00    +0.000 A 
ATOM     15  C   UNL     1      -0.154  11.820  21.556  0.00  0.00    +0.000 A 
ATOM     16  N   UNL     1       0.487  10.927  20.763  0.00  0.00    +0.000 NA
ENDBRANCH   5  11
BRANCH   1  17
ATOM     17  S   UNL     1       4.244   4.024  17.778  0.00  0.00    +0.000 S 
ATOM     18  O   UNL     1       4.121   4.984  16.697  0.00  0.00    +0.000 OA
ATOM     19  O   UNL     1       3.765   2.662  17.648  0.00  0.00    +0.000 OA
BRANCH  17  20
ATOM     20  C   UNL     1       5.920   4.033  18.407  0.00  0.00    +0.000 C 
BRANCH  20  24
ATOM     21  C   UNL     1       7.756   7.911  17.797  0.00  0.00    +0.000 A 
ATOM     22  C   UNL     1       8.201   7.063  18.810  0.00  0.00    +0.000 A 
ATOM     23  C   UNL     1       7.608   5.814  19.010  0.00  0.00    +0.000 A 
ATOM     24  C   UNL     1       6.542   5.394  18.205  0.00  0.00    +0.000 A 
ATOM     25  C   UNL     1       6.076   6.265  17.206  0.00  0.00    +0.000 A 
ATOM     26  C   UNL     1       6.681   7.514  17.002  0.00  0.00    +0.000 A 
BRANCH  21  28
ATOM     27  C   UNL     1       8.922   9.635  18.929  0.00  0.00    +0.000 C 
ATOM     28  O   UNL     1       8.418   9.104  17.709  0.00  0.00    +0.000 OA
ENDBRANCH  21  28
ENDBRANCH  20  24
ENDBRANCH  17  20
ENDBRANCH   1  17
TORSDOF 5
ENDMDL
MODEL 4
REMARK VINA RESULT:      -7.2      3.224      7.428
REMARK  Name = 
REMARK  7 active torsions:
REMARK  status: ('A' for Active; 'I' for Inactive)
REMARK    1  A    between atoms: C_1  and  O_2
REMARK    2  A    between atoms: O_2  and  C_3
REMARK    3  A    between atoms: C_6  and  C_7
REMARK    4  A    between atoms: C_7  and  S_8
REMARK    5  A    between atoms: S_8  and  C_11
REMARK    6  A    between atoms: C_15  and  C_17
REMARK    7  A    between atoms: C_24  and  C_25
REMARK                            x       y       z     vdW  Elec       q    Type
REMARK                         _______ _______ _______ _____ _____    ______ ____
ROOT
ATOM      1  C   UNL     1       2.359   4.333  19.036  0.00  0.00    +0.000 A 
ATOM      2  S   UNL     1       3.630   5.128  18.213  0.00  0.00    +0.000 S 
ATOM      3  C   UNL     1       3.547   3.985  16.950  0.00  0.00    +0.000 A 
ATOM      4  N   UNL     1       4.369   4.040  15.856  0.00  0.00    +0.000 N 
ATOM      5  C   UNL     1       5.506   4.811  15.725  0.00  0.00    +0.000 C 
ATOM      6  O   UNL     1       5.975   5.579  16.558  0.00  0.00    +0.000 OA
ATOM      7  N   UNL     1       2.621   3.065  17.087  0.00  0.00    +0.000 NA
ATOM      8  C   UNL     1       1.945   3.240  18.293  0.00  0.00    +0.000 A 
ATOM      9  C   UNL     1       0.874   2.269  18.645  0.00  0.00    +0.000 C 
ATOM     10  H   UNL     1       4.165   3.378  15.114  0.00  0.00    +0.000 HD
ENDROOT
BRANCH   5  11
ATOM     11  C   UNL     1       6.233   4.614  14.430  0.00  0.00    +0.000 A 
ATOM     12  C   UNL     1       5.724   3.715  13.495  0.00  0.00    +0.000 A 
ATOM     13  C   UNL     1       6.386   3.575  12.281  0.00  0.00    +0.000 A 
ATOM     14  C   UNL     1       7.532   4.326  12.044  0.00  0.00    +0.000 A 
ATOM     15  C   UNL     1       7.974   5.190  13.036  0.00  0.00    +0.000 A 
ATOM     16  N   UNL     1       7.354   5.362  14.228  0.00  0.00    +0.000 NA
ENDBRANCH   5  11
BRANCH   1  17
ATOM     17  S   UNL     1       1.832   5.048  20.575  0.00  0.00    +0.000 S 
ATOM     18  O   UNL     1       2.322   4.119  21.576  0.00  0.00    +0.000 OA
ATOM     19  O   UNL     1       0.415   5.304  20.400  0.00  0.00    +0.000 OA
BRANCH  17  20
ATOM     20  C   UNL     1       2.729   6.592  20.693  0.00  0.00    +0.000 C 
BRANCH  20  24
ATOM     21  C   UNL     1       0.120   9.852  19.534  0.00  0.00    +0.000 A 
ATOM     22  C   UNL     1       1.033   9.313  18.628  0.00  0.00    +0.000 A 
ATOM     23  C   UNL     1       1.877   8.265  19.001  0.00  0.00    +0.000 A 
ATOM     24  C   UNL     1       1.834   7.743  20.301  0.00  0.00    +0.000 A 
ATOM     25  C   UNL     1       0.935   8.311  21.218  0.00  0.00    +0.000 A 
ATOM     26  C   UNL     1       0.082   9.357  20.836  0.00  0.00    +0.000 A 
BRANCH  21  28
ATOM     27  C   UNL     1      -1.492  10.558  17.947  0.00  0.00    +0.000 C 
ATOM     28  O   UNL     1      -0.644  10.875  19.045  0.00  0.00    +0.000 OA
ENDBRANCH  21  28
ENDBRANCH  20  24
ENDBRANCH  17  20
ENDBRANCH   1  17
TORSDOF 5
ENDMDL
MODEL 5
REMARK VINA RESULT:      -7.2      1.704      2.205
REMARK  Name = 
REMARK  7 active torsions:
REMARK  status: ('A' for Active; 'I' for Inactive)
REMARK    1  A    between atoms: C_1  and  O_2
REMARK    2  A    between atoms: O_2  and  C_3
REMARK    3  A    between atoms: C_6  and  C_7
REMARK    4  A    between atoms: C_7  and  S_8
REMARK    5  A    between atoms: S_8  and  C_11
REMARK    6  A    between atoms: C_15  and  C_17
REMARK    7  A    between atoms: C_24  and  C_25
REMARK                            x       y       z     vdW  Elec       q    Type
REMARK                         _______ _______ _______ _____ _____    ______ ____
ROOT
ATOM      1  C   UNL     1       2.868   4.015  19.712  0.00  0.00    +0.000 A 
ATOM      2  S   UNL     1       2.796   5.684  19.347  0.00  0.00    +0.000 S 
ATOM      3  C   UNL     1       1.815   5.957  20.715  0.00  0.00    +0.000 A 
ATOM      4  N   UNL     1       1.352   7.202  21.049  0.00  0.00    +0.000 N 
ATOM      5  C   UNL     1       1.372   8.325  20.247  0.00  0.00    +0.000 C 
ATOM      6  O   UNL     1       1.806   8.405  19.103  0.00  0.00    +0.000 OA
ATOM      7  N   UNL     1       1.556   4.894  21.440  0.00  0.00    +0.000 NA
ATOM      8  C   UNL     1       2.137   3.767  20.862  0.00  0.00    +0.000 A 
ATOM      9  C   UNL     1       1.926   2.451  21.525  0.00  0.00    +0.000 C 
ATOM     10  H   UNL     1       0.869   7.272  21.939  0.00  0.00    +0.000 HD
ENDROOT
BRANCH   5  11
ATOM     11  C   UNL     1       0.740   9.533  20.869  0.00  0.00    +0.000 A 
ATOM     12  C   UNL     1      -0.064   9.374  21.995  0.00  0.00    +0.000 A 
ATOM     13  C   UNL     1      -0.610  10.508  22.586  0.00  0.00    +0.000 A 
ATOM     14  C   UNL     1      -0.341  11.755  22.033  0.00  0.00    +0.000 A 
ATOM     15  C   UNL     1       0.464  11.819  20.904  0.00  0.00    +0.000 A 
ATOM     16  N   UNL     1       1.020  10.739  20.303  0.00  0.00    +0.000 NA
ENDBRANCH   5  11
BRANCH   1  17
ATOM     17  S   UNL     1       3.838   2.999  18.625  0.00  0.00    +0.000 S 
ATOM     18  O   UNL     1       3.075   1.768  18.526  0.00  0.00    +0.000 OA
ATOM     19  O   UNL     1       5.175   3.025  19.186  0.00  0.00    +0.000 OA
BRANCH  17  20
ATOM     20  C   UNL     1       3.810   3.854  17.053  0.00  0.00    +0.000 C 
BRANCH  20  24
ATOM     21  C   UNL     1       7.158   6.598  16.859  0.00  0.00    +0.000 A 
ATOM     22  C   UNL     1       5.868   7.065  17.107  0.00  0.00    +0.000 A 
ATOM     23  C   UNL     1       4.787   6.182  17.166  0.00  0.00    +0.000 A 
ATOM     24  C   UNL     1       4.976   4.809  16.962  0.00  0.00    +0.000 A 
ATOM     25  C   UNL     1       6.272   4.348  16.681  0.00  0.00    +0.000 A 
ATOM     26  C   UNL     1       7.357   5.237  16.632  0.00  0.00    +0.000 A 
BRANCH  21  28
ATOM     27  C   UNL     1       7.977   8.638  17.744  0.00  0.00    +0.000 C 
ATOM     28  O   UNL     1       8.125   7.564  16.823  0.00  0.00    +0.000 OA
ENDBRANCH  21  28
ENDBRANCH  20  24
ENDBRANCH  17  20
ENDBRANCH   1  17
TORSDOF 5
ENDMDL
MODEL 6
REMARK VINA RESULT:      -7.2      3.471      8.366
REMARK  Name = 
REMARK  7 active torsions:
REMARK  status: ('A' for Active; 'I' for Inactive)
REMARK    1  A    between atoms: C_1  and  O_2
REMARK    2  A    between atoms: O_2  and  C_3
REMARK    3  A    between atoms: C_6  and  C_7
REMARK    4  A    between atoms: C_7  and  S_8
REMARK    5  A    between atoms: S_8  and  C_11
REMARK    6  A    between atoms: C_15  and  C_17
REMARK    7  A    between atoms: C_24  and  C_25
REMARK                            x       y       z     vdW  Elec       q    Type
REMARK                         _______ _______ _______ _____ _____    ______ ____
ROOT
ATOM      1  C   UNL     1       0.557  10.448  20.819  0.00  0.00    +0.000 A 
ATOM      2  S   UNL     1       1.234   9.765  19.405  0.00  0.00    +0.000 S 
ATOM      3  C   UNL     1       1.476   8.285  20.216  0.00  0.00    +0.000 A 
ATOM      4  N   UNL     1       2.034   7.195  19.603  0.00  0.00    +0.000 N 
ATOM      5  C   UNL     1       2.697   7.187  18.393  0.00  0.00    +0.000 C 
ATOM      6  O   UNL     1       2.901   8.148  17.658  0.00  0.00    +0.000 OA
ATOM      7  N   UNL     1       1.066   8.256  21.463  0.00  0.00    +0.000 NA
ATOM      8  C   UNL     1       0.555   9.500  21.828  0.00  0.00    +0.000 A 
ATOM      9  C   UNL     1       0.067   9.675  23.223  0.00  0.00    +0.000 C 
ATOM     10  H   UNL     1       2.033   6.334  20.141  0.00  0.00    +0.000 HD
ENDROOT
BRANCH   5  11
ATOM     11  C   UNL     1       3.250   5.849  18.007  0.00  0.00    +0.000 A 
ATOM     12  C   UNL     1       2.373   4.790  17.786  0.00  0.00    +0.000 A 
ATOM     13  C   UNL     1       2.897   3.566  17.387  0.00  0.00    +0.000 A 
ATOM     14  C   UNL     1       4.273   3.438  17.229  0.00  0.00    +0.000 A 
ATOM     15  C   UNL     1       5.074   4.544  17.481  0.00  0.00    +0.000 A 
ATOM     16  N   UNL     1       4.601   5.755  17.864  0.00  0.00    +0.000 NA
ENDBRANCH   5  11
BRANCH   1  17
ATOM     17  S   UNL     1      -0.007  12.129  20.705  0.00  0.00    +0.000 S 
ATOM     18  O   UNL     1       0.998  12.882  21.432  0.00  0.00    +0.000 OA
ATOM     19  O   UNL     1      -1.391  12.087  21.137  0.00  0.00    +0.000 OA
BRANCH  17  20
ATOM     20  C   UNL     1       0.085  12.526  18.962  0.00  0.00    +0.000 C 
BRANCH  20  24
ATOM     21  C   UNL     1       2.913  15.758  18.384  0.00  0.00    +0.000 A 
ATOM     22  C   UNL     1       1.583  16.024  18.708  0.00  0.00    +0.000 A 
ATOM     23  C   UNL     1       0.669  14.983  18.891  0.00  0.00    +0.000 A 
ATOM     24  C   UNL     1       1.069  13.649  18.738  0.00  0.00    +0.000 A 
ATOM     25  C   UNL     1       2.401  13.388  18.380  0.00  0.00    +0.000 A 
ATOM     26  C   UNL     1       3.317  14.436  18.207  0.00  0.00    +0.000 A 
BRANCH  21  28
ATOM     27  C   UNL     1       5.019  16.776  18.757  0.00  0.00    +0.000 C 
ATOM     28  O   UNL     1       3.701  16.864  18.229  0.00  0.00    +0.000 OA
ENDBRANCH  21  28
ENDBRANCH  20  24
ENDBRANCH  17  20
ENDBRANCH   1  17
TORSDOF 5
ENDMDL
MODEL 7
REMARK VINA RESULT:      -7.2      1.211      1.622
REMARK  Name = 
REMARK  7 active torsions:
REMARK  status: ('A' for Active; 'I' for Inactive)
REMARK    1  A    between atoms: C_1  and  O_2
REMARK    2  A    between atoms: O_2  and  C_3
REMARK    3  A    between atoms: C_6  and  C_7
REMARK    4  A    between atoms: C_7  and  S_8
REMARK    5  A    between atoms: S_8  and  C_11
REMARK    6  A    between atoms: C_15  and  C_17
REMARK    7  A    between atoms: C_24  and  C_25
REMARK                            x       y       z     vdW  Elec       q    Type
REMARK                         _______ _______ _______ _____ _____    ______ ____
ROOT
ATOM      1  C   UNL     1       2.893   4.875  19.082  0.00  0.00    +0.000 A 
ATOM      2  S   UNL     1       2.861   6.371  18.256  0.00  0.00    +0.000 S 
ATOM      3  C   UNL     1       2.066   7.101  19.575  0.00  0.00    +0.000 A 
ATOM      4  N   UNL     1       1.710   8.424  19.577  0.00  0.00    +0.000 N 
ATOM      5  C   UNL     1       1.689   9.267  18.486  0.00  0.00    +0.000 C 
ATOM      6  O   UNL     1       1.986   8.983  17.330  0.00  0.00    +0.000 OA
ATOM      7  N   UNL     1       1.843   6.312  20.601  0.00  0.00    +0.000 NA
ATOM      8  C   UNL     1       2.294   5.024  20.322  0.00  0.00    +0.000 A 
ATOM      9  C   UNL     1       2.099   3.973  21.356  0.00  0.00    +0.000 C 
ATOM     10  H   UNL     1       1.340   8.783  20.452  0.00  0.00    +0.000 HD
ENDROOT
BRANCH   5  11
ATOM     11  C   UNL     1       1.198  10.649  18.789  0.00  0.00    +0.000 A 
ATOM     12  C   UNL     1       1.956  11.744  18.380  0.00  0.00    +0.000 A 
ATOM     13  C   UNL     1       1.466  13.021  18.631  0.00  0.00    +0.000 A 
ATOM     14  C   UNL     1       0.247  13.162  19.285  0.00  0.00    +0.000 A 
ATOM     15  C   UNL     1      -0.437  12.015  19.665  0.00  0.00    +0.000 A 
ATOM     16  N   UNL     1       0.002  10.755  19.433  0.00  0.00    +0.000 NA
ENDBRANCH   5  11
BRANCH   1  17
ATOM     17  S   UNL     1       3.674   3.515  18.246  0.00  0.00    +0.000 S 
ATOM     18  O   UNL     1       2.561   2.702  17.790  0.00  0.00    +0.000 OA
ATOM     19  O   UNL     1       4.652   3.010  19.190  0.00  0.00    +0.000 OA
BRANCH  17  20
ATOM     20  C   UNL     1       4.497   4.255  16.839  0.00  0.00    +0.000 C 
BRANCH  20  24
ATOM     21  C   UNL     1       7.644   6.894  18.222  0.00  0.00    +0.000 A 
ATOM     22  C   UNL     1       6.759   7.302  17.224  0.00  0.00    +0.000 A 
ATOM     23  C   UNL     1       5.746   6.451  16.775  0.00  0.00    +0.000 A 
ATOM     24  C   UNL     1       5.609   5.163  17.308  0.00  0.00    +0.000 A 
ATOM     25  C   UNL     1       6.522   4.745  18.289  0.00  0.00    +0.000 A 
ATOM     26  C   UNL     1       7.532   5.607  18.745  0.00  0.00    +0.000 A 
BRANCH  21  28
ATOM     27  C   UNL     1       8.354   9.153  18.134  0.00  0.00    +0.000 C 
ATOM     28  O   UNL     1       8.589   7.819  18.568  0.00  0.00    +0.000 OA
ENDBRANCH  21  28
ENDBRANCH  20  24
ENDBRANCH  17  20
ENDBRANCH   1  17
TORSDOF 5
ENDMDL
MODEL 8
REMARK VINA RESULT:      -7.2      2.039      2.570
REMARK  Name = 
REMARK  7 active torsions:
REMARK  status: ('A' for Active; 'I' for Inactive)
REMARK    1  A    between atoms: C_1  and  O_2
REMARK    2  A    between atoms: O_2  and  C_3
REMARK    3  A    between atoms: C_6  and  C_7
REMARK    4  A    between atoms: C_7  and  S_8
REMARK    5  A    between atoms: S_8  and  C_11
REMARK    6  A    between atoms: C_15  and  C_17
REMARK    7  A    between atoms: C_24  and  C_25
REMARK                            x       y       z     vdW  Elec       q    Type
REMARK                         _______ _______ _______ _____ _____    ______ ____
ROOT
ATOM      1  C   UNL     1       2.998   4.242  19.750  0.00  0.00    +0.000 A 
ATOM      2  S   UNL     1       2.960   5.926  19.455  0.00  0.00    +0.000 S 
ATOM      3  C   UNL     1       1.714   6.115  20.604  0.00  0.00    +0.000 A 
ATOM      4  N   UNL     1       1.162   7.335  20.894  0.00  0.00    +0.000 N 
ATOM      5  C   UNL     1       1.316   8.496  20.166  0.00  0.00    +0.000 C 
ATOM      6  O   UNL     1       1.972   8.641  19.139  0.00  0.00    +0.000 OA
ATOM      7  N   UNL     1       1.340   5.013  21.210  0.00  0.00    +0.000 NA
ATOM      8  C   UNL     1       2.054   3.925  20.713  0.00  0.00    +0.000 A 
ATOM      9  C   UNL     1       1.746   2.575  21.257  0.00  0.00    +0.000 C 
ATOM     10  H   UNL     1       0.505   7.352  21.668  0.00  0.00    +0.000 HD
ENDROOT
BRANCH   5  11
ATOM     11  C   UNL     1       0.541   9.662  20.700  0.00  0.00    +0.000 A 
ATOM     12  C   UNL     1      -0.027  10.566  19.806  0.00  0.00    +0.000 A 
ATOM     13  C   UNL     1      -0.779  11.619  20.316  0.00  0.00    +0.000 A 
ATOM     14  C   UNL     1      -0.933  11.737  21.692  0.00  0.00    +0.000 A 
ATOM     15  C   UNL     1      -0.323  10.795  22.510  0.00  0.00    +0.000 A 
ATOM     16  N   UNL     1       0.411   9.752  22.053  0.00  0.00    +0.000 NA
ENDBRANCH   5  11
BRANCH   1  17
ATOM     17  S   UNL     1       4.195   3.297  18.838  0.00  0.00    +0.000 S 
ATOM     18  O   UNL     1       3.954   1.930  19.262  0.00  0.00    +0.000 OA
ATOM     19  O   UNL     1       5.460   3.962  19.085  0.00  0.00    +0.000 OA
BRANCH  17  20
ATOM     20  C   UNL     1       3.719   3.489  17.123  0.00  0.00    +0.000 C 
BRANCH  20  24
ATOM     21  C   UNL     1       6.937   5.245  14.812  0.00  0.00    +0.000 A 
ATOM     22  C   UNL     1       6.745   3.864  14.831  0.00  0.00    +0.000 A 
ATOM     23  C   UNL     1       5.710   3.296  15.579  0.00  0.00    +0.000 A 
ATOM     24  C   UNL     1       4.853   4.104  16.337  0.00  0.00    +0.000 A 
ATOM     25  C   UNL     1       5.070   5.491  16.339  0.00  0.00    +0.000 A 
ATOM     26  C   UNL     1       6.105   6.058  15.579  0.00  0.00    +0.000 A 
BRANCH  21  28
ATOM     27  C   UNL     1       7.965   5.281  12.677  0.00  0.00    +0.000 C 
ATOM     28  O   UNL     1       7.986   5.671  14.045  0.00  0.00    +0.000 OA
ENDBRANCH  21  28
ENDBRANCH  20  24
ENDBRANCH  17  20
ENDBRANCH   1  17
TORSDOF 5
ENDMDL
MODEL 9
REMARK VINA RESULT:      -7.2      1.726      2.427
REMARK  Name = 
REMARK  7 active torsions:
REMARK  status: ('A' for Active; 'I' for Inactive)
REMARK    1  A    between atoms: C_1  and  O_2
REMARK    2  A    between atoms: O_2  and  C_3
REMARK    3  A    between atoms: C_6  and  C_7
REMARK    4  A    between atoms: C_7  and  S_8
REMARK    5  A    between atoms: S_8  and  C_11
REMARK    6  A    between atoms: C_15  and  C_17
REMARK    7  A    between atoms: C_24  and  C_25
REMARK                            x       y       z     vdW  Elec       q    Type
REMARK                         _______ _______ _______ _____ _____    ______ ____
ROOT
ATOM      1  C   UNL     1       3.087   4.767  19.683  0.00  0.00    +0.000 A 
ATOM      2  S   UNL     1       3.091   6.344  19.022  0.00  0.00    +0.000 S 
ATOM      3  C   UNL     1       1.927   6.842  20.164  0.00  0.00    +0.000 A 
ATOM      4  N   UNL     1       1.438   8.121  20.203  0.00  0.00    +0.000 N 
ATOM      5  C   UNL     1       1.587   9.084  19.227  0.00  0.00    +0.000 C 
ATOM      6  O   UNL     1       2.182   8.966  18.161  0.00  0.00    +0.000 OA
ATOM      7  N   UNL     1       1.552   5.920  21.021  0.00  0.00    +0.000 NA
ATOM      8  C   UNL     1       2.195   4.717  20.742  0.00  0.00    +0.000 A 
ATOM      9  C   UNL     1       1.874   3.537  21.589  0.00  0.00    +0.000 C 
ATOM     10  H   UNL     1       0.832   8.341  20.987  0.00  0.00    +0.000 HD
ENDROOT
BRANCH   5  11
ATOM     11  C   UNL     1       0.888  10.374  19.528  0.00  0.00    +0.000 A 
ATOM     12  C   UNL     1      -0.205  10.369  20.390  0.00  0.00    +0.000 A 
ATOM     13  C   UNL     1      -0.817  11.580  20.693  0.00  0.00    +0.000 A 
ATOM     14  C   UNL     1      -0.325  12.749  20.123  0.00  0.00    +0.000 A 
ATOM     15  C   UNL     1       0.764  12.660  19.266  0.00  0.00    +0.000 A 
ATOM     16  N   UNL     1       1.392  11.501  18.952  0.00  0.00    +0.000 NA
ENDBRANCH   5  11
BRANCH   1  17
ATOM     17  S   UNL     1       4.191   3.586  18.943  0.00  0.00    +0.000 S 
ATOM     18  O   UNL     1       3.840   2.333  19.586  0.00  0.00    +0.000 OA
ATOM     19  O   UNL     1       5.510   4.173  19.082  0.00  0.00    +0.000 OA
BRANCH  17  20
ATOM     20  C   UNL     1       3.715   3.534  17.219  0.00  0.00    +0.000 C 
BRANCH  20  24
ATOM     21  C   UNL     1       6.821   5.213  14.706  0.00  0.00    +0.000 A 
ATOM     22  C   UNL     1       6.524   3.852  14.658  0.00  0.00    +0.000 A 
ATOM     23  C   UNL     1       5.526   3.308  15.470  0.00  0.00    +0.000 A 
ATOM     24  C   UNL     1       4.812   4.120  16.361  0.00  0.00    +0.000 A 
ATOM     25  C   UNL     1       5.137   5.484  16.429  0.00  0.00    +0.000 A 
ATOM     26  C   UNL     1       6.134   6.027  15.604  0.00  0.00    +0.000 A 
BRANCH  21  28
ATOM     27  C   UNL     1       7.754   5.129  12.530  0.00  0.00    +0.000 C 
ATOM     28  O   UNL     1       7.821   5.616  13.865  0.00  0.00    +0.000 OA
ENDBRANCH  21  28
ENDBRANCH  20  24
ENDBRANCH  17  20
ENDBRANCH   1  17
TORSDOF 5
ENDMDL
