MODEL 1
REMARK VINA RESULT:      -8.5      0.000      0.000
REMARK  Name = 
REMARK  6 active torsions:
REMARK  status: ('A' for Active; 'I' for Inactive)
REMARK    1  A    between atoms: C_5  and  O_6
REMARK    2  A    between atoms: C_7  and  N_8
REMARK    3  A    between atoms: C_9  and  C_11
REMARK    4  A    between atoms: C_11  and  C_14
REMARK    5  A    between atoms: C_14  and  C_15
REMARK    6  A    between atoms: C_16  and  C_17
REMARK                            x       y       z     vdW  Elec       q    Type
REMARK                         _______ _______ _______ _____ _____    ______ ____
ROOT
ATOM      1  C   UNL     1       3.527   4.614  18.224  0.00  0.00    +0.000 A 
ATOM      2  C   UNL     1       4.718   4.064  17.740  0.00  0.00    +0.000 A 
ATOM      3  N   UNL     1       5.060   3.045  18.609  0.00  0.00    +0.000 N 
ATOM      4  C   UNL     1       4.157   2.934  19.632  0.00  0.00    +0.000 A 
ATOM      5  C   UNL     1       4.118   2.042  20.706  0.00  0.00    +0.000 A 
ATOM      6  F   UNL     1       5.057   1.097  20.848  0.00  0.00    +0.000 F 
ATOM      7  C   UNL     1       3.087   2.147  21.630  0.00  0.00    +0.000 A 
ATOM      8  C   UNL     1       2.133   3.141  21.475  0.00  0.00    +0.000 A 
ATOM      9  F   UNL     1       1.143   3.241  22.372  0.00  0.00    +0.000 F 
ATOM     10  C   UNL     1       2.172   4.040  20.404  0.00  0.00    +0.000 A 
ATOM     11  C   UNL     1       3.201   3.926  19.446  0.00  0.00    +0.000 A 
ATOM     12  H   UNL     1       5.880   2.460  18.528  0.00  0.00    +0.000 HD
ENDROOT
BRANCH   2  13
ATOM     13  C   UNL     1       5.561   4.398  16.579  0.00  0.00    +0.000 A 
ATOM     14  C   UNL     1       5.223   3.969  15.287  0.00  0.00    +0.000 A 
ATOM     15  C   UNL     1       6.005   4.283  14.177  0.00  0.00    +0.000 A 
ATOM     16  C   UNL     1       7.112   5.088  14.348  0.00  0.00    +0.000 A 
ATOM     17  F   UNL     1       7.845   5.439  13.277  0.00  0.00    +0.000 F 
ATOM     18  C   UNL     1       7.471   5.553  15.604  0.00  0.00    +0.000 A 
ATOM     19  C   UNL     1       6.709   5.197  16.721  0.00  0.00    +0.000 A 
ENDBRANCH   2  13
BRANCH   1  20
ATOM     20  C   UNL     1       2.689   5.707  17.613  0.00  0.00    +0.000 C 
BRANCH  20  21
ATOM     21  C   UNL     1       3.173   7.118  17.907  0.00  0.00    +0.000 C 
ATOM     22  F   UNL     1       3.349   7.815  16.742  0.00  0.00    +0.000 F 
ATOM     23  F   UNL     1       4.421   7.036  18.461  0.00  0.00    +0.000 F 
BRANCH  21  25
ATOM     24  N   UNL     1       1.564   8.918  18.307  0.00  0.00    +0.000 N 
ATOM     25  C   UNL     1       2.208   7.828  18.855  0.00  0.00    +0.000 C 
ATOM     26  O   UNL     1       2.027   7.474  20.018  0.00  0.00    +0.000 OA
ATOM     27  H   UNL     1       1.645   9.082  17.311  0.00  0.00    +0.000 HD
BRANCH  24  33
ATOM     28  O   UNL     1      -1.214   9.791  17.466  0.00  0.00    +0.000 OA
ATOM     29  C   UNL     1      -0.401  10.349  18.184  0.00  0.00    +0.000 C 
ATOM     30  N   UNL     1      -0.167  11.712  18.179  0.00  0.00    +0.000 N 
ATOM     31  C   UNL     1       1.079  12.031  18.822  0.00  0.00    +0.000 C 
ATOM     32  C   UNL     1       1.268  10.889  19.811  0.00  0.00    +0.000 C 
ATOM     33  C   UNL     1       0.621   9.682  19.102  0.00  0.00    +0.000 C 
ATOM     34  H   UNL     1      -0.633  12.293  17.493  0.00  0.00    +0.000 HD
BRANCH  32  35
ATOM     35  O   UNL     1       0.593  11.189  21.039  0.00  0.00    +0.000 OA
ATOM     36  H   UNL     1       0.156  12.054  20.941  0.00  0.00    +0.000 HD
ENDBRANCH  32  35
ENDBRANCH  24  33
ENDBRANCH  21  25
ENDBRANCH  20  21
ENDBRANCH   1  20
TORSDOF 6
ENDMDL
MODEL 2
REMARK VINA RESULT:      -8.2      3.646      7.149
REMARK  Name = 
REMARK  6 active torsions:
REMARK  status: ('A' for Active; 'I' for Inactive)
REMARK    1  A    between atoms: C_5  and  O_6
REMARK    2  A    between atoms: C_7  and  N_8
REMARK    3  A    between atoms: C_9  and  C_11
REMARK    4  A    between atoms: C_11  and  C_14
REMARK    5  A    between atoms: C_14  and  C_15
REMARK    6  A    between atoms: C_16  and  C_17
REMARK                            x       y       z     vdW  Elec       q    Type
REMARK                         _______ _______ _______ _____ _____    ______ ____
ROOT
ATOM      1  C   UNL     1       3.405   5.641  17.872  0.00  0.00    +0.000 A 
ATOM      2  C   UNL     1       2.517   6.317  18.714  0.00  0.00    +0.000 A 
ATOM      3  N   UNL     1       1.940   5.357  19.525  0.00  0.00    +0.000 N 
ATOM      4  C   UNL     1       2.402   4.104  19.226  0.00  0.00    +0.000 A 
ATOM      5  C   UNL     1       2.095   2.870  19.802  0.00  0.00    +0.000 A 
ATOM      6  F   UNL     1       1.231   2.784  20.822  0.00  0.00    +0.000 F 
ATOM      7  C   UNL     1       2.699   1.724  19.300  0.00  0.00    +0.000 A 
ATOM      8  C   UNL     1       3.578   1.831  18.233  0.00  0.00    +0.000 A 
ATOM      9  F   UNL     1       4.155   0.722  17.750  0.00  0.00    +0.000 F 
ATOM     10  C   UNL     1       3.885   3.064  17.650  0.00  0.00    +0.000 A 
ATOM     11  C   UNL     1       3.295   4.237  18.169  0.00  0.00    +0.000 A 
ATOM     12  H   UNL     1       1.247   5.536  20.238  0.00  0.00    +0.000 HD
ENDROOT
BRANCH   2  13
ATOM     13  C   UNL     1       2.147   7.739  18.825  0.00  0.00    +0.000 A 
ATOM     14  C   UNL     1       2.286   8.614  17.738  0.00  0.00    +0.000 A 
ATOM     15  C   UNL     1       1.933   9.959  17.823  0.00  0.00    +0.000 A 
ATOM     16  C   UNL     1       1.377  10.429  18.994  0.00  0.00    +0.000 A 
ATOM     17  F   UNL     1       0.986  11.713  19.072  0.00  0.00    +0.000 F 
ATOM     18  C   UNL     1       1.201   9.594  20.087  0.00  0.00    +0.000 A 
ATOM     19  C   UNL     1       1.599   8.256  20.011  0.00  0.00    +0.000 A 
ENDBRANCH   2  13
BRANCH   1  20
ATOM     20  C   UNL     1       4.340   6.223  16.844  0.00  0.00    +0.000 C 
BRANCH  20  21
ATOM     21  C   UNL     1       5.800   6.271  17.268  0.00  0.00    +0.000 C 
ATOM     22  F   UNL     1       5.921   5.980  18.600  0.00  0.00    +0.000 F 
ATOM     23  F   UNL     1       6.239   7.561  17.148  0.00  0.00    +0.000 F 
BRANCH  21  25
ATOM     24  N   UNL     1       6.215   5.226  15.095  0.00  0.00    +0.000 N 
ATOM     25  C   UNL     1       6.640   5.334  16.403  0.00  0.00    +0.000 C 
ATOM     26  O   UNL     1       7.607   4.709  16.833  0.00  0.00    +0.000 OA
ATOM     27  H   UNL     1       5.503   5.863  14.761  0.00  0.00    +0.000 HD
BRANCH  24  33
ATOM     28  O   UNL     1       8.761   5.905  13.596  0.00  0.00    +0.000 OA
ATOM     29  C   UNL     1       7.811   5.217  13.258  0.00  0.00    +0.000 C 
ATOM     30  N   UNL     1       7.277   5.203  11.982  0.00  0.00    +0.000 N 
ATOM     31  C   UNL     1       5.964   4.619  11.971  0.00  0.00    +0.000 C 
ATOM     32  C   UNL     1       5.993   3.666  13.158  0.00  0.00    +0.000 C 
ATOM     33  C   UNL     1       6.926   4.367  14.167  0.00  0.00    +0.000 C 
ATOM     34  H   UNL     1       7.631   5.852  11.290  0.00  0.00    +0.000 HD
BRANCH  32  35
ATOM     35  O   UNL     1       6.527   2.398  12.756  0.00  0.00    +0.000 OA
ATOM     36  H   UNL     1       6.381   1.765  13.482  0.00  0.00    +0.000 HD
ENDBRANCH  32  35
ENDBRANCH  24  33
ENDBRANCH  21  25
ENDBRANCH  20  21
ENDBRANCH   1  20
TORSDOF 6
ENDMDL
MODEL 3
REMARK VINA RESULT:      -8.1      3.473      7.108
REMARK  Name = 
REMARK  6 active torsions:
REMARK  status: ('A' for Active; 'I' for Inactive)
REMARK    1  A    between atoms: C_5  and  O_6
REMARK    2  A    between atoms: C_7  and  N_8
REMARK    3  A    between atoms: C_9  and  C_11
REMARK    4  A    between atoms: C_11  and  C_14
REMARK    5  A    between atoms: C_14  and  C_15
REMARK    6  A    between atoms: C_16  and  C_17
REMARK                            x       y       z     vdW  Elec       q    Type
REMARK                         _______ _______ _______ _____ _____    ______ ____
ROOT
ATOM      1  C   UNL     1       3.844   5.636  19.086  0.00  0.00    +0.000 A 
ATOM      2  C   UNL     1       2.737   6.309  19.611  0.00  0.00    +0.000 A 
ATOM      3  N   UNL     1       2.138   5.437  20.503  0.00  0.00    +0.000 N 
ATOM      4  C   UNL     1       2.797   4.239  20.553  0.00  0.00    +0.000 A 
ATOM      5  C   UNL     1       2.538   3.100  21.318  0.00  0.00    +0.000 A 
ATOM      6  F   UNL     1       1.514   3.070  22.181  0.00  0.00    +0.000 F 
ATOM      7  C   UNL     1       3.361   1.991  21.173  0.00  0.00    +0.000 A 
ATOM      8  C   UNL     1       4.407   2.034  20.264  0.00  0.00    +0.000 A 
ATOM      9  F   UNL     1       5.195   0.960  20.125  0.00  0.00    +0.000 F 
ATOM     10  C   UNL     1       4.666   3.171  19.492  0.00  0.00    +0.000 A 
ATOM     11  C   UNL     1       3.851   4.312  19.650  0.00  0.00    +0.000 A 
ATOM     12  H   UNL     1       1.306   5.635  21.041  0.00  0.00    +0.000 HD
ENDROOT
BRANCH   2  13
ATOM     13  C   UNL     1       2.182   7.650  19.360  0.00  0.00    +0.000 A 
ATOM     14  C   UNL     1       2.248   8.237  18.088  0.00  0.00    +0.000 A 
ATOM     15  C   UNL     1       1.721   9.501  17.830  0.00  0.00    +0.000 A 
ATOM     16  C   UNL     1       1.066  10.169  18.843  0.00  0.00    +0.000 A 
ATOM     17  F   UNL     1       0.510  11.367  18.593  0.00  0.00    +0.000 F 
ATOM     18  C   UNL     1       0.958   9.617  20.111  0.00  0.00    +0.000 A 
ATOM     19  C   UNL     1       1.528   8.368  20.375  0.00  0.00    +0.000 A 
ENDBRANCH   2  13
BRANCH   1  20
ATOM     20  C   UNL     1       4.879   6.157  18.123  0.00  0.00    +0.000 C 
BRANCH  20  21
ATOM     21  C   UNL     1       4.565   5.908  16.656  0.00  0.00    +0.000 C 
ATOM     22  F   UNL     1       4.417   7.096  15.991  0.00  0.00    +0.000 F 
ATOM     23  F   UNL     1       3.340   5.304  16.577  0.00  0.00    +0.000 F 
BRANCH  21  25
ATOM     24  N   UNL     1       5.506   4.853  14.658  0.00  0.00    +0.000 N 
ATOM     25  C   UNL     1       5.641   5.031  16.020  0.00  0.00    +0.000 C 
ATOM     26  O   UNL     1       6.548   4.507  16.663  0.00  0.00    +0.000 OA
ATOM     27  H   UNL     1       4.827   5.415  14.159  0.00  0.00    +0.000 HD
BRANCH  24  33
ATOM     28  O   UNL     1       8.351   5.617  13.947  0.00  0.00    +0.000 OA
ATOM     29  C   UNL     1       7.546   4.936  13.335  0.00  0.00    +0.000 C 
ATOM     30  N   UNL     1       7.385   4.970  11.962  0.00  0.00    +0.000 N 
ATOM     31  C   UNL     1       6.138   4.374  11.566  0.00  0.00    +0.000 C 
ATOM     32  C   UNL     1       5.858   3.373  12.678  0.00  0.00    +0.000 C 
ATOM     33  C   UNL     1       6.462   4.041  13.931  0.00  0.00    +0.000 C 
ATOM     34  H   UNL     1       7.903   5.651  11.419  0.00  0.00    +0.000 HD
BRANCH  32  35
ATOM     35  O   UNL     1       6.508   2.129  12.392  0.00  0.00    +0.000 OA
ATOM     36  H   UNL     1       5.878   1.562  11.910  0.00  0.00    +0.000 HD
ENDBRANCH  32  35
ENDBRANCH  24  33
ENDBRANCH  21  25
ENDBRANCH  20  21
ENDBRANCH   1  20
TORSDOF 6
ENDMDL
MODEL 4
REMARK VINA RESULT:      -8.0      3.666      7.071
REMARK  Name = 
REMARK  6 active torsions:
REMARK  status: ('A' for Active; 'I' for Inactive)
REMARK    1  A    between atoms: C_5  and  O_6
REMARK    2  A    between atoms: C_7  and  N_8
REMARK    3  A    between atoms: C_9  and  C_11
REMARK    4  A    between atoms: C_11  and  C_14
REMARK    5  A    between atoms: C_14  and  C_15
REMARK    6  A    between atoms: C_16  and  C_17
REMARK                            x       y       z     vdW  Elec       q    Type
REMARK                         _______ _______ _______ _____ _____    ______ ____
ROOT
ATOM      1  C   UNL     1       0.785   8.736  20.216  0.00  0.00    +0.000 A 
ATOM      2  C   UNL     1       1.135   9.623  19.193  0.00  0.00    +0.000 A 
ATOM      3  N   UNL     1       2.049   8.959  18.397  0.00  0.00    +0.000 N 
ATOM      4  C   UNL     1       2.313   7.704  18.875  0.00  0.00    +0.000 A 
ATOM      5  C   UNL     1       3.156   6.708  18.375  0.00  0.00    +0.000 A 
ATOM      6  F   UNL     1       3.856   6.902  17.250  0.00  0.00    +0.000 F 
ATOM      7  C   UNL     1       3.260   5.507  19.065  0.00  0.00    +0.000 A 
ATOM      8  C   UNL     1       2.539   5.330  20.236  0.00  0.00    +0.000 A 
ATOM      9  F   UNL     1       2.647   4.171  20.900  0.00  0.00    +0.000 F 
ATOM     10  C   UNL     1       1.699   6.327  20.742  0.00  0.00    +0.000 A 
ATOM     11  C   UNL     1       1.567   7.542  20.036  0.00  0.00    +0.000 A 
ATOM     12  H   UNL     1       2.494   9.343  17.574  0.00  0.00    +0.000 HD
ENDROOT
BRANCH   2  13
ATOM     13  C   UNL     1       0.722  11.006  18.898  0.00  0.00    +0.000 A 
ATOM     14  C   UNL     1      -0.617  11.323  18.628  0.00  0.00    +0.000 A 
ATOM     15  C   UNL     1      -1.026  12.627  18.355  0.00  0.00    +0.000 A 
ATOM     16  C   UNL     1      -0.095  13.643  18.409  0.00  0.00    +0.000 A 
ATOM     17  F   UNL     1      -0.487  14.911  18.197  0.00  0.00    +0.000 F 
ATOM     18  C   UNL     1       1.236  13.378  18.694  0.00  0.00    +0.000 A 
ATOM     19  C   UNL     1       1.649  12.061  18.922  0.00  0.00    +0.000 A 
ENDBRANCH   2  13
BRANCH   1  20
ATOM     20  C   UNL     1      -0.228   8.934  21.314  0.00  0.00    +0.000 C 
BRANCH  20  21
ATOM     21  C   UNL     1       0.270   9.744  22.500  0.00  0.00    +0.000 C 
ATOM     22  F   UNL     1       1.639   9.762  22.526  0.00  0.00    +0.000 F 
ATOM     23  F   UNL     1      -0.096   9.094  23.647  0.00  0.00    +0.000 F 
BRANCH  21  25
ATOM     24  N   UNL     1      -1.616  11.246  22.921  0.00  0.00    +0.000 N 
ATOM     25  C   UNL     1      -0.316  11.154  22.469  0.00  0.00    +0.000 C 
ATOM     26  O   UNL     1       0.307  12.132  22.061  0.00  0.00    +0.000 OA
ATOM     27  H   UNL     1      -2.032  10.440  23.371  0.00  0.00    +0.000 HD
BRANCH  24  33
ATOM     28  O   UNL     1      -4.048  11.976  24.576  0.00  0.00    +0.000 OA
ATOM     29  C   UNL     1      -3.716  12.349  23.462  0.00  0.00    +0.000 C 
ATOM     30  N   UNL     1      -4.597  12.540  22.413  0.00  0.00    +0.000 N 
ATOM     31  C   UNL     1      -3.905  12.598  21.154  0.00  0.00    +0.000 C 
ATOM     32  C   UNL     1      -2.523  13.113  21.534  0.00  0.00    +0.000 C 
ATOM     33  C   UNL     1      -2.291  12.529  22.943  0.00  0.00    +0.000 C 
ATOM     34  H   UNL     1      -5.570  12.289  22.531  0.00  0.00    +0.000 HD
BRANCH  32  35
ATOM     35  O   UNL     1      -2.526  14.546  21.564  0.00  0.00    +0.000 OA
ATOM     36  H   UNL     1      -3.200  14.860  20.935  0.00  0.00    +0.000 HD
ENDBRANCH  32  35
ENDBRANCH  24  33
ENDBRANCH  21  25
ENDBRANCH  20  21
ENDBRANCH   1  20
TORSDOF 6
ENDMDL
MODEL 5
REMARK VINA RESULT:      -7.9      2.725      5.115
REMARK  Name = 
REMARK  6 active torsions:
REMARK  status: ('A' for Active; 'I' for Inactive)
REMARK    1  A    between atoms: C_5  and  O_6
REMARK    2  A    between atoms: C_7  and  N_8
REMARK    3  A    between atoms: C_9  and  C_11
REMARK    4  A    between atoms: C_11  and  C_14
REMARK    5  A    between atoms: C_14  and  C_15
REMARK    6  A    between atoms: C_16  and  C_17
REMARK                            x       y       z     vdW  Elec       q    Type
REMARK                         _______ _______ _______ _____ _____    ______ ____
ROOT
ATOM      1  C   UNL     1       4.436   6.599  17.790  0.00  0.00    +0.000 A 
ATOM      2  C   UNL     1       4.382   5.314  18.338  0.00  0.00    +0.000 A 
ATOM      3  N   UNL     1       5.650   5.041  18.818  0.00  0.00    +0.000 N 
ATOM      4  C   UNL     1       6.510   6.079  18.583  0.00  0.00    +0.000 A 
ATOM      5  C   UNL     1       7.860   6.221  18.910  0.00  0.00    +0.000 A 
ATOM      6  F   UNL     1       8.514   5.254  19.566  0.00  0.00    +0.000 F 
ATOM      7  C   UNL     1       8.522   7.386  18.542  0.00  0.00    +0.000 A 
ATOM      8  C   UNL     1       7.833   8.369  17.849  0.00  0.00    +0.000 A 
ATOM      9  F   UNL     1       8.477   9.489  17.493  0.00  0.00    +0.000 F 
ATOM     10  C   UNL     1       6.483   8.228  17.516  0.00  0.00    +0.000 A 
ATOM     11  C   UNL     1       5.794   7.059  17.906  0.00  0.00    +0.000 A 
ATOM     12  H   UNL     1       5.930   4.181  19.269  0.00  0.00    +0.000 HD
ENDROOT
BRANCH   2  13
ATOM     13  C   UNL     1       3.292   4.328  18.443  0.00  0.00    +0.000 A 
ATOM     14  C   UNL     1       2.342   4.401  19.472  0.00  0.00    +0.000 A 
ATOM     15  C   UNL     1       1.301   3.482  19.581  0.00  0.00    +0.000 A 
ATOM     16  C   UNL     1       1.169   2.506  18.616  0.00  0.00    +0.000 A 
ATOM     17  F   UNL     1       0.139   1.645  18.683  0.00  0.00    +0.000 F 
ATOM     18  C   UNL     1       2.073   2.410  17.569  0.00  0.00    +0.000 A 
ATOM     19  C   UNL     1       3.142   3.307  17.489  0.00  0.00    +0.000 A 
ENDBRANCH   2  13
BRANCH   1  20
ATOM     20  C   UNL     1       3.312   7.405  17.194  0.00  0.00    +0.000 C 
BRANCH  20  21
ATOM     21  C   UNL     1       2.249   7.846  18.190  0.00  0.00    +0.000 C 
ATOM     22  F   UNL     1       2.633   7.538  19.467  0.00  0.00    +0.000 F 
ATOM     23  F   UNL     1       1.123   7.100  17.971  0.00  0.00    +0.000 F 
BRANCH  21  25
ATOM     24  N   UNL     1       0.922   9.803  18.822  0.00  0.00    +0.000 N 
ATOM     25  C   UNL     1       1.949   9.335  18.029  0.00  0.00    +0.000 C 
ATOM     26  O   UNL     1       2.558  10.061  17.247  0.00  0.00    +0.000 OA
ATOM     27  H   UNL     1       0.550   9.197  19.543  0.00  0.00    +0.000 HD
BRANCH  24  33
ATOM     28  O   UNL     1       1.377  11.888  20.974  0.00  0.00    +0.000 OA
ATOM     29  C   UNL     1       0.457  11.766  20.182  0.00  0.00    +0.000 C 
ATOM     30  N   UNL     1      -0.871  11.997  20.492  0.00  0.00    +0.000 N 
ATOM     31  C   UNL     1      -1.746  11.415  19.511  0.00  0.00    +0.000 C 
ATOM     32  C   UNL     1      -0.900  11.408  18.244  0.00  0.00    +0.000 C 
ATOM     33  C   UNL     1       0.537  11.199  18.766  0.00  0.00    +0.000 C 
ATOM     34  H   UNL     1      -1.127  12.206  21.449  0.00  0.00    +0.000 HD
BRANCH  32  35
ATOM     35  O   UNL     1      -1.025  12.664  17.566  0.00  0.00    +0.000 OA
ATOM     36  H   UNL     1      -0.684  13.361  18.155  0.00  0.00    +0.000 HD
ENDBRANCH  32  35
ENDBRANCH  24  33
ENDBRANCH  21  25
ENDBRANCH  20  21
ENDBRANCH   1  20
TORSDOF 6
ENDMDL
MODEL 6
REMARK VINA RESULT:      -7.8      3.638      7.182
REMARK  Name = 
REMARK  6 active torsions:
REMARK  status: ('A' for Active; 'I' for Inactive)
REMARK    1  A    between atoms: C_5  and  O_6
REMARK    2  A    between atoms: C_7  and  N_8
REMARK    3  A    between atoms: C_9  and  C_11
REMARK    4  A    between atoms: C_11  and  C_14
REMARK    5  A    between atoms: C_14  and  C_15
REMARK    6  A    between atoms: C_16  and  C_17
REMARK                            x       y       z     vdW  Elec       q    Type
REMARK                         _______ _______ _______ _____ _____    ______ ____
ROOT
ATOM      1  C   UNL     1       3.659   5.532  18.484  0.00  0.00    +0.000 A 
ATOM      2  C   UNL     1       2.444   6.184  18.717  0.00  0.00    +0.000 A 
ATOM      3  N   UNL     1       1.487   5.193  18.839  0.00  0.00    +0.000 N 
ATOM      4  C   UNL     1       2.030   3.948  18.674  0.00  0.00    +0.000 A 
ATOM      5  C   UNL     1       1.428   2.689  18.728  0.00  0.00    +0.000 A 
ATOM      6  F   UNL     1       0.120   2.563  18.987  0.00  0.00    +0.000 F 
ATOM      7  C   UNL     1       2.209   1.561  18.509  0.00  0.00    +0.000 A 
ATOM      8  C   UNL     1       3.558   1.711  18.227  0.00  0.00    +0.000 A 
ATOM      9  F   UNL     1       4.305   0.620  18.012  0.00  0.00    +0.000 F 
ATOM     10  C   UNL     1       4.163   2.970  18.166  0.00  0.00    +0.000 A 
ATOM     11  C   UNL     1       3.384   4.122  18.412  0.00  0.00    +0.000 A 
ATOM     12  H   UNL     1       0.503   5.351  19.007  0.00  0.00    +0.000 HD
ENDROOT
BRANCH   2  13
ATOM     13  C   UNL     1       2.090   7.610  18.821  0.00  0.00    +0.000 A 
ATOM     14  C   UNL     1       1.608   8.155  20.020  0.00  0.00    +0.000 A 
ATOM     15  C   UNL     1       1.276   9.503  20.137  0.00  0.00    +0.000 A 
ATOM     16  C   UNL     1       1.483  10.337  19.058  0.00  0.00    +0.000 A 
ATOM     17  F   UNL     1       1.214  11.649  19.175  0.00  0.00    +0.000 F 
ATOM     18  C   UNL     1       1.978   9.845  17.859  0.00  0.00    +0.000 A 
ATOM     19  C   UNL     1       2.266   8.483  17.733  0.00  0.00    +0.000 A 
ENDBRANCH   2  13
BRANCH   1  20
ATOM     20  C   UNL     1       5.031   6.140  18.347  0.00  0.00    +0.000 C 
BRANCH  20  21
ATOM     21  C   UNL     1       5.402   6.558  16.932  0.00  0.00    +0.000 C 
ATOM     22  F   UNL     1       6.070   7.752  16.946  0.00  0.00    +0.000 F 
ATOM     23  F   UNL     1       4.247   6.808  16.243  0.00  0.00    +0.000 F 
BRANCH  21  25
ATOM     24  N   UNL     1       6.116   5.451  14.869  0.00  0.00    +0.000 N 
ATOM     25  C   UNL     1       6.212   5.461  16.246  0.00  0.00    +0.000 C 
ATOM     26  O   UNL     1       6.886   4.638  16.862  0.00  0.00    +0.000 OA
ATOM     27  H   UNL     1       5.661   6.230  14.408  0.00  0.00    +0.000 HD
BRANCH  24  33
ATOM     28  O   UNL     1       8.815   5.813  13.540  0.00  0.00    +0.000 OA
ATOM     29  C   UNL     1       7.850   5.154  13.189  0.00  0.00    +0.000 C 
ATOM     30  N   UNL     1       7.422   5.042  11.879  0.00  0.00    +0.000 N 
ATOM     31  C   UNL     1       6.076   4.542  11.810  0.00  0.00    +0.000 C 
ATOM     32  C   UNL     1       5.941   3.717  13.083  0.00  0.00    +0.000 C 
ATOM     33  C   UNL     1       6.837   4.459  14.095  0.00  0.00    +0.000 C 
ATOM     34  H   UNL     1       7.875   5.593  11.160  0.00  0.00    +0.000 HD
BRANCH  32  35
ATOM     35  O   UNL     1       6.416   2.384  12.854  0.00  0.00    +0.000 OA
ATOM     36  H   UNL     1       7.193   2.238  13.424  0.00  0.00    +0.000 HD
ENDBRANCH  32  35
ENDBRANCH  24  33
ENDBRANCH  21  25
ENDBRANCH  20  21
ENDBRANCH   1  20
TORSDOF 6
ENDMDL
MODEL 7
REMARK VINA RESULT:      -7.8      2.468      2.995
REMARK  Name = 
REMARK  6 active torsions:
REMARK  status: ('A' for Active; 'I' for Inactive)
REMARK    1  A    between atoms: C_5  and  O_6
REMARK    2  A    between atoms: C_7  and  N_8
REMARK    3  A    between atoms: C_9  and  C_11
REMARK    4  A    between atoms: C_11  and  C_14
REMARK    5  A    between atoms: C_14  and  C_15
REMARK    6  A    between atoms: C_16  and  C_17
REMARK                            x       y       z     vdW  Elec       q    Type
REMARK                         _______ _______ _______ _____ _____    ______ ____
ROOT
ATOM      1  C   UNL     1       3.452   5.359  18.070  0.00  0.00    +0.000 A 
ATOM      2  C   UNL     1       4.827   5.148  18.220  0.00  0.00    +0.000 A 
ATOM      3  N   UNL     1       4.988   3.800  18.483  0.00  0.00    +0.000 N 
ATOM      4  C   UNL     1       3.784   3.150  18.529  0.00  0.00    +0.000 A 
ATOM      5  C   UNL     1       3.497   1.802  18.751  0.00  0.00    +0.000 A 
ATOM      6  F   UNL     1       4.479   0.914  18.953  0.00  0.00    +0.000 F 
ATOM      7  C   UNL     1       2.170   1.390  18.761  0.00  0.00    +0.000 A 
ATOM      8  C   UNL     1       1.166   2.325  18.566  0.00  0.00    +0.000 A 
ATOM      9  F   UNL     1      -0.112   1.923  18.581  0.00  0.00    +0.000 F 
ATOM     10  C   UNL     1       1.450   3.677  18.348  0.00  0.00    +0.000 A 
ATOM     11  C   UNL     1       2.795   4.102  18.311  0.00  0.00    +0.000 A 
ATOM     12  H   UNL     1       5.873   3.340  18.646  0.00  0.00    +0.000 HD
ENDROOT
BRANCH   2  13
ATOM     13  C   UNL     1       5.981   6.062  18.159  0.00  0.00    +0.000 A 
ATOM     14  C   UNL     1       5.965   7.200  17.340  0.00  0.00    +0.000 A 
ATOM     15  C   UNL     1       7.044   8.079  17.277  0.00  0.00    +0.000 A 
ATOM     16  C   UNL     1       8.136   7.852  18.088  0.00  0.00    +0.000 A 
ATOM     17  F   UNL     1       9.162   8.721  18.073  0.00  0.00    +0.000 F 
ATOM     18  C   UNL     1       8.185   6.751  18.930  0.00  0.00    +0.000 A 
ATOM     19  C   UNL     1       7.119   5.848  18.955  0.00  0.00    +0.000 A 
ENDBRANCH   2  13
BRANCH   1  20
ATOM     20  C   UNL     1       2.741   6.636  17.705  0.00  0.00    +0.000 C 
BRANCH  20  21
ATOM     21  C   UNL     1       2.265   7.460  18.892  0.00  0.00    +0.000 C 
ATOM     22  F   UNL     1       3.205   7.453  19.886  0.00  0.00    +0.000 F 
ATOM     23  F   UNL     1       1.173   6.839  19.434  0.00  0.00    +0.000 F 
BRANCH  21  25
ATOM     24  N   UNL     1       1.167   9.596  19.363  0.00  0.00    +0.000 N 
ATOM     25  C   UNL     1       1.915   8.880  18.451  0.00  0.00    +0.000 C 
ATOM     26  O   UNL     1       2.252   9.349  17.366  0.00  0.00    +0.000 OA
ATOM     27  H   UNL     1       1.035   9.213  20.291  0.00  0.00    +0.000 HD
BRANCH  24  33
ATOM     28  O   UNL     1       1.627  12.032  21.107  0.00  0.00    +0.000 OA
ATOM     29  C   UNL     1       0.699  11.765  20.361  0.00  0.00    +0.000 C 
ATOM     30  N   UNL     1      -0.627  12.036  20.645  0.00  0.00    +0.000 N 
ATOM     31  C   UNL     1      -1.508  11.283  19.794  0.00  0.00    +0.000 C 
ATOM     32  C   UNL     1      -0.678  11.060  18.537  0.00  0.00    +0.000 C 
ATOM     33  C   UNL     1       0.767  10.958  19.067  0.00  0.00    +0.000 C 
ATOM     34  H   UNL     1      -0.874  12.408  21.554  0.00  0.00    +0.000 HD
BRANCH  32  35
ATOM     35  O   UNL     1      -0.824  12.176  17.649  0.00  0.00    +0.000 OA
ATOM     36  H   UNL     1      -1.191  11.848  16.809  0.00  0.00    +0.000 HD
ENDBRANCH  32  35
ENDBRANCH  24  33
ENDBRANCH  21  25
ENDBRANCH  20  21
ENDBRANCH   1  20
TORSDOF 6
ENDMDL
MODEL 8
REMARK VINA RESULT:      -7.7      0.950      1.338
REMARK  Name = 
REMARK  6 active torsions:
REMARK  status: ('A' for Active; 'I' for Inactive)
REMARK    1  A    between atoms: C_5  and  O_6
REMARK    2  A    between atoms: C_7  and  N_8
REMARK    3  A    between atoms: C_9  and  C_11
REMARK    4  A    between atoms: C_11  and  C_14
REMARK    5  A    between atoms: C_14  and  C_15
REMARK    6  A    between atoms: C_16  and  C_17
REMARK                            x       y       z     vdW  Elec       q    Type
REMARK                         _______ _______ _______ _____ _____    ______ ____
ROOT
ATOM      1  C   UNL     1       3.968   5.056  18.430  0.00  0.00    +0.000 A 
ATOM      2  C   UNL     1       4.594   4.270  17.458  0.00  0.00    +0.000 A 
ATOM      3  N   UNL     1       4.236   2.961  17.723  0.00  0.00    +0.000 N 
ATOM      4  C   UNL     1       3.432   2.875  18.828  0.00  0.00    +0.000 A 
ATOM      5  C   UNL     1       2.844   1.760  19.428  0.00  0.00    +0.000 A 
ATOM      6  F   UNL     1       3.019   0.533  18.920  0.00  0.00    +0.000 F 
ATOM      7  C   UNL     1       2.069   1.941  20.568  0.00  0.00    +0.000 A 
ATOM      8  C   UNL     1       1.912   3.216  21.088  0.00  0.00    +0.000 A 
ATOM      9  F   UNL     1       1.168   3.384  22.189  0.00  0.00    +0.000 F 
ATOM     10  C   UNL     1       2.504   4.334  20.492  0.00  0.00    +0.000 A 
ATOM     11  C   UNL     1       3.273   4.165  19.320  0.00  0.00    +0.000 A 
ATOM     12  H   UNL     1       4.538   2.155  17.194  0.00  0.00    +0.000 HD
ENDROOT
BRANCH   2  13
ATOM     13  C   UNL     1       5.488   4.609  16.337  0.00  0.00    +0.000 A 
ATOM     14  C   UNL     1       6.631   5.398  16.531  0.00  0.00    +0.000 A 
ATOM     15  C   UNL     1       7.491   5.721  15.483  0.00  0.00    +0.000 A 
ATOM     16  C   UNL     1       7.242   5.200  14.231  0.00  0.00    +0.000 A 
ATOM     17  F   UNL     1       8.093   5.463  13.224  0.00  0.00    +0.000 F 
ATOM     18  C   UNL     1       6.136   4.396  13.999  0.00  0.00    +0.000 A 
ATOM     19  C   UNL     1       5.251   4.113  15.043  0.00  0.00    +0.000 A 
ENDBRANCH   2  13
BRANCH   1  20
ATOM     20  C   UNL     1       3.971   6.557  18.558  0.00  0.00    +0.000 C 
BRANCH  20  21
ATOM     21  C   UNL     1       2.756   7.248  17.959  0.00  0.00    +0.000 C 
ATOM     22  F   UNL     1       1.917   6.330  17.387  0.00  0.00    +0.000 F 
ATOM     23  F   UNL     1       3.178   8.033  16.922  0.00  0.00    +0.000 F 
BRANCH  21  25
ATOM     24  N   UNL     1       1.392   9.200  18.522  0.00  0.00    +0.000 N 
ATOM     25  C   UNL     1       2.043   8.089  19.016  0.00  0.00    +0.000 C 
ATOM     26  O   UNL     1       2.057   7.814  20.214  0.00  0.00    +0.000 OA
ATOM     27  H   UNL     1       1.297   9.303  17.519  0.00  0.00    +0.000 HD
BRANCH  24  33
ATOM     28  O   UNL     1      -1.508  10.051  18.286  0.00  0.00    +0.000 OA
ATOM     29  C   UNL     1      -0.541  10.666  18.706  0.00  0.00    +0.000 C 
ATOM     30  N   UNL     1      -0.316  12.011  18.472  0.00  0.00    +0.000 N 
ATOM     31  C   UNL     1       1.051  12.366  18.743  0.00  0.00    +0.000 C 
ATOM     32  C   UNL     1       1.478  11.348  19.791  0.00  0.00    +0.000 C 
ATOM     33  C   UNL     1       0.675  10.084  19.421  0.00  0.00    +0.000 C 
ATOM     34  H   UNL     1      -0.937  12.518  17.854  0.00  0.00    +0.000 HD
BRANCH  32  35
ATOM     35  O   UNL     1       1.129  11.817  21.100  0.00  0.00    +0.000 OA
ATOM     36  H   UNL     1       1.427  11.153  21.748  0.00  0.00    +0.000 HD
ENDBRANCH  32  35
ENDBRANCH  24  33
ENDBRANCH  21  25
ENDBRANCH  20  21
ENDBRANCH   1  20
TORSDOF 6
ENDMDL
MODEL 9
REMARK VINA RESULT:      -7.6      1.160      1.618
REMARK  Name = 
REMARK  6 active torsions:
REMARK  status: ('A' for Active; 'I' for Inactive)
REMARK    1  A    between atoms: C_5  and  O_6
REMARK    2  A    between atoms: C_7  and  N_8
REMARK    3  A    between atoms: C_9  and  C_11
REMARK    4  A    between atoms: C_11  and  C_14
REMARK    5  A    between atoms: C_14  and  C_15
REMARK    6  A    between atoms: C_16  and  C_17
REMARK                            x       y       z     vdW  Elec       q    Type
REMARK                         _______ _______ _______ _____ _____    ______ ____
ROOT
ATOM      1  C   UNL     1       3.510   4.682  18.244  0.00  0.00    +0.000 A 
ATOM      2  C   UNL     1       4.678   4.131  17.707  0.00  0.00    +0.000 A 
ATOM      3  N   UNL     1       5.024   3.074  18.529  0.00  0.00    +0.000 N 
ATOM      4  C   UNL     1       4.147   2.940  19.571  0.00  0.00    +0.000 A 
ATOM      5  C   UNL     1       4.120   2.009  20.611  0.00  0.00    +0.000 A 
ATOM      6  F   UNL     1       5.045   1.043  20.694  0.00  0.00    +0.000 F 
ATOM      7  C   UNL     1       3.115   2.097  21.566  0.00  0.00    +0.000 A 
ATOM      8  C   UNL     1       2.175   3.111  21.473  0.00  0.00    +0.000 A 
ATOM      9  F   UNL     1       1.211   3.194  22.399  0.00  0.00    +0.000 F 
ATOM     10  C   UNL     1       2.202   4.049  20.436  0.00  0.00    +0.000 A 
ATOM     11  C   UNL     1       3.205   3.954  19.447  0.00  0.00    +0.000 A 
ATOM     12  H   UNL     1       5.832   2.479  18.404  0.00  0.00    +0.000 HD
ENDROOT
BRANCH   2  13
ATOM     13  C   UNL     1       5.497   4.494  16.538  0.00  0.00    +0.000 A 
ATOM     14  C   UNL     1       6.613   5.334  16.664  0.00  0.00    +0.000 A 
ATOM     15  C   UNL     1       7.403   5.681  15.570  0.00  0.00    +0.000 A 
ATOM     16  C   UNL     1       7.112   5.135  14.337  0.00  0.00    +0.000 A 
ATOM     17  F   UNL     1       7.897   5.422  13.284  0.00  0.00    +0.000 F 
ATOM     18  C   UNL     1       6.031   4.281  14.171  0.00  0.00    +0.000 A 
ATOM     19  C   UNL     1       5.214   3.973  15.263  0.00  0.00    +0.000 A 
ENDBRANCH   2  13
BRANCH   1  20
ATOM     20  C   UNL     1       2.676   5.811  17.696  0.00  0.00    +0.000 C 
BRANCH  20  21
ATOM     21  C   UNL     1       3.108   7.197  18.149  0.00  0.00    +0.000 C 
ATOM     22  F   UNL     1       4.234   7.591  17.477  0.00  0.00    +0.000 F 
ATOM     23  F   UNL     1       3.489   7.120  19.460  0.00  0.00    +0.000 F 
BRANCH  21  25
ATOM     24  N   UNL     1       2.137   9.386  18.653  0.00  0.00    +0.000 N 
ATOM     25  C   UNL     1       1.965   8.196  17.977  0.00  0.00    +0.000 C 
ATOM     26  O   UNL     1       0.962   7.960  17.307  0.00  0.00    +0.000 OA
ATOM     27  H   UNL     1       3.037   9.581  19.075  0.00  0.00    +0.000 HD
BRANCH  24  33
ATOM     28  O   UNL     1       2.585  12.299  17.947  0.00  0.00    +0.000 OA
ATOM     29  C   UNL     1       1.781  11.792  18.712  0.00  0.00    +0.000 C 
ATOM     30  N   UNL     1       1.429  12.330  19.937  0.00  0.00    +0.000 N 
ATOM     31  C   UNL     1       0.782  11.354  20.770  0.00  0.00    +0.000 C 
ATOM     32  C   UNL     1       0.146  10.401  19.767  0.00  0.00    +0.000 C 
ATOM     33  C   UNL     1       1.124  10.421  18.574  0.00  0.00    +0.000 C 
ATOM     34  H   UNL     1       1.912  13.154  20.274  0.00  0.00    +0.000 HD
BRANCH  32  35
ATOM     35  O   UNL     1      -1.147  10.885  19.383  0.00  0.00    +0.000 OA
ATOM     36  H   UNL     1      -1.818  10.378  19.875  0.00  0.00    +0.000 HD
ENDBRANCH  32  35
ENDBRANCH  24  33
ENDBRANCH  21  25
ENDBRANCH  20  21
ENDBRANCH   1  20
TORSDOF 6
ENDMDL
