MODEL 1
REMARK VINA RESULT:      -6.8      0.000      0.000
REMARK  Name = 
REMARK  10 active torsions:
REMARK  status: ('A' for Active; 'I' for Inactive)
REMARK    1  A    between atoms: C_1  and  O_2
REMARK    2  A    between atoms: O_2  and  C_3
REMARK    3  A    between atoms: C_4  and  O_5
REMARK    4  A    between atoms: C_17  and  C_18
REMARK    5  A    between atoms: C_22  and  C_23
REMARK    6  A    between atoms: C_23  and  C_24
REMARK    7  A    between atoms: C_23  and  O_25
REMARK    8  A    between atoms: C_27  and  C_28
REMARK    9  A    between atoms: C_30  and  C_31
REMARK   10  A    between atoms: C_30  and  C_32
REMARK                            x       y       z     vdW  Elec       q    Type
REMARK                         _______ _______ _______ _____ _____    ______ ____
ROOT
ATOM      1  C   UNL     1       9.208  13.899  19.034  0.00  0.00    +0.000 A 
ATOM      2  C   UNL     1       9.572  14.785  18.003  0.00  0.00    +0.000 A 
ATOM      3  C   UNL     1       9.044  16.068  17.905  0.00  0.00    +0.000 A 
ATOM      4  C   UNL     1       8.093  16.474  18.829  0.00  0.00    +0.000 A 
ATOM      5  C   UNL     1       7.713  15.599  19.849  0.00  0.00    +0.000 A 
ATOM      6  C   UNL     1       8.320  14.334  20.032  0.00  0.00    +0.000 A 
ATOM      7  C   UNL     1       7.987  13.623  21.287  0.00  0.00    +0.000 A 
ATOM      8  C   UNL     1       8.805  12.625  21.830  0.00  0.00    +0.000 A 
ATOM      9  C   UNL     1       8.353  11.843  22.877  0.00  0.00    +0.000 A 
ATOM     10  C   UNL     1       7.224  12.220  23.590  0.00  0.00    +0.000 A 
ATOM     11  C   UNL     1       6.545  13.419  23.259  0.00  0.00    +0.000 A 
ATOM     12  C   UNL     1       6.823  14.004  21.998  0.00  0.00    +0.000 A 
ATOM     13  C   UNL     1       5.974  15.004  21.306  0.00  0.00    +0.000 C 
ATOM     14  C   UNL     1       4.635  14.870  21.198  0.00  0.00    +0.000 C 
ATOM     15  O   UNL     1       6.663  16.018  20.646  0.00  0.00    +0.000 OA
ATOM     16  C   UNL     1       5.716  14.013  24.343  0.00  0.00    +0.000 C 
ATOM     17  C   UNL     1       5.232  15.437  24.307  0.00  0.00    +0.000 C 
ATOM     18  C   UNL     1       5.612  13.333  25.502  0.00  0.00    +0.000 C 
ATOM     19  C   UNL     1       6.232  11.996  25.806  0.00  0.00    +0.000 C 
ATOM     20  C   UNL     1       7.407  12.166  26.783  0.00  0.00    +0.000 C 
ATOM     21  C   UNL     1       5.177  11.061  26.406  0.00  0.00    +0.000 C 
ATOM     22  N   UNL     1       6.753  11.367  24.593  0.00  0.00    +0.000 N 
ATOM     23  H   UNL     1       7.360  10.577  24.781  0.00  0.00    +0.000 HD
ENDROOT
BRANCH  14  24
ATOM     24  C   UNL     1       3.808  15.797  20.497  0.00  0.00    +0.000 A 
ATOM     25  S   UNL     1       3.196  17.157  21.367  0.00  0.00    +0.000 S 
ATOM     26  C   UNL     1       2.297  17.714  20.037  0.00  0.00    +0.000 A 
ATOM     27  C   UNL     1       2.442  16.897  18.943  0.00  0.00    +0.000 A 
ATOM     28  C   UNL     1       3.310  15.772  19.191  0.00  0.00    +0.000 A 
BRANCH  28  29
ATOM     29  C   UNL     1       3.597  14.754  18.110  0.00  0.00    +0.000 C 
ATOM     30  C   UNL     1       2.637  13.571  18.170  0.00  0.00    +0.000 C 
BRANCH  29  31
ATOM     31  O   UNL     1       3.587  15.315  16.802  0.00  0.00    +0.000 OA
ATOM     32  H   UNL     1       2.919  16.026  16.812  0.00  0.00    +0.000 HD
ENDBRANCH  29  31
ENDBRANCH  28  29
ENDBRANCH  14  24
BRANCH   1  34
ATOM     33  C   UNL     1       9.180  11.641  18.308  0.00  0.00    +0.000 C 
ATOM     34  O   UNL     1       9.860  12.688  19.009  0.00  0.00    +0.000 OA
ENDBRANCH   1  34
BRANCH   2  35
ATOM     35  O   UNL     1      10.482  14.404  17.052  0.00  0.00    +0.000 OA
ATOM     36  H   UNL     1      11.161  13.896  17.535  0.00  0.00    +0.000 HD
ENDBRANCH   2  35
TORSDOF 5
ENDMDL
MODEL 2
REMARK VINA RESULT:      -6.4      6.967     10.250
REMARK  Name = 
REMARK  10 active torsions:
REMARK  status: ('A' for Active; 'I' for Inactive)
REMARK    1  A    between atoms: C_1  and  O_2
REMARK    2  A    between atoms: O_2  and  C_3
REMARK    3  A    between atoms: C_4  and  O_5
REMARK    4  A    between atoms: C_17  and  C_18
REMARK    5  A    between atoms: C_22  and  C_23
REMARK    6  A    between atoms: C_23  and  C_24
REMARK    7  A    between atoms: C_23  and  O_25
REMARK    8  A    between atoms: C_27  and  C_28
REMARK    9  A    between atoms: C_30  and  C_31
REMARK   10  A    between atoms: C_30  and  C_32
REMARK                            x       y       z     vdW  Elec       q    Type
REMARK                         _______ _______ _______ _____ _____    ______ ____
ROOT
ATOM      1  C   UNL     1      -0.104  16.393  21.286  0.00  0.00    +0.000 A 
ATOM      2  C   UNL     1       1.086  16.782  20.642  0.00  0.00    +0.000 A 
ATOM      3  C   UNL     1       1.524  16.181  19.466  0.00  0.00    +0.000 A 
ATOM      4  C   UNL     1       0.787  15.134  18.934  0.00  0.00    +0.000 A 
ATOM      5  C   UNL     1      -0.388  14.730  19.571  0.00  0.00    +0.000 A 
ATOM      6  C   UNL     1      -0.910  15.402  20.702  0.00  0.00    +0.000 A 
ATOM      7  C   UNL     1      -2.276  15.016  21.122  0.00  0.00    +0.000 A 
ATOM      8  C   UNL     1      -3.094  15.851  21.892  0.00  0.00    +0.000 A 
ATOM      9  C   UNL     1      -4.269  15.367  22.439  0.00  0.00    +0.000 A 
ATOM     10  C   UNL     1      -4.797  14.162  21.999  0.00  0.00    +0.000 A 
ATOM     11  C   UNL     1      -4.143  13.435  20.972  0.00  0.00    +0.000 A 
ATOM     12  C   UNL     1      -2.799  13.775  20.681  0.00  0.00    +0.000 A 
ATOM     13  C   UNL     1      -1.834  12.921  19.946  0.00  0.00    +0.000 C 
ATOM     14  C   UNL     1      -1.677  11.607  20.212  0.00  0.00    +0.000 C 
ATOM     15  O   UNL     1      -0.992  13.593  19.063  0.00  0.00    +0.000 OA
ATOM     16  C   UNL     1      -4.997  12.484  20.209  0.00  0.00    +0.000 C 
ATOM     17  C   UNL     1      -4.588  11.913  18.879  0.00  0.00    +0.000 C 
ATOM     18  C   UNL     1      -6.277  12.332  20.602  0.00  0.00    +0.000 C 
ATOM     19  C   UNL     1      -6.934  13.011  21.773  0.00  0.00    +0.000 C 
ATOM     20  C   UNL     1      -7.913  14.089  21.280  0.00  0.00    +0.000 C 
ATOM     21  C   UNL     1      -7.675  11.975  22.624  0.00  0.00    +0.000 C 
ATOM     22  N   UNL     1      -5.945  13.668  22.625  0.00  0.00    +0.000 N 
ATOM     23  H   UNL     1      -6.355  14.308  23.296  0.00  0.00    +0.000 HD
ENDROOT
BRANCH  14  24
ATOM     24  C   UNL     1      -0.723  10.780  19.550  0.00  0.00    +0.000 A 
ATOM     25  S   UNL     1       0.696  10.322  20.420  0.00  0.00    +0.000 S 
ATOM     26  C   UNL     1       1.355   9.500  19.087  0.00  0.00    +0.000 A 
ATOM     27  C   UNL     1       0.532   9.562  17.990  0.00  0.00    +0.000 A 
ATOM     28  C   UNL     1      -0.679  10.308  18.235  0.00  0.00    +0.000 A 
BRANCH  28  29
ATOM     29  C   UNL     1      -1.716  10.491  17.149  0.00  0.00    +0.000 C 
ATOM     30  C   UNL     1      -3.013   9.756  17.471  0.00  0.00    +0.000 C 
BRANCH  29  31
ATOM     31  O   UNL     1      -1.994  11.858  16.870  0.00  0.00    +0.000 OA
ATOM     32  H   UNL     1      -1.381  12.382  17.419  0.00  0.00    +0.000 HD
ENDBRANCH  29  31
ENDBRANCH  28  29
ENDBRANCH  14  24
BRANCH   1  34
ATOM     33  C   UNL     1      -0.005  16.538  23.651  0.00  0.00    +0.000 C 
ATOM     34  O   UNL     1      -0.413  17.124  22.410  0.00  0.00    +0.000 OA
ENDBRANCH   1  34
BRANCH   2  35
ATOM     35  O   UNL     1       1.857  17.788  21.160  0.00  0.00    +0.000 OA
ATOM     36  H   UNL     1       2.773  17.453  21.126  0.00  0.00    +0.000 HD
ENDBRANCH   2  35
TORSDOF 5
ENDMDL
MODEL 3
REMARK VINA RESULT:      -6.4      6.287      9.958
REMARK  Name = 
REMARK  10 active torsions:
REMARK  status: ('A' for Active; 'I' for Inactive)
REMARK    1  A    between atoms: C_1  and  O_2
REMARK    2  A    between atoms: O_2  and  C_3
REMARK    3  A    between atoms: C_4  and  O_5
REMARK    4  A    between atoms: C_17  and  C_18
REMARK    5  A    between atoms: C_22  and  C_23
REMARK    6  A    between atoms: C_23  and  C_24
REMARK    7  A    between atoms: C_23  and  O_25
REMARK    8  A    between atoms: C_27  and  C_28
REMARK    9  A    between atoms: C_30  and  C_31
REMARK   10  A    between atoms: C_30  and  C_32
REMARK                            x       y       z     vdW  Elec       q    Type
REMARK                         _______ _______ _______ _____ _____    ______ ____
ROOT
ATOM      1  C   UNL     1      -2.276  14.756  23.564  0.00  0.00    +0.000 A 
ATOM      2  C   UNL     1      -3.230  14.103  24.365  0.00  0.00    +0.000 A 
ATOM      3  C   UNL     1      -3.562  12.764  24.181  0.00  0.00    +0.000 A 
ATOM      4  C   UNL     1      -2.965  12.061  23.146  0.00  0.00    +0.000 A 
ATOM      5  C   UNL     1      -2.026  12.702  22.336  0.00  0.00    +0.000 A 
ATOM      6  C   UNL     1      -1.592  14.028  22.576  0.00  0.00    +0.000 A 
ATOM      7  C   UNL     1      -0.426  14.489  21.789  0.00  0.00    +0.000 A 
ATOM      8  C   UNL     1       0.391  15.550  22.199  0.00  0.00    +0.000 A 
ATOM      9  C   UNL     1       1.330  16.083  21.334  0.00  0.00    +0.000 A 
ATOM     10  C   UNL     1       1.678  15.401  20.178  0.00  0.00    +0.000 A 
ATOM     11  C   UNL     1       1.087  14.144  19.892  0.00  0.00    +0.000 A 
ATOM     12  C   UNL     1      -0.089  13.796  20.600  0.00  0.00    +0.000 A 
ATOM     13  C   UNL     1      -1.058  12.746  20.199  0.00  0.00    +0.000 C 
ATOM     14  C   UNL     1      -1.516  12.626  18.936  0.00  0.00    +0.000 C 
ATOM     15  O   UNL     1      -1.578  11.983  21.242  0.00  0.00    +0.000 OA
ATOM     16  C   UNL     1       1.858  13.262  18.974  0.00  0.00    +0.000 C 
ATOM     17  C   UNL     1       1.588  11.788  18.848  0.00  0.00    +0.000 C 
ATOM     18  C   UNL     1       2.991  13.751  18.433  0.00  0.00    +0.000 C 
ATOM     19  C   UNL     1       3.550  15.132  18.640  0.00  0.00    +0.000 C 
ATOM     20  C   UNL     1       4.795  15.072  19.539  0.00  0.00    +0.000 C 
ATOM     21  C   UNL     1       3.907  15.754  17.286  0.00  0.00    +0.000 C 
ATOM     22  N   UNL     1       2.575  16.005  19.292  0.00  0.00    +0.000 N 
ATOM     23  H   UNL     1       2.978  16.868  19.638  0.00  0.00    +0.000 HD
ENDROOT
BRANCH  14  24
ATOM     24  C   UNL     1      -2.482  11.654  18.541  0.00  0.00    +0.000 A 
ATOM     25  S   UNL     1      -1.927  10.260  17.686  0.00  0.00    +0.000 S 
ATOM     26  C   UNL     1      -3.501   9.652  17.479  0.00  0.00    +0.000 A 
ATOM     27  C   UNL     1      -4.445  10.478  18.037  0.00  0.00    +0.000 A 
ATOM     28  C   UNL     1      -3.876  11.651  18.654  0.00  0.00    +0.000 A 
BRANCH  28  29
ATOM     29  C   UNL     1      -4.753  12.683  19.325  0.00  0.00    +0.000 C 
ATOM     30  C   UNL     1      -5.992  13.006  18.496  0.00  0.00    +0.000 C 
BRANCH  29  31
ATOM     31  O   UNL     1      -5.140  12.312  20.643  0.00  0.00    +0.000 OA
ATOM     32  H   UNL     1      -4.356  12.444  21.208  0.00  0.00    +0.000 HD
ENDBRANCH  29  31
ENDBRANCH  28  29
ENDBRANCH  14  24
BRANCH   1  34
ATOM     33  C   UNL     1      -2.772  17.042  23.171  0.00  0.00    +0.000 C 
ATOM     34  O   UNL     1      -2.033  16.066  23.912  0.00  0.00    +0.000 OA
ENDBRANCH   1  34
BRANCH   2  35
ATOM     35  O   UNL     1      -3.867  14.776  25.373  0.00  0.00    +0.000 OA
ATOM     36  H   UNL     1      -3.702  14.250  26.178  0.00  0.00    +0.000 HD
ENDBRANCH   2  35
TORSDOF 5
ENDMDL
MODEL 4
REMARK VINA RESULT:      -6.3      6.361     10.231
REMARK  Name = 
REMARK  10 active torsions:
REMARK  status: ('A' for Active; 'I' for Inactive)
REMARK    1  A    between atoms: C_1  and  O_2
REMARK    2  A    between atoms: O_2  and  C_3
REMARK    3  A    between atoms: C_4  and  O_5
REMARK    4  A    between atoms: C_17  and  C_18
REMARK    5  A    between atoms: C_22  and  C_23
REMARK    6  A    between atoms: C_23  and  C_24
REMARK    7  A    between atoms: C_23  and  O_25
REMARK    8  A    between atoms: C_27  and  C_28
REMARK    9  A    between atoms: C_30  and  C_31
REMARK   10  A    between atoms: C_30  and  C_32
REMARK                            x       y       z     vdW  Elec       q    Type
REMARK                         _______ _______ _______ _____ _____    ______ ____
ROOT
ATOM      1  C   UNL     1       0.470  14.624  21.885  0.00  0.00    +0.000 A 
ATOM      2  C   UNL     1       1.833  14.962  21.982  0.00  0.00    +0.000 A 
ATOM      3  C   UNL     1       2.788  14.452  21.109  0.00  0.00    +0.000 A 
ATOM      4  C   UNL     1       2.393  13.544  20.139  0.00  0.00    +0.000 A 
ATOM      5  C   UNL     1       1.046  13.189  20.041  0.00  0.00    +0.000 A 
ATOM      6  C   UNL     1       0.043  13.783  20.844  0.00  0.00    +0.000 A 
ATOM      7  C   UNL     1      -1.358  13.488  20.467  0.00  0.00    +0.000 A 
ATOM      8  C   UNL     1      -2.429  14.310  20.837  0.00  0.00    +0.000 A 
ATOM      9  C   UNL     1      -3.733  13.886  20.651  0.00  0.00    +0.000 A 
ATOM     10  C   UNL     1      -3.999  12.792  19.841  0.00  0.00    +0.000 A 
ATOM     11  C   UNL     1      -2.937  12.120  19.185  0.00  0.00    +0.000 A 
ATOM     12  C   UNL     1      -1.622  12.358  19.654  0.00  0.00    +0.000 A 
ATOM     13  C   UNL     1      -0.443  11.499  19.386  0.00  0.00    +0.000 C 
ATOM     14  C   UNL     1      -0.481  10.155  19.505  0.00  0.00    +0.000 C 
ATOM     15  O   UNL     1       0.749  12.178  19.145  0.00  0.00    +0.000 OA
ATOM     16  C   UNL     1      -3.314  11.343  17.973  0.00  0.00    +0.000 C 
ATOM     17  C   UNL     1      -2.305  10.882  16.958  0.00  0.00    +0.000 C 
ATOM     18  C   UNL     1      -4.621  11.274  17.650  0.00  0.00    +0.000 C 
ATOM     19  C   UNL     1      -5.760  11.884  18.420  0.00  0.00    +0.000 C 
ATOM     20  C   UNL     1      -6.323  13.098  17.664  0.00  0.00    +0.000 C 
ATOM     21  C   UNL     1      -6.860  10.838  18.633  0.00  0.00    +0.000 C 
ATOM     22  N   UNL     1      -5.321  12.347  19.736  0.00  0.00    +0.000 N 
ATOM     23  H   UNL     1      -5.996  12.948  20.195  0.00  0.00    +0.000 HD
ENDROOT
BRANCH  14  24
ATOM     24  C   UNL     1       0.654   9.316  19.297  0.00  0.00    +0.000 A 
ATOM     25  S   UNL     1       1.366   9.291  17.725  0.00  0.00    +0.000 S 
ATOM     26  C   UNL     1       2.502   8.105  18.162  0.00  0.00    +0.000 A 
ATOM     27  C   UNL     1       2.359   7.719  19.472  0.00  0.00    +0.000 A 
ATOM     28  C   UNL     1       1.286   8.405  20.149  0.00  0.00    +0.000 A 
BRANCH  28  29
ATOM     29  C   UNL     1       0.968   8.119  21.599  0.00  0.00    +0.000 C 
ATOM     30  C   UNL     1       1.422   9.250  22.516  0.00  0.00    +0.000 C 
BRANCH  29  31
ATOM     31  O   UNL     1      -0.410   7.842  21.823  0.00  0.00    +0.000 OA
ATOM     32  H   UNL     1      -0.548   6.909  21.572  0.00  0.00    +0.000 HD
ENDBRANCH  29  31
ENDBRANCH  28  29
ENDBRANCH  14  24
BRANCH   1  34
ATOM     33  C   UNL     1      -0.661  16.618  22.493  0.00  0.00    +0.000 C 
ATOM     34  O   UNL     1      -0.345  15.255  22.796  0.00  0.00    +0.000 OA
ENDBRANCH   1  34
BRANCH   2  35
ATOM     35  O   UNL     1       2.264  15.828  22.951  0.00  0.00    +0.000 OA
ATOM     36  H   UNL     1       1.455  16.129  23.406  0.00  0.00    +0.000 HD
ENDBRANCH   2  35
TORSDOF 5
ENDMDL
MODEL 5
REMARK VINA RESULT:      -6.3      2.714      6.047
REMARK  Name = 
REMARK  10 active torsions:
REMARK  status: ('A' for Active; 'I' for Inactive)
REMARK    1  A    between atoms: C_1  and  O_2
REMARK    2  A    between atoms: O_2  and  C_3
REMARK    3  A    between atoms: C_4  and  O_5
REMARK    4  A    between atoms: C_17  and  C_18
REMARK    5  A    between atoms: C_22  and  C_23
REMARK    6  A    between atoms: C_23  and  C_24
REMARK    7  A    between atoms: C_23  and  O_25
REMARK    8  A    between atoms: C_27  and  C_28
REMARK    9  A    between atoms: C_30  and  C_31
REMARK   10  A    between atoms: C_30  and  C_32
REMARK                            x       y       z     vdW  Elec       q    Type
REMARK                         _______ _______ _______ _____ _____    ______ ____
ROOT
ATOM      1  C   UNL     1      10.192  13.511  18.700  0.00  0.00    +0.000 A 
ATOM      2  C   UNL     1      11.248  12.645  19.041  0.00  0.00    +0.000 A 
ATOM      3  C   UNL     1      11.236  11.884  20.206  0.00  0.00    +0.000 A 
ATOM      4  C   UNL     1      10.170  12.016  21.082  0.00  0.00    +0.000 A 
ATOM      5  C   UNL     1       9.124  12.883  20.762  0.00  0.00    +0.000 A 
ATOM      6  C   UNL     1       9.062  13.579  19.531  0.00  0.00    +0.000 A 
ATOM      7  C   UNL     1       7.787  14.268  19.230  0.00  0.00    +0.000 A 
ATOM      8  C   UNL     1       7.396  14.601  17.928  0.00  0.00    +0.000 A 
ATOM      9  C   UNL     1       6.309  15.430  17.714  0.00  0.00    +0.000 A 
ATOM     10  C   UNL     1       5.426  15.699  18.749  0.00  0.00    +0.000 A 
ATOM     11  C   UNL     1       5.624  15.107  20.022  0.00  0.00    +0.000 A 
ATOM     12  C   UNL     1       6.899  14.554  20.297  0.00  0.00    +0.000 A 
ATOM     13  C   UNL     1       7.432  14.246  21.647  0.00  0.00    +0.000 C 
ATOM     14  C   UNL     1       7.339  15.111  22.679  0.00  0.00    +0.000 C 
ATOM     15  O   UNL     1       8.167  13.068  21.745  0.00  0.00    +0.000 OA
ATOM     16  C   UNL     1       4.414  15.005  20.883  0.00  0.00    +0.000 C 
ATOM     17  C   UNL     1       4.345  14.099  22.081  0.00  0.00    +0.000 C 
ATOM     18  C   UNL     1       3.268  15.547  20.426  0.00  0.00    +0.000 C 
ATOM     19  C   UNL     1       3.090  16.287  19.128  0.00  0.00    +0.000 C 
ATOM     20  C   UNL     1       2.299  15.426  18.130  0.00  0.00    +0.000 C 
ATOM     21  C   UNL     1       2.358  17.608  19.381  0.00  0.00    +0.000 C 
ATOM     22  N   UNL     1       4.381  16.599  18.517  0.00  0.00    +0.000 N 
ATOM     23  H   UNL     1       4.305  16.902  17.552  0.00  0.00    +0.000 HD
ENDROOT
BRANCH  14  24
ATOM     24  C   UNL     1       7.886  14.853  23.971  0.00  0.00    +0.000 A 
ATOM     25  S   UNL     1       9.260  15.773  24.467  0.00  0.00    +0.000 S 
ATOM     26  C   UNL     1       9.403  14.929  25.936  0.00  0.00    +0.000 A 
ATOM     27  C   UNL     1       8.438  13.961  26.065  0.00  0.00    +0.000 A 
ATOM     28  C   UNL     1       7.550  13.895  24.931  0.00  0.00    +0.000 A 
BRANCH  28  29
ATOM     29  C   UNL     1       6.418  12.892  24.883  0.00  0.00    +0.000 C 
ATOM     30  C   UNL     1       6.774  11.596  25.603  0.00  0.00    +0.000 C 
BRANCH  29  31
ATOM     31  O   UNL     1       5.196  13.408  25.398  0.00  0.00    +0.000 OA
ATOM     32  H   UNL     1       5.437  14.121  26.019  0.00  0.00    +0.000 HD
ENDBRANCH  29  31
ENDBRANCH  28  29
ENDBRANCH  14  24
BRANCH   1  34
ATOM     33  C   UNL     1      10.907  15.465  17.560  0.00  0.00    +0.000 C 
ATOM     34  O   UNL     1      10.343  14.151  17.491  0.00  0.00    +0.000 OA
ENDBRANCH   1  34
BRANCH   2  35
ATOM     35  O   UNL     1      12.333  12.517  18.216  0.00  0.00    +0.000 OA
ATOM     36  H   UNL     1      13.016  13.102  18.597  0.00  0.00    +0.000 HD
ENDBRANCH   2  35
TORSDOF 5
ENDMDL
MODEL 6
REMARK VINA RESULT:      -6.3      2.670      6.627
REMARK  Name = 
REMARK  10 active torsions:
REMARK  status: ('A' for Active; 'I' for Inactive)
REMARK    1  A    between atoms: C_1  and  O_2
REMARK    2  A    between atoms: O_2  and  C_3
REMARK    3  A    between atoms: C_4  and  O_5
REMARK    4  A    between atoms: C_17  and  C_18
REMARK    5  A    between atoms: C_22  and  C_23
REMARK    6  A    between atoms: C_23  and  C_24
REMARK    7  A    between atoms: C_23  and  O_25
REMARK    8  A    between atoms: C_27  and  C_28
REMARK    9  A    between atoms: C_30  and  C_31
REMARK   10  A    between atoms: C_30  and  C_32
REMARK                            x       y       z     vdW  Elec       q    Type
REMARK                         _______ _______ _______ _____ _____    ______ ____
ROOT
ATOM      1  C   UNL     1       4.069  15.639  19.227  0.00  0.00    +0.000 A 
ATOM      2  C   UNL     1       3.133  16.549  19.754  0.00  0.00    +0.000 A 
ATOM      3  C   UNL     1       3.444  17.411  20.801  0.00  0.00    +0.000 A 
ATOM      4  C   UNL     1       4.705  17.341  21.374  0.00  0.00    +0.000 A 
ATOM      5  C   UNL     1       5.638  16.433  20.869  0.00  0.00    +0.000 A 
ATOM      6  C   UNL     1       5.379  15.629  19.734  0.00  0.00    +0.000 A 
ATOM      7  C   UNL     1       6.536  14.896  19.172  0.00  0.00    +0.000 A 
ATOM      8  C   UNL     1       6.572  14.442  17.848  0.00  0.00    +0.000 A 
ATOM      9  C   UNL     1       7.571  13.581  17.431  0.00  0.00    +0.000 A 
ATOM     10  C   UNL     1       8.699  13.393  18.217  0.00  0.00    +0.000 A 
ATOM     11  C   UNL     1       8.838  14.099  19.439  0.00  0.00    +0.000 A 
ATOM     12  C   UNL     1       7.676  14.694  19.988  0.00  0.00    +0.000 A 
ATOM     13  C   UNL     1       7.515  15.129  21.397  0.00  0.00    +0.000 C 
ATOM     14  C   UNL     1       7.885  14.360  22.442  0.00  0.00    +0.000 C 
ATOM     15  O   UNL     1       6.821  16.323  21.578  0.00  0.00    +0.000 OA
ATOM     16  C   UNL     1      10.231  14.260  19.937  0.00  0.00    +0.000 C 
ATOM     17  C   UNL     1      10.606  15.268  20.987  0.00  0.00    +0.000 C 
ATOM     18  C   UNL     1      11.222  13.661  19.245  0.00  0.00    +0.000 C 
ATOM     19  C   UNL     1      11.057  12.805  18.019  0.00  0.00    +0.000 C 
ATOM     20  C   UNL     1      11.549  13.562  16.774  0.00  0.00    +0.000 C 
ATOM     21  C   UNL     1      11.843  11.501  18.189  0.00  0.00    +0.000 C 
ATOM     22  N   UNL     1       9.653  12.460  17.800  0.00  0.00    +0.000 N 
ATOM     23  H   UNL     1       9.475  12.070  16.881  0.00  0.00    +0.000 HD
ENDROOT
BRANCH  14  24
ATOM     24  C   UNL     1       7.696  14.741  23.803  0.00  0.00    +0.000 A 
ATOM     25  S   UNL     1       8.630  16.058  24.414  0.00  0.00    +0.000 S 
ATOM     26  C   UNL     1       8.000  15.892  25.983  0.00  0.00    +0.000 A 
ATOM     27  C   UNL     1       7.098  14.859  26.065  0.00  0.00    +0.000 A 
ATOM     28  C   UNL     1       6.912  14.172  24.811  0.00  0.00    +0.000 A 
BRANCH  28  29
ATOM     29  C   UNL     1       5.958  13.004  24.695  0.00  0.00    +0.000 C 
ATOM     30  C   UNL     1       6.690  11.667  24.693  0.00  0.00    +0.000 C 
BRANCH  29  31
ATOM     31  O   UNL     1       4.956  13.002  25.706  0.00  0.00    +0.000 OA
ATOM     32  H   UNL     1       4.267  12.378  25.409  0.00  0.00    +0.000 HD
ENDBRANCH  29  31
ENDBRANCH  28  29
ENDBRANCH  14  24
BRANCH   1  34
ATOM     33  C   UNL     1       3.013  13.641  18.507  0.00  0.00    +0.000 C 
ATOM     34  O   UNL     1       3.611  14.896  18.164  0.00  0.00    +0.000 OA
ENDBRANCH   1  34
BRANCH   2  35
ATOM     35  O   UNL     1       1.867  16.618  19.237  0.00  0.00    +0.000 OA
ATOM     36  H   UNL     1       1.978  16.522  18.272  0.00  0.00    +0.000 HD
ENDBRANCH   2  35
TORSDOF 5
ENDMDL
MODEL 7
REMARK VINA RESULT:      -6.2      3.259      6.931
REMARK  Name = 
REMARK  10 active torsions:
REMARK  status: ('A' for Active; 'I' for Inactive)
REMARK    1  A    between atoms: C_1  and  O_2
REMARK    2  A    between atoms: O_2  and  C_3
REMARK    3  A    between atoms: C_4  and  O_5
REMARK    4  A    between atoms: C_17  and  C_18
REMARK    5  A    between atoms: C_22  and  C_23
REMARK    6  A    between atoms: C_23  and  C_24
REMARK    7  A    between atoms: C_23  and  O_25
REMARK    8  A    between atoms: C_27  and  C_28
REMARK    9  A    between atoms: C_30  and  C_31
REMARK   10  A    between atoms: C_30  and  C_32
REMARK                            x       y       z     vdW  Elec       q    Type
REMARK                         _______ _______ _______ _____ _____    ______ ____
ROOT
ATOM      1  C   UNL     1       8.494  16.044  24.272  0.00  0.00    +0.000 A 
ATOM      2  C   UNL     1       9.731  16.440  24.815  0.00  0.00    +0.000 A 
ATOM      3  C   UNL     1      10.868  16.602  24.031  0.00  0.00    +0.000 A 
ATOM      4  C   UNL     1      10.794  16.320  22.675  0.00  0.00    +0.000 A 
ATOM      5  C   UNL     1       9.576  15.912  22.127  0.00  0.00    +0.000 A 
ATOM      6  C   UNL     1       8.382  15.852  22.885  0.00  0.00    +0.000 A 
ATOM      7  C   UNL     1       7.131  15.638  22.123  0.00  0.00    +0.000 A 
ATOM      8  C   UNL     1       5.873  15.994  22.621  0.00  0.00    +0.000 A 
ATOM      9  C   UNL     1       4.722  15.581  21.973  0.00  0.00    +0.000 A 
ATOM     10  C   UNL     1       4.794  15.074  20.685  0.00  0.00    +0.000 A 
ATOM     11  C   UNL     1       6.045  14.996  20.021  0.00  0.00    +0.000 A 
ATOM     12  C   UNL     1       7.214  15.103  20.814  0.00  0.00    +0.000 A 
ATOM     13  C   UNL     1       8.575  14.675  20.404  0.00  0.00    +0.000 C 
ATOM     14  C   UNL     1       8.815  13.486  19.812  0.00  0.00    +0.000 C 
ATOM     15  O   UNL     1       9.611  15.516  20.802  0.00  0.00    +0.000 OA
ATOM     16  C   UNL     1       5.987  14.956  18.535  0.00  0.00    +0.000 C 
ATOM     17  C   UNL     1       7.183  15.242  17.668  0.00  0.00    +0.000 C 
ATOM     18  C   UNL     1       4.773  14.913  17.952  0.00  0.00    +0.000 C 
ATOM     19  C   UNL     1       3.447  14.867  18.662  0.00  0.00    +0.000 C 
ATOM     20  C   UNL     1       2.726  16.218  18.528  0.00  0.00    +0.000 C 
ATOM     21  C   UNL     1       2.583  13.747  18.074  0.00  0.00    +0.000 C 
ATOM     22  N   UNL     1       3.621  14.598  20.089  0.00  0.00    +0.000 N 
ATOM     23  H   UNL     1       2.784  14.769  20.634  0.00  0.00    +0.000 HD
ENDROOT
BRANCH  14  24
ATOM     24  C   UNL     1      10.120  13.037  19.454  0.00  0.00    +0.000 A 
ATOM     25  S   UNL     1      10.890  11.880  20.478  0.00  0.00    +0.000 S 
ATOM     26  C   UNL     1      12.320  11.889  19.561  0.00  0.00    +0.000 A 
ATOM     27  C   UNL     1      12.238  12.750  18.494  0.00  0.00    +0.000 A 
ATOM     28  C   UNL     1      10.970  13.434  18.417  0.00  0.00    +0.000 A 
BRANCH  28  29
ATOM     29  C   UNL     1      10.684  14.425  17.311  0.00  0.00    +0.000 C 
ATOM     30  C   UNL     1      11.231  15.811  17.632  0.00  0.00    +0.000 C 
BRANCH  29  31
ATOM     31  O   UNL     1      11.168  13.998  16.043  0.00  0.00    +0.000 OA
ATOM     32  H   UNL     1      11.860  13.334  16.221  0.00  0.00    +0.000 HD
ENDBRANCH  29  31
ENDBRANCH  28  29
ENDBRANCH  14  24
BRANCH   1  34
ATOM     33  C   UNL     1       7.212  14.683  25.731  0.00  0.00    +0.000 C 
ATOM     34  O   UNL     1       7.462  15.980  25.180  0.00  0.00    +0.000 OA
ENDBRANCH   1  34
BRANCH   2  35
ATOM     35  O   UNL     1       9.850  16.692  26.156  0.00  0.00    +0.000 OA
ATOM     36  H   UNL     1       9.669  17.645  26.256  0.00  0.00    +0.000 HD
ENDBRANCH   2  35
TORSDOF 5
ENDMDL
MODEL 8
REMARK VINA RESULT:      -6.2      8.458     10.550
REMARK  Name = 
REMARK  10 active torsions:
REMARK  status: ('A' for Active; 'I' for Inactive)
REMARK    1  A    between atoms: C_1  and  O_2
REMARK    2  A    between atoms: O_2  and  C_3
REMARK    3  A    between atoms: C_4  and  O_5
REMARK    4  A    between atoms: C_17  and  C_18
REMARK    5  A    between atoms: C_22  and  C_23
REMARK    6  A    between atoms: C_23  and  C_24
REMARK    7  A    between atoms: C_23  and  O_25
REMARK    8  A    between atoms: C_27  and  C_28
REMARK    9  A    between atoms: C_30  and  C_31
REMARK   10  A    between atoms: C_30  and  C_32
REMARK                            x       y       z     vdW  Elec       q    Type
REMARK                         _______ _______ _______ _____ _____    ______ ____
ROOT
ATOM      1  C   UNL     1      -0.486  11.012  21.233  0.00  0.00    +0.000 A 
ATOM      2  C   UNL     1      -0.124  10.165  20.168  0.00  0.00    +0.000 A 
ATOM      3  C   UNL     1      -0.648  10.318  18.889  0.00  0.00    +0.000 A 
ATOM      4  C   UNL     1      -1.591  11.309  18.664  0.00  0.00    +0.000 A 
ATOM      5  C   UNL     1      -1.968  12.147  19.715  0.00  0.00    +0.000 A 
ATOM      6  C   UNL     1      -1.364  12.081  20.994  0.00  0.00    +0.000 A 
ATOM      7  C   UNL     1      -1.691  13.180  21.930  0.00  0.00    +0.000 A 
ATOM      8  C   UNL     1      -0.873  13.516  23.016  0.00  0.00    +0.000 A 
ATOM      9  C   UNL     1      -1.321  14.399  23.982  0.00  0.00    +0.000 A 
ATOM     10  C   UNL     1      -2.443  15.179  23.744  0.00  0.00    +0.000 A 
ATOM     11  C   UNL     1      -3.120  15.088  22.501  0.00  0.00    +0.000 A 
ATOM     12  C   UNL     1      -2.849  13.960  21.689  0.00  0.00    +0.000 A 
ATOM     13  C   UNL     1      -3.699  13.478  20.572  0.00  0.00    +0.000 C 
ATOM     14  C   UNL     1      -5.039  13.357  20.679  0.00  0.00    +0.000 C 
ATOM     15  O   UNL     1      -3.010  13.018  19.453  0.00  0.00    +0.000 OA
ATOM     16  C   UNL     1      -3.939  16.272  22.123  0.00  0.00    +0.000 C 
ATOM     17  C   UNL     1      -4.417  16.512  20.717  0.00  0.00    +0.000 C 
ATOM     18  C   UNL     1      -4.037  17.281  23.011  0.00  0.00    +0.000 C 
ATOM     19  C   UNL     1      -3.420  17.320  24.383  0.00  0.00    +0.000 C 
ATOM     20  C   UNL     1      -2.238  18.303  24.406  0.00  0.00    +0.000 C 
ATOM     21  C   UNL     1      -4.475  17.739  25.412  0.00  0.00    +0.000 C 
ATOM     22  N   UNL     1      -2.911  16.005  24.771  0.00  0.00    +0.000 N 
ATOM     23  H   UNL     1      -2.306  16.034  25.584  0.00  0.00    +0.000 HD
ENDROOT
BRANCH  14  24
ATOM     24  C   UNL     1      -5.867  12.852  19.634  0.00  0.00    +0.000 A 
ATOM     25  S   UNL     1      -6.033  11.139  19.487  0.00  0.00    +0.000 S 
ATOM     26  C   UNL     1      -6.998  11.265  18.093  0.00  0.00    +0.000 A 
ATOM     27  C   UNL     1      -7.200  12.572  17.728  0.00  0.00    +0.000 A 
ATOM     28  C   UNL     1      -6.546  13.512  18.605  0.00  0.00    +0.000 A 
BRANCH  28  29
ATOM     29  C   UNL     1      -6.649  15.002  18.371  0.00  0.00    +0.000 C 
ATOM     30  C   UNL     1      -6.944  15.331  16.911  0.00  0.00    +0.000 C 
BRANCH  29  31
ATOM     31  O   UNL     1      -7.611  15.632  19.209  0.00  0.00    +0.000 OA
ATOM     32  H   UNL     1      -7.269  16.526  19.397  0.00  0.00    +0.000 HD
ENDBRANCH  29  31
ENDBRANCH  28  29
ENDBRANCH  14  24
BRANCH   1  34
ATOM     33  C   UNL     1      -0.514   9.846  23.299  0.00  0.00    +0.000 C 
ATOM     34  O   UNL     1       0.162  10.751  22.419  0.00  0.00    +0.000 OA
ENDBRANCH   1  34
BRANCH   2  35
ATOM     35  O   UNL     1       0.776   9.152  20.364  0.00  0.00    +0.000 OA
ATOM     36  H   UNL     1       0.656   8.551  19.604  0.00  0.00    +0.000 HD
ENDBRANCH   2  35
TORSDOF 5
ENDMDL
MODEL 9
REMARK VINA RESULT:      -6.1      1.423      1.951
REMARK  Name = 
REMARK  10 active torsions:
REMARK  status: ('A' for Active; 'I' for Inactive)
REMARK    1  A    between atoms: C_1  and  O_2
REMARK    2  A    between atoms: O_2  and  C_3
REMARK    3  A    between atoms: C_4  and  O_5
REMARK    4  A    between atoms: C_17  and  C_18
REMARK    5  A    between atoms: C_22  and  C_23
REMARK    6  A    between atoms: C_23  and  C_24
REMARK    7  A    between atoms: C_23  and  O_25
REMARK    8  A    between atoms: C_27  and  C_28
REMARK    9  A    between atoms: C_30  and  C_31
REMARK   10  A    between atoms: C_30  and  C_32
REMARK                            x       y       z     vdW  Elec       q    Type
REMARK                         _______ _______ _______ _____ _____    ______ ____
ROOT
ATOM      1  C   UNL     1       9.613  14.347  18.643  0.00  0.00    +0.000 A 
ATOM      2  C   UNL     1       9.928  15.269  17.627  0.00  0.00    +0.000 A 
ATOM      3  C   UNL     1       9.256  16.479  17.488  0.00  0.00    +0.000 A 
ATOM      4  C   UNL     1       8.211  16.769  18.352  0.00  0.00    +0.000 A 
ATOM      5  C   UNL     1       7.880  15.856  19.356  0.00  0.00    +0.000 A 
ATOM      6  C   UNL     1       8.623  14.674  19.585  0.00  0.00    +0.000 A 
ATOM      7  C   UNL     1       8.306  13.929  20.824  0.00  0.00    +0.000 A 
ATOM      8  C   UNL     1       9.205  13.038  21.421  0.00  0.00    +0.000 A 
ATOM      9  C   UNL     1       8.790  12.208  22.447  0.00  0.00    +0.000 A 
ATOM     10  C   UNL     1       7.585  12.447  23.091  0.00  0.00    +0.000 A 
ATOM     11  C   UNL     1       6.786  13.556  22.711  0.00  0.00    +0.000 A 
ATOM     12  C   UNL     1       7.065  14.168  21.464  0.00  0.00    +0.000 A 
ATOM     13  C   UNL     1       6.143  15.058  20.716  0.00  0.00    +0.000 C 
ATOM     14  C   UNL     1       4.839  14.764  20.533  0.00  0.00    +0.000 C 
ATOM     15  O   UNL     1       6.742  16.147  20.088  0.00  0.00    +0.000 OA
ATOM     16  C   UNL     1       5.831  14.047  23.741  0.00  0.00    +0.000 C 
ATOM     17  C   UNL     1       5.183  15.402  23.666  0.00  0.00    +0.000 C 
ATOM     18  C   UNL     1       5.743  13.361  24.898  0.00  0.00    +0.000 C 
ATOM     19  C   UNL     1       6.500  12.109  25.248  0.00  0.00    +0.000 C 
ATOM     20  C   UNL     1       7.587  12.421  26.290  0.00  0.00    +0.000 C 
ATOM     21  C   UNL     1       5.533  11.055  25.794  0.00  0.00    +0.000 C 
ATOM     22  N   UNL     1       7.163  11.546  24.072  0.00  0.00    +0.000 N 
ATOM     23  H   UNL     1       7.848  10.835  24.301  0.00  0.00    +0.000 HD
ENDROOT
BRANCH  14  24
ATOM     24  C   UNL     1       3.948  15.583  19.778  0.00  0.00    +0.000 A 
ATOM     25  S   UNL     1       3.887  15.352  18.068  0.00  0.00    +0.000 S 
ATOM     26  C   UNL     1       2.783  16.625  17.847  0.00  0.00    +0.000 A 
ATOM     27  C   UNL     1       2.456  17.229  19.036  0.00  0.00    +0.000 A 
ATOM     28  C   UNL     1       3.127  16.644  20.170  0.00  0.00    +0.000 A 
BRANCH  28  29
ATOM     29  C   UNL     1       2.898  17.170  21.570  0.00  0.00    +0.000 C 
ATOM     30  C   UNL     1       3.480  18.567  21.756  0.00  0.00    +0.000 C 
BRANCH  29  31
ATOM     31  O   UNL     1       1.527  17.166  21.948  0.00  0.00    +0.000 OA
ATOM     32  H   UNL     1       1.183  16.280  21.727  0.00  0.00    +0.000 HD
ENDBRANCH  29  31
ENDBRANCH  28  29
ENDBRANCH  14  24
BRANCH   1  34
ATOM     33  C   UNL     1       9.870  12.082  17.987  0.00  0.00    +0.000 C 
ATOM     34  O   UNL     1      10.406  13.223  18.665  0.00  0.00    +0.000 OA
ENDBRANCH   1  34
BRANCH   2  35
ATOM     35  O   UNL     1      10.929  14.999  16.733  0.00  0.00    +0.000 OA
ATOM     36  H   UNL     1      10.592  14.268  16.182  0.00  0.00    +0.000 HD
ENDBRANCH   2  35
TORSDOF 5
ENDMDL
