MODEL 1
REMARK VINA RESULT:      -4.3      0.000      0.000
REMARK  Name = 
REMARK  2 active torsions:
REMARK  status: ('A' for Active; 'I' for Inactive)
REMARK    1  A    between atoms: N_1  and  C_2
REMARK    2  A    between atoms: C_6  and  O_7
REMARK                            x       y       z     vdW  Elec       q    Type
REMARK                         _______ _______ _______ _____ _____    ______ ____
ROOT
ATOM      1  C   UNL     1       7.912   5.569  19.092  0.00  0.00    +0.000 C 
ATOM      2  C   UNL     1       8.064   7.012  18.614  0.00  0.00    +0.000 C 
ATOM      3  C   UNL     1       7.323   7.060  17.263  0.00  0.00    +0.000 C 
ATOM      4  C   UNL     1       6.564   5.727  17.172  0.00  0.00    +0.000 C 
ATOM      5  C   UNL     1       6.486   5.257  18.620  0.00  0.00    +0.000 C 
ENDROOT
BRANCH   1   6
ATOM      6  N   UNL     1       8.104   5.429  20.535  0.00  0.00    +0.000 NA
ATOM      7  H   UNL     1       8.362   4.446  20.776  0.00  0.00    +0.000 HD
ATOM      8  H   UNL     1       8.881   6.057  20.840  0.00  0.00    +0.000 HD
ENDBRANCH   1   6
BRANCH   5   9
ATOM      9  O   UNL     1       6.129   3.903  18.744  0.00  0.00    +0.000 OA
ATOM     10  H   UNL     1       6.500   3.416  17.963  0.00  0.00    +0.000 HD
ENDBRANCH   5   9
TORSDOF 2
ENDMDL
MODEL 2
REMARK VINA RESULT:      -4.3      1.649      2.256
REMARK  Name = 
REMARK  2 active torsions:
REMARK  status: ('A' for Active; 'I' for Inactive)
REMARK    1  A    between atoms: N_1  and  C_2
REMARK    2  A    between atoms: C_6  and  O_7
REMARK                            x       y       z     vdW  Elec       q    Type
REMARK                         _______ _______ _______ _____ _____    ______ ____
ROOT
ATOM      1  C   UNL     1       6.363   5.340  18.795  0.00  0.00    +0.000 C 
ATOM      2  C   UNL     1       6.378   5.763  17.328  0.00  0.00    +0.000 C 
ATOM      3  C   UNL     1       7.350   6.959  17.272  0.00  0.00    +0.000 C 
ATOM      4  C   UNL     1       8.039   6.983  18.646  0.00  0.00    +0.000 C 
ATOM      5  C   UNL     1       7.831   5.570  19.177  0.00  0.00    +0.000 C 
ENDROOT
BRANCH   1   6
ATOM      6  N   UNL     1       5.910   3.962  18.980  0.00  0.00    +0.000 NA
ATOM      7  H   UNL     1       5.572   3.562  18.076  0.00  0.00    +0.000 HD
ATOM      8  H   UNL     1       6.710   3.380  19.319  0.00  0.00    +0.000 HD
ENDBRANCH   1   6
BRANCH   5   9
ATOM      9  O   UNL     1       8.085   5.453  20.555  0.00  0.00    +0.000 OA
ATOM     10  H   UNL     1       9.066   5.515  20.691  0.00  0.00    +0.000 HD
ENDBRANCH   5   9
TORSDOF 2
ENDMDL
MODEL 3
REMARK VINA RESULT:      -4.2      5.316      6.141
REMARK  Name = 
REMARK  2 active torsions:
REMARK  status: ('A' for Active; 'I' for Inactive)
REMARK    1  A    between atoms: N_1  and  C_2
REMARK    2  A    between atoms: C_6  and  O_7
REMARK                            x       y       z     vdW  Elec       q    Type
REMARK                         _______ _______ _______ _____ _____    ______ ____
ROOT
ATOM      1  C   UNL     1       3.381   2.710  19.805  0.00  0.00    +0.000 C 
ATOM      2  C   UNL     1       2.758   2.826  21.194  0.00  0.00    +0.000 C 
ATOM      3  C   UNL     1       1.249   3.006  20.937  0.00  0.00    +0.000 C 
ATOM      4  C   UNL     1       1.058   2.714  19.440  0.00  0.00    +0.000 C 
ATOM      5  C   UNL     1       2.299   1.910  19.069  0.00  0.00    +0.000 C 
ENDROOT
BRANCH   1   6
ATOM      6  N   UNL     1       4.690   2.059  19.825  0.00  0.00    +0.000 NA
ATOM      7  H   UNL     1       5.099   2.087  20.787  0.00  0.00    +0.000 HD
ATOM      8  H   UNL     1       4.580   1.058  19.543  0.00  0.00    +0.000 HD
ENDBRANCH   1   6
BRANCH   5   9
ATOM      9  O   UNL     1       2.504   1.817  17.682  0.00  0.00    +0.000 OA
ATOM     10  H   UNL     1       2.848   2.692  17.365  0.00  0.00    +0.000 HD
ENDBRANCH   5   9
TORSDOF 2
ENDMDL
MODEL 4
REMARK VINA RESULT:      -4.1      2.671      3.218
REMARK  Name = 
REMARK  2 active torsions:
REMARK  status: ('A' for Active; 'I' for Inactive)
REMARK    1  A    between atoms: N_1  and  C_2
REMARK    2  A    between atoms: C_6  and  O_7
REMARK                            x       y       z     vdW  Elec       q    Type
REMARK                         _______ _______ _______ _____ _____    ______ ____
ROOT
ATOM      1  C   UNL     1       7.025   4.929  17.170  0.00  0.00    +0.000 C 
ATOM      2  C   UNL     1       5.680   4.460  17.720  0.00  0.00    +0.000 C 
ATOM      3  C   UNL     1       4.634   5.021  16.736  0.00  0.00    +0.000 C 
ATOM      4  C   UNL     1       5.445   5.544  15.541  0.00  0.00    +0.000 C 
ATOM      5  C   UNL     1       6.777   4.812  15.661  0.00  0.00    +0.000 C 
ENDROOT
BRANCH   1   6
ATOM      6  N   UNL     1       8.145   4.121  17.652  0.00  0.00    +0.000 NA
ATOM      7  H   UNL     1       8.479   4.473  18.577  0.00  0.00    +0.000 HD
ATOM      8  H   UNL     1       7.828   3.132  17.772  0.00  0.00    +0.000 HD
ENDBRANCH   1   6
BRANCH   5   9
ATOM      9  O   UNL     1       7.793   5.378  14.872  0.00  0.00    +0.000 OA
ATOM     10  H   UNL     1       8.618   5.423  15.422  0.00  0.00    +0.000 HD
ENDBRANCH   5   9
TORSDOF 2
ENDMDL
MODEL 5
REMARK VINA RESULT:      -4.1      2.015      2.372
REMARK  Name = 
REMARK  2 active torsions:
REMARK  status: ('A' for Active; 'I' for Inactive)
REMARK    1  A    between atoms: N_1  and  C_2
REMARK    2  A    between atoms: C_6  and  O_7
REMARK                            x       y       z     vdW  Elec       q    Type
REMARK                         _______ _______ _______ _____ _____    ______ ____
ROOT
ATOM      1  C   UNL     1       6.051   4.818  18.550  0.00  0.00    +0.000 C 
ATOM      2  C   UNL     1       5.011   5.778  17.977  0.00  0.00    +0.000 C 
ATOM      3  C   UNL     1       5.826   6.806  17.167  0.00  0.00    +0.000 C 
ATOM      4  C   UNL     1       7.248   6.227  17.098  0.00  0.00    +0.000 C 
ATOM      5  C   UNL     1       7.048   4.744  17.387  0.00  0.00    +0.000 C 
ENDROOT
BRANCH   1   6
ATOM      6  N   UNL     1       5.480   3.526  18.926  0.00  0.00    +0.000 NA
ATOM      7  H   UNL     1       5.818   2.775  18.283  0.00  0.00    +0.000 HD
ATOM      8  H   UNL     1       5.782   3.287  19.898  0.00  0.00    +0.000 HD
ENDBRANCH   1   6
BRANCH   5   9
ATOM      9  O   UNL     1       8.244   4.076  17.704  0.00  0.00    +0.000 OA
ATOM     10  H   UNL     1       8.849   4.726  18.146  0.00  0.00    +0.000 HD
ENDBRANCH   5   9
TORSDOF 2
ENDMDL
MODEL 6
REMARK VINA RESULT:      -4.1      2.988      3.597
REMARK  Name = 
REMARK  2 active torsions:
REMARK  status: ('A' for Active; 'I' for Inactive)
REMARK    1  A    between atoms: N_1  and  C_2
REMARK    2  A    between atoms: C_6  and  O_7
REMARK                            x       y       z     vdW  Elec       q    Type
REMARK                         _______ _______ _______ _____ _____    ______ ____
ROOT
ATOM      1  C   UNL     1       6.698   4.844  15.510  0.00  0.00    +0.000 C 
ATOM      2  C   UNL     1       5.394   5.639  15.501  0.00  0.00    +0.000 C 
ATOM      3  C   UNL     1       4.698   5.270  16.826  0.00  0.00    +0.000 C 
ATOM      4  C   UNL     1       5.754   4.503  17.636  0.00  0.00    +0.000 C 
ATOM      5  C   UNL     1       7.072   4.919  16.995  0.00  0.00    +0.000 C 
ENDROOT
BRANCH   1   6
ATOM      6  N   UNL     1       7.708   5.404  14.613  0.00  0.00    +0.000 NA
ATOM      7  H   UNL     1       7.577   5.043  13.641  0.00  0.00    +0.000 HD
ATOM      8  H   UNL     1       7.610   6.445  14.593  0.00  0.00    +0.000 HD
ENDBRANCH   1   6
BRANCH   5   9
ATOM      9  O   UNL     1       8.149   4.089  17.353  0.00  0.00    +0.000 OA
ATOM     10  H   UNL     1       8.986   4.522  17.040  0.00  0.00    +0.000 HD
ENDBRANCH   5   9
TORSDOF 2
ENDMDL
MODEL 7
REMARK VINA RESULT:      -4.1      4.062      4.816
REMARK  Name = 
REMARK  2 active torsions:
REMARK  status: ('A' for Active; 'I' for Inactive)
REMARK    1  A    between atoms: N_1  and  C_2
REMARK    2  A    between atoms: C_6  and  O_7
REMARK                            x       y       z     vdW  Elec       q    Type
REMARK                         _______ _______ _______ _____ _____    ______ ____
ROOT
ATOM      1  C   UNL     1       4.355   3.314  18.165  0.00  0.00    +0.000 C 
ATOM      2  C   UNL     1       3.304   4.418  18.247  0.00  0.00    +0.000 C 
ATOM      3  C   UNL     1       1.993   3.749  17.787  0.00  0.00    +0.000 C 
ATOM      4  C   UNL     1       2.308   2.247  17.726  0.00  0.00    +0.000 C 
ATOM      5  C   UNL     1       3.536   2.099  18.617  0.00  0.00    +0.000 C 
ENDROOT
BRANCH   1   6
ATOM      6  N   UNL     1       5.525   3.585  19.001  0.00  0.00    +0.000 NA
ATOM      7  H   UNL     1       5.848   2.712  19.474  0.00  0.00    +0.000 HD
ATOM      8  H   UNL     1       6.302   3.940  18.399  0.00  0.00    +0.000 HD
ENDBRANCH   1   6
BRANCH   5   9
ATOM      9  O   UNL     1       4.198   0.871  18.448  0.00  0.00    +0.000 OA
ATOM     10  H   UNL     1       4.781   0.946  17.648  0.00  0.00    +0.000 HD
ENDBRANCH   5   9
TORSDOF 2
ENDMDL
MODEL 8
REMARK VINA RESULT:      -4.1      5.637      6.561
REMARK  Name = 
REMARK  2 active torsions:
REMARK  status: ('A' for Active; 'I' for Inactive)
REMARK    1  A    between atoms: N_1  and  C_2
REMARK    2  A    between atoms: C_6  and  O_7
REMARK                            x       y       z     vdW  Elec       q    Type
REMARK                         _______ _______ _______ _____ _____    ______ ____
ROOT
ATOM      1  C   UNL     1       2.085   2.014  19.046  0.00  0.00    +0.000 C 
ATOM      2  C   UNL     1       0.927   2.865  19.563  0.00  0.00    +0.000 C 
ATOM      3  C   UNL     1       1.299   3.189  21.024  0.00  0.00    +0.000 C 
ATOM      4  C   UNL     1       2.760   2.739  21.178  0.00  0.00    +0.000 C 
ATOM      5  C   UNL     1       3.273   2.686  19.744  0.00  0.00    +0.000 C 
ENDROOT
BRANCH   1   6
ATOM      6  N   UNL     1       2.176   2.012  17.586  0.00  0.00    +0.000 NA
ATOM      7  H   UNL     1       1.821   2.914  17.196  0.00  0.00    +0.000 HD
ATOM      8  H   UNL     1       3.177   1.904  17.305  0.00  0.00    +0.000 HD
ENDBRANCH   1   6
BRANCH   5   9
ATOM      9  O   UNL     1       4.483   1.982  19.614  0.00  0.00    +0.000 OA
ATOM     10  H   UNL     1       4.987   2.083  20.463  0.00  0.00    +0.000 HD
ENDBRANCH   5   9
TORSDOF 2
ENDMDL
MODEL 9
REMARK VINA RESULT:      -4.1      4.385      5.243
REMARK  Name = 
REMARK  2 active torsions:
REMARK  status: ('A' for Active; 'I' for Inactive)
REMARK    1  A    between atoms: N_1  and  C_2
REMARK    2  A    between atoms: C_6  and  O_7
REMARK                            x       y       z     vdW  Elec       q    Type
REMARK                         _______ _______ _______ _____ _____    ______ ____
ROOT
ATOM      1  C   UNL     1       3.429   2.129  18.646  0.00  0.00    +0.000 C 
ATOM      2  C   UNL     1       2.183   2.383  17.801  0.00  0.00    +0.000 C 
ATOM      3  C   UNL     1       2.022   3.917  17.787  0.00  0.00    +0.000 C 
ATOM      4  C   UNL     1       3.324   4.464  18.392  0.00  0.00    +0.000 C 
ATOM      5  C   UNL     1       4.309   3.313  18.227  0.00  0.00    +0.000 C 
ENDROOT
BRANCH   1   6
ATOM      6  N   UNL     1       4.029   0.821  18.387  0.00  0.00    +0.000 NA
ATOM      7  H   UNL     1       4.177   0.302  19.282  0.00  0.00    +0.000 HD
ATOM      8  H   UNL     1       3.385   0.261  17.784  0.00  0.00    +0.000 HD
ENDBRANCH   1   6
BRANCH   5   9
ATOM      9  O   UNL     1       5.471   3.462  19.006  0.00  0.00    +0.000 OA
ATOM     10  H   UNL     1       5.979   4.237  18.651  0.00  0.00    +0.000 HD
ENDBRANCH   5   9
TORSDOF 2
ENDMDL
