MODEL 1
REMARK VINA RESULT:      -6.0      0.000      0.000
REMARK  Name = 
REMARK  17 active torsions:
REMARK  status: ('A' for Active; 'I' for Inactive)
REMARK    1  A    between atoms: C_1  and  C_2
REMARK    2  A    between atoms: C_2  and  C_3
REMARK    3  A    between atoms: C_2  and  C_4
REMARK    4  A    between atoms: C_2  and  C_14
REMARK    5  A    between atoms: C_4  and  CE_5
REMARK    6  A    between atoms: CE_5  and  SD_6
REMARK    7  A    between atoms: SD_6  and  CG_7
REMARK    8  A    between atoms: CG_7  and  CB_8
REMARK    9  A    between atoms: CB_8  and  CA_9
REMARK   10  A    between atoms: CA_9  and  N_10
REMARK   11  A    between atoms: CA_9  and  C_11
REMARK   12  A    between atoms: C_11  and  OXT_13
REMARK   13  A    between atoms: C_14  and  C_15
REMARK   14  A    between atoms: C_15  and  CA_16
REMARK   15  A    between atoms: CA_16  and  N_17
REMARK   16  A    between atoms: CA_16  and  C_18
REMARK   17  A    between atoms: C_18  and  OXT_20
REMARK                            x       y       z     vdW  Elec       q    Type
REMARK                         _______ _______ _______ _____ _____    ______ ____
ROOT
ATOM      1  C   UNL     1       2.360   6.767  18.051  0.00  0.00    +0.000 C 
ATOM      2  C   UNL     1       2.428   5.234  18.232  0.00  0.00    +0.000 C 
ATOM      3  C   UNL     1       1.504   4.579  17.191  0.00  0.00    +0.000 C 
ENDROOT
BRANCH   2   4
ATOM      4  C   UNL     1       3.891   4.744  18.061  0.00  0.00    +0.000 C 
BRANCH   4   5
ATOM      5  CE  UNL     1       4.227   4.124  16.702  0.00  0.00    +0.000 C 
BRANCH   5   6
ATOM      6  SD  UNL     1       5.344   5.259  15.826  0.00  0.00    +0.000 S 
BRANCH   6   7
ATOM      7  CG  UNL     1       5.760   6.386  17.184  0.00  0.00    +0.000 C 
BRANCH   7   8
ATOM      8  CB  UNL     1       7.278   6.508  17.343  0.00  0.00    +0.000 C 
BRANCH   8   9
ATOM      9  CA  UNL     1       7.967   5.510  18.287  0.00  0.00    +0.000 C 
BRANCH   9  10
ATOM     10  N   UNL     1       8.046   4.170  17.652  0.00  0.00    +0.000 NA
ATOM     11  H1  UNL     1       7.280   4.098  16.976  0.00  0.00    +0.000 HD
ATOM     12  H2  UNL     1       7.765   3.486  18.364  0.00  0.00    +0.000 HD
ENDBRANCH   9  10
BRANCH   9  13
ATOM     13  C   UNL     1       7.376   5.379  19.709  0.00  0.00    +0.000 C 
ATOM     14  O   UNL     1       6.185   5.195  19.928  0.00  0.00    +0.000 OA
BRANCH  13  15
ATOM     15  OXT UNL     1       8.292   5.387  20.703  0.00  0.00    +0.000 OA
ATOM     16  HXT UNL     1       8.947   4.667  20.659  0.00  0.00    +0.000 HD
ENDBRANCH  13  15
ENDBRANCH   9  13
ENDBRANCH   8   9
ENDBRANCH   7   8
ENDBRANCH   6   7
ENDBRANCH   5   6
ENDBRANCH   4   5
ENDBRANCH   2   4
BRANCH   2  17
ATOM     17  C   UNL     1       1.926   4.909  19.677  0.00  0.00    +0.000 C 
BRANCH  17  18
ATOM     18  C   UNL     1       0.900   3.766  19.786  0.00  0.00    +0.000 C 
BRANCH  18  19
ATOM     19  CA  UNL     1       1.512   2.417  20.188  0.00  0.00    +0.000 C 
BRANCH  19  20
ATOM     20  N   UNL     1       2.083   1.674  19.025  0.00  0.00    +0.000 NA
ATOM     21  H1  UNL     1       1.462   0.883  18.819  0.00  0.00    +0.000 HD
ATOM     22  H2  UNL     1       2.956   1.233  19.328  0.00  0.00    +0.000 HD
ENDBRANCH  19  20
BRANCH  19  23
ATOM     23  C   UNL     1       2.642   2.619  21.223  0.00  0.00    +0.000 C 
ATOM     24  O   UNL     1       2.503   2.973  22.379  0.00  0.00    +0.000 OA
BRANCH  23  25
ATOM     25  OXT UNL     1       3.853   2.318  20.674  0.00  0.00    +0.000 OA
ATOM     26  HXT UNL     1       4.453   3.062  20.928  0.00  0.00    +0.000 HD
ENDBRANCH  23  25
ENDBRANCH  19  23
ENDBRANCH  18  19
ENDBRANCH  17  18
ENDBRANCH   2  17
TORSDOF 15
ENDMDL
MODEL 2
REMARK VINA RESULT:      -5.9      2.418      3.202
REMARK  Name = 
REMARK  17 active torsions:
REMARK  status: ('A' for Active; 'I' for Inactive)
REMARK    1  A    between atoms: C_1  and  C_2
REMARK    2  A    between atoms: C_2  and  C_3
REMARK    3  A    between atoms: C_2  and  C_4
REMARK    4  A    between atoms: C_2  and  C_14
REMARK    5  A    between atoms: C_4  and  CE_5
REMARK    6  A    between atoms: CE_5  and  SD_6
REMARK    7  A    between atoms: SD_6  and  CG_7
REMARK    8  A    between atoms: CG_7  and  CB_8
REMARK    9  A    between atoms: CB_8  and  CA_9
REMARK   10  A    between atoms: CA_9  and  N_10
REMARK   11  A    between atoms: CA_9  and  C_11
REMARK   12  A    between atoms: C_11  and  OXT_13
REMARK   13  A    between atoms: C_14  and  C_15
REMARK   14  A    between atoms: C_15  and  CA_16
REMARK   15  A    between atoms: CA_16  and  N_17
REMARK   16  A    between atoms: CA_16  and  C_18
REMARK   17  A    between atoms: C_18  and  OXT_20
REMARK                            x       y       z     vdW  Elec       q    Type
REMARK                         _______ _______ _______ _____ _____    ______ ____
ROOT
ATOM      1  C   UNL     1       1.479   6.303  20.746  0.00  0.00    +0.000 C 
ATOM      2  C   UNL     1       1.840   4.961  20.070  0.00  0.00    +0.000 C 
ATOM      3  C   UNL     1       0.618   4.030  20.152  0.00  0.00    +0.000 C 
ENDROOT
BRANCH   2   4
ATOM      4  C   UNL     1       2.253   5.205  18.594  0.00  0.00    +0.000 C 
BRANCH   4   5
ATOM      5  CE  UNL     1       2.511   6.665  18.211  0.00  0.00    +0.000 C 
BRANCH   5   6
ATOM      6  SD  UNL     1       4.164   6.768  17.462  0.00  0.00    +0.000 S 
BRANCH   6   7
ATOM      7  CG  UNL     1       4.652   5.024  17.560  0.00  0.00    +0.000 C 
BRANCH   7   8
ATOM      8  CB  UNL     1       4.739   4.405  16.162  0.00  0.00    +0.000 C 
BRANCH   8   9
ATOM      9  CA  UNL     1       6.002   4.706  15.339  0.00  0.00    +0.000 C 
BRANCH   9  10
ATOM     10  N   UNL     1       6.338   3.552  14.469  0.00  0.00    +0.000 NA
ATOM     11  H1  UNL     1       7.173   3.102  14.854  0.00  0.00    +0.000 HD
ATOM     12  H2  UNL     1       6.693   3.938  13.586  0.00  0.00    +0.000 HD
ENDBRANCH   9  10
BRANCH   9  13
ATOM     13  C   UNL     1       7.255   5.146  16.130  0.00  0.00    +0.000 C 
ATOM     14  O   UNL     1       7.604   6.316  16.243  0.00  0.00    +0.000 OA
BRANCH  13  15
ATOM     15  OXT UNL     1       7.894   4.146  16.777  0.00  0.00    +0.000 OA
ATOM     16  HXT UNL     1       7.781   4.150  17.744  0.00  0.00    +0.000 HD
ENDBRANCH  13  15
ENDBRANCH   9  13
ENDBRANCH   8   9
ENDBRANCH   7   8
ENDBRANCH   6   7
ENDBRANCH   5   6
ENDBRANCH   4   5
ENDBRANCH   2   4
BRANCH   2  17
ATOM     17  C   UNL     1       3.041   4.345  20.860  0.00  0.00    +0.000 C 
BRANCH  17  18
ATOM     18  C   UNL     1       3.169   2.812  20.790  0.00  0.00    +0.000 C 
BRANCH  18  19
ATOM     19  CA  UNL     1       4.191   2.320  19.756  0.00  0.00    +0.000 C 
BRANCH  19  20
ATOM     20  N   UNL     1       5.193   1.379  20.338  0.00  0.00    +0.000 NA
ATOM     21  H1  UNL     1       5.935   1.938  20.776  0.00  0.00    +0.000 HD
ATOM     22  H2  UNL     1       5.664   0.899  19.566  0.00  0.00    +0.000 HD
ENDBRANCH  19  20
BRANCH  19  23
ATOM     23  C   UNL     1       3.480   1.594  18.592  0.00  0.00    +0.000 C 
ATOM     24  O   UNL     1       3.993   1.231  17.550  0.00  0.00    +0.000 OA
BRANCH  23  25
ATOM     25  OXT UNL     1       2.168   1.378  18.893  0.00  0.00    +0.000 OA
ATOM     26  HXT UNL     1       1.686   2.184  18.579  0.00  0.00    +0.000 HD
ENDBRANCH  23  25
ENDBRANCH  19  23
ENDBRANCH  18  19
ENDBRANCH  17  18
ENDBRANCH   2  17
TORSDOF 15
ENDMDL
MODEL 3
REMARK VINA RESULT:      -5.9      3.434      6.416
REMARK  Name = 
REMARK  17 active torsions:
REMARK  status: ('A' for Active; 'I' for Inactive)
REMARK    1  A    between atoms: C_1  and  C_2
REMARK    2  A    between atoms: C_2  and  C_3
REMARK    3  A    between atoms: C_2  and  C_4
REMARK    4  A    between atoms: C_2  and  C_14
REMARK    5  A    between atoms: C_4  and  CE_5
REMARK    6  A    between atoms: CE_5  and  SD_6
REMARK    7  A    between atoms: SD_6  and  CG_7
REMARK    8  A    between atoms: CG_7  and  CB_8
REMARK    9  A    between atoms: CB_8  and  CA_9
REMARK   10  A    between atoms: CA_9  and  N_10
REMARK   11  A    between atoms: CA_9  and  C_11
REMARK   12  A    between atoms: C_11  and  OXT_13
REMARK   13  A    between atoms: C_14  and  C_15
REMARK   14  A    between atoms: C_15  and  CA_16
REMARK   15  A    between atoms: CA_16  and  N_17
REMARK   16  A    between atoms: CA_16  and  C_18
REMARK   17  A    between atoms: C_18  and  OXT_20
REMARK                            x       y       z     vdW  Elec       q    Type
REMARK                         _______ _______ _______ _____ _____    ______ ____
ROOT
ATOM      1  C   UNL     1       4.964   6.855  16.246  0.00  0.00    +0.000 C 
ATOM      2  C   UNL     1       5.425   5.603  17.026  0.00  0.00    +0.000 C 
ATOM      3  C   UNL     1       6.913   5.770  17.380  0.00  0.00    +0.000 C 
ENDROOT
BRANCH   2   4
ATOM      4  C   UNL     1       4.566   5.431  18.308  0.00  0.00    +0.000 C 
BRANCH   4   5
ATOM      5  CE  UNL     1       3.056   5.612  18.123  0.00  0.00    +0.000 C 
BRANCH   5   6
ATOM      6  SD  UNL     1       2.414   6.503  19.572  0.00  0.00    +0.000 S 
BRANCH   6   7
ATOM      7  CG  UNL     1       2.228   5.116  20.724  0.00  0.00    +0.000 C 
BRANCH   7   8
ATOM      8  CB  UNL     1       1.734   3.864  19.994  0.00  0.00    +0.000 C 
BRANCH   8   9
ATOM      9  CA  UNL     1       2.442   2.538  20.318  0.00  0.00    +0.000 C 
BRANCH   9  10
ATOM     10  N   UNL     1       2.861   2.511  21.741  0.00  0.00    +0.000 NA
ATOM     11  H1  UNL     1       2.643   3.424  22.150  0.00  0.00    +0.000 HD
ATOM     12  H2  UNL     1       3.887   2.515  21.751  0.00  0.00    +0.000 HD
ENDBRANCH   9  10
BRANCH   9  13
ATOM     13  C   UNL     1       3.636   2.152  19.415  0.00  0.00    +0.000 C 
ATOM     14  O   UNL     1       3.522   1.892  18.223  0.00  0.00    +0.000 OA
BRANCH  13  15
ATOM     15  OXT UNL     1       4.844   2.216  20.019  0.00  0.00    +0.000 OA
ATOM     16  HXT UNL     1       4.831   2.033  20.976  0.00  0.00    +0.000 HD
ENDBRANCH  13  15
ENDBRANCH   9  13
ENDBRANCH   8   9
ENDBRANCH   7   8
ENDBRANCH   6   7
ENDBRANCH   5   6
ENDBRANCH   4   5
ENDBRANCH   2   4
BRANCH   2  17
ATOM     17  C   UNL     1       5.230   4.367  16.089  0.00  0.00    +0.000 C 
BRANCH  17  18
ATOM     18  C   UNL     1       6.465   3.947  15.272  0.00  0.00    +0.000 C 
BRANCH  18  19
ATOM     19  CA  UNL     1       6.684   4.783  14.002  0.00  0.00    +0.000 C 
BRANCH  19  20
ATOM     20  N   UNL     1       7.969   5.543  14.028  0.00  0.00    +0.000 NA
ATOM     21  H1  UNL     1       8.326   5.529  14.990  0.00  0.00    +0.000 HD
ATOM     22  H2  UNL     1       7.757   6.530  13.854  0.00  0.00    +0.000 HD
ENDBRANCH  19  20
BRANCH  19  23
ATOM     23  C   UNL     1       6.693   3.877  12.750  0.00  0.00    +0.000 C 
ATOM     24  O   UNL     1       7.242   4.120  11.692  0.00  0.00    +0.000 OA
BRANCH  23  25
ATOM     25  OXT UNL     1       6.009   2.722  12.990  0.00  0.00    +0.000 OA
ATOM     26  HXT UNL     1       5.068   2.994  13.129  0.00  0.00    +0.000 HD
ENDBRANCH  23  25
ENDBRANCH  19  23
ENDBRANCH  18  19
ENDBRANCH  17  18
ENDBRANCH   2  17
TORSDOF 15
ENDMDL
MODEL 4
REMARK VINA RESULT:      -5.7      3.448      6.904
REMARK  Name = 
REMARK  17 active torsions:
REMARK  status: ('A' for Active; 'I' for Inactive)
REMARK    1  A    between atoms: C_1  and  C_2
REMARK    2  A    between atoms: C_2  and  C_3
REMARK    3  A    between atoms: C_2  and  C_4
REMARK    4  A    between atoms: C_2  and  C_14
REMARK    5  A    between atoms: C_4  and  CE_5
REMARK    6  A    between atoms: CE_5  and  SD_6
REMARK    7  A    between atoms: SD_6  and  CG_7
REMARK    8  A    between atoms: CG_7  and  CB_8
REMARK    9  A    between atoms: CB_8  and  CA_9
REMARK   10  A    between atoms: CA_9  and  N_10
REMARK   11  A    between atoms: CA_9  and  C_11
REMARK   12  A    between atoms: C_11  and  OXT_13
REMARK   13  A    between atoms: C_14  and  C_15
REMARK   14  A    between atoms: C_15  and  CA_16
REMARK   15  A    between atoms: CA_16  and  N_17
REMARK   16  A    between atoms: CA_16  and  C_18
REMARK   17  A    between atoms: C_18  and  OXT_20
REMARK                            x       y       z     vdW  Elec       q    Type
REMARK                         _______ _______ _______ _____ _____    ______ ____
ROOT
ATOM      1  C   UNL     1       7.421   7.343  17.434  0.00  0.00    +0.000 C 
ATOM      2  C   UNL     1       6.626   6.061  17.768  0.00  0.00    +0.000 C 
ATOM      3  C   UNL     1       7.053   5.572  19.163  0.00  0.00    +0.000 C 
ENDROOT
BRANCH   2   4
ATOM      4  C   UNL     1       5.102   6.356  17.727  0.00  0.00    +0.000 C 
BRANCH   4   5
ATOM      5  CE  UNL     1       4.192   5.127  17.645  0.00  0.00    +0.000 C 
BRANCH   5   6
ATOM      6  SD  UNL     1       2.504   5.647  18.075  0.00  0.00    +0.000 S 
BRANCH   6   7
ATOM      7  CG  UNL     1       2.624   5.608  19.884  0.00  0.00    +0.000 C 
BRANCH   7   8
ATOM      8  CB  UNL     1       2.663   4.166  20.395  0.00  0.00    +0.000 C 
BRANCH   8   9
ATOM      9  CA  UNL     1       1.357   3.358  20.315  0.00  0.00    +0.000 C 
BRANCH   9  10
ATOM     10  N   UNL     1       1.103   2.659  21.600  0.00  0.00    +0.000 NA
ATOM     11  H1  UNL     1       0.378   1.956  21.436  0.00  0.00    +0.000 HD
ATOM     12  H2  UNL     1       0.617   3.326  22.210  0.00  0.00    +0.000 HD
ENDBRANCH   9  10
BRANCH   9  13
ATOM     13  C   UNL     1       1.233   2.357  19.144  0.00  0.00    +0.000 C 
ATOM     14  O   UNL     1       0.215   2.229  18.472  0.00  0.00    +0.000 OA
BRANCH  13  15
ATOM     15  OXT UNL     1       2.372   1.692  18.846  0.00  0.00    +0.000 OA
ATOM     16  HXT UNL     1       3.070   1.758  19.521  0.00  0.00    +0.000 HD
ENDBRANCH  13  15
ENDBRANCH   9  13
ENDBRANCH   8   9
ENDBRANCH   7   8
ENDBRANCH   6   7
ENDBRANCH   5   6
ENDBRANCH   4   5
ENDBRANCH   2   4
BRANCH   2  17
ATOM     17  C   UNL     1       6.987   4.989  16.689  0.00  0.00    +0.000 C 
BRANCH  17  18
ATOM     18  C   UNL     1       6.573   5.329  15.246  0.00  0.00    +0.000 C 
BRANCH  18  19
ATOM     19  CA  UNL     1       7.090   4.333  14.199  0.00  0.00    +0.000 C 
BRANCH  19  20
ATOM     20  N   UNL     1       6.001   3.499  13.609  0.00  0.00    +0.000 NA
ATOM     21  H1  UNL     1       5.971   2.609  14.121  0.00  0.00    +0.000 HD
ATOM     22  H2  UNL     1       6.282   3.234  12.661  0.00  0.00    +0.000 HD
ENDBRANCH  19  20
BRANCH  19  23
ATOM     23  C   UNL     1       7.797   5.076  13.043  0.00  0.00    +0.000 C 
ATOM     24  O   UNL     1       8.621   5.964  13.157  0.00  0.00    +0.000 OA
BRANCH  23  25
ATOM     25  OXT UNL     1       7.391   4.582  11.838  0.00  0.00    +0.000 OA
ATOM     26  HXT UNL     1       8.184   4.638  11.248  0.00  0.00    +0.000 HD
ENDBRANCH  23  25
ENDBRANCH  19  23
ENDBRANCH  18  19
ENDBRANCH  17  18
ENDBRANCH   2  17
TORSDOF 15
ENDMDL
MODEL 5
REMARK VINA RESULT:      -5.7      3.447      6.831
REMARK  Name = 
REMARK  17 active torsions:
REMARK  status: ('A' for Active; 'I' for Inactive)
REMARK    1  A    between atoms: C_1  and  C_2
REMARK    2  A    between atoms: C_2  and  C_3
REMARK    3  A    between atoms: C_2  and  C_4
REMARK    4  A    between atoms: C_2  and  C_14
REMARK    5  A    between atoms: C_4  and  CE_5
REMARK    6  A    between atoms: CE_5  and  SD_6
REMARK    7  A    between atoms: SD_6  and  CG_7
REMARK    8  A    between atoms: CG_7  and  CB_8
REMARK    9  A    between atoms: CB_8  and  CA_9
REMARK   10  A    between atoms: CA_9  and  N_10
REMARK   11  A    between atoms: CA_9  and  C_11
REMARK   12  A    between atoms: C_11  and  OXT_13
REMARK   13  A    between atoms: C_14  and  C_15
REMARK   14  A    between atoms: C_15  and  CA_16
REMARK   15  A    between atoms: CA_16  and  N_17
REMARK   16  A    between atoms: CA_16  and  C_18
REMARK   17  A    between atoms: C_18  and  OXT_20
REMARK                            x       y       z     vdW  Elec       q    Type
REMARK                         _______ _______ _______ _____ _____    ______ ____
ROOT
ATOM      1  C   UNL     1       6.320   6.880  17.270  0.00  0.00    +0.000 C 
ATOM      2  C   UNL     1       6.265   5.478  17.919  0.00  0.00    +0.000 C 
ATOM      3  C   UNL     1       6.950   5.552  19.295  0.00  0.00    +0.000 C 
ENDROOT
BRANCH   2   4
ATOM      4  C   UNL     1       4.790   5.016  18.059  0.00  0.00    +0.000 C 
BRANCH   4   5
ATOM      5  CE  UNL     1       4.153   5.240  19.433  0.00  0.00    +0.000 C 
BRANCH   5   6
ATOM      6  SD  UNL     1       2.810   6.451  19.241  0.00  0.00    +0.000 S 
BRANCH   6   7
ATOM      7  CG  UNL     1       1.649   5.818  20.482  0.00  0.00    +0.000 C 
BRANCH   7   8
ATOM      8  CB  UNL     1       2.186   4.537  21.125  0.00  0.00    +0.000 C 
BRANCH   8   9
ATOM      9  CA  UNL     1       1.342   3.262  20.959  0.00  0.00    +0.000 C 
BRANCH   9  10
ATOM     10  N   UNL     1       1.611   2.318  22.072  0.00  0.00    +0.000 NA
ATOM     11  H1  UNL     1       2.596   2.412  22.332  0.00  0.00    +0.000 HD
ATOM     12  H2  UNL     1       1.587   1.372  21.673  0.00  0.00    +0.000 HD
ENDBRANCH   9  10
BRANCH   9  13
ATOM     13  C   UNL     1       1.462   2.524  19.607  0.00  0.00    +0.000 C 
ATOM     14  O   UNL     1       2.505   2.019  19.205  0.00  0.00    +0.000 OA
BRANCH  13  15
ATOM     15  OXT UNL     1       0.298   2.387  18.933  0.00  0.00    +0.000 OA
ATOM     16  HXT UNL     1       0.340   1.791  18.164  0.00  0.00    +0.000 HD
ENDBRANCH  13  15
ENDBRANCH   9  13
ENDBRANCH   8   9
ENDBRANCH   7   8
ENDBRANCH   6   7
ENDBRANCH   5   6
ENDBRANCH   4   5
ENDBRANCH   2   4
BRANCH   2  17
ATOM     17  C   UNL     1       7.041   4.495  16.983  0.00  0.00    +0.000 C 
BRANCH  17  18
ATOM     18  C   UNL     1       7.372   5.031  15.579  0.00  0.00    +0.000 C 
BRANCH  18  19
ATOM     19  CA  UNL     1       6.699   4.252  14.441  0.00  0.00    +0.000 C 
BRANCH  19  20
ATOM     20  N   UNL     1       5.218   4.442  14.410  0.00  0.00    +0.000 NA
ATOM     21  H1  UNL     1       5.020   5.307  13.895  0.00  0.00    +0.000 HD
ATOM     22  H2  UNL     1       4.904   4.641  15.364  0.00  0.00    +0.000 HD
ENDBRANCH  19  20
BRANCH  19  23
ATOM     23  C   UNL     1       7.262   4.693  13.072  0.00  0.00    +0.000 C 
ATOM     24  O   UNL     1       8.031   5.616  12.874  0.00  0.00    +0.000 OA
BRANCH  23  25
ATOM     25  OXT UNL     1       6.800   3.881  12.080  0.00  0.00    +0.000 OA
ATOM     26  HXT UNL     1       7.330   4.113  11.276  0.00  0.00    +0.000 HD
ENDBRANCH  23  25
ENDBRANCH  19  23
ENDBRANCH  18  19
ENDBRANCH  17  18
ENDBRANCH   2  17
TORSDOF 15
ENDMDL
MODEL 6
REMARK VINA RESULT:      -5.7      3.034      3.475
REMARK  Name = 
REMARK  17 active torsions:
REMARK  status: ('A' for Active; 'I' for Inactive)
REMARK    1  A    between atoms: C_1  and  C_2
REMARK    2  A    between atoms: C_2  and  C_3
REMARK    3  A    between atoms: C_2  and  C_4
REMARK    4  A    between atoms: C_2  and  C_14
REMARK    5  A    between atoms: C_4  and  CE_5
REMARK    6  A    between atoms: CE_5  and  SD_6
REMARK    7  A    between atoms: SD_6  and  CG_7
REMARK    8  A    between atoms: CG_7  and  CB_8
REMARK    9  A    between atoms: CB_8  and  CA_9
REMARK   10  A    between atoms: CA_9  and  N_10
REMARK   11  A    between atoms: CA_9  and  C_11
REMARK   12  A    between atoms: C_11  and  OXT_13
REMARK   13  A    between atoms: C_14  and  C_15
REMARK   14  A    between atoms: C_15  and  CA_16
REMARK   15  A    between atoms: CA_16  and  N_17
REMARK   16  A    between atoms: CA_16  and  C_18
REMARK   17  A    between atoms: C_18  and  OXT_20
REMARK                            x       y       z     vdW  Elec       q    Type
REMARK                         _______ _______ _______ _____ _____    ______ ____
ROOT
ATOM      1  C   UNL     1       2.877   6.996  18.121  0.00  0.00    +0.000 C 
ATOM      2  C   UNL     1       3.234   5.542  18.506  0.00  0.00    +0.000 C 
ATOM      3  C   UNL     1       3.571   4.767  17.220  0.00  0.00    +0.000 C 
ENDROOT
BRANCH   2   4
ATOM      4  C   UNL     1       4.435   5.533  19.489  0.00  0.00    +0.000 C 
BRANCH   4   5
ATOM      5  CE  UNL     1       5.549   4.534  19.164  0.00  0.00    +0.000 C 
BRANCH   5   6
ATOM      6  SD  UNL     1       6.929   5.451  18.417  0.00  0.00    +0.000 S 
BRANCH   6   7
ATOM      7  CG  UNL     1       7.193   4.447  16.930  0.00  0.00    +0.000 C 
BRANCH   7   8
ATOM      8  CB  UNL     1       6.879   5.253  15.667  0.00  0.00    +0.000 C 
BRANCH   8   9
ATOM      9  CA  UNL     1       7.366   4.676  14.328  0.00  0.00    +0.000 C 
BRANCH   9  10
ATOM     10  N   UNL     1       8.160   5.689  13.588  0.00  0.00    +0.000 NA
ATOM     11  H1  UNL     1       8.139   5.439  12.595  0.00  0.00    +0.000 HD
ATOM     12  H2  UNL     1       9.145   5.528  13.826  0.00  0.00    +0.000 HD
ENDBRANCH   9  10
BRANCH   9  13
ATOM     13  C   UNL     1       6.287   4.078  13.398  0.00  0.00    +0.000 C 
ATOM     14  O   UNL     1       5.112   3.949  13.725  0.00  0.00    +0.000 OA
BRANCH  13  15
ATOM     15  OXT UNL     1       6.714   3.793  12.147  0.00  0.00    +0.000 OA
ATOM     16  HXT UNL     1       7.226   4.503  11.720  0.00  0.00    +0.000 HD
ENDBRANCH  13  15
ENDBRANCH   9  13
ENDBRANCH   8   9
ENDBRANCH   7   8
ENDBRANCH   6   7
ENDBRANCH   5   6
ENDBRANCH   4   5
ENDBRANCH   2   4
BRANCH   2  17
ATOM     17  C   UNL     1       1.979   4.917  19.198  0.00  0.00    +0.000 C 
BRANCH  17  18
ATOM     18  C   UNL     1       1.353   3.708  18.480  0.00  0.00    +0.000 C 
BRANCH  18  19
ATOM     19  CA  UNL     1       1.614   2.366  19.179  0.00  0.00    +0.000 C 
BRANCH  19  20
ATOM     20  N   UNL     1       2.758   1.617  18.579  0.00  0.00    +0.000 NA
ATOM     21  H1  UNL     1       2.524   0.618  18.591  0.00  0.00    +0.000 HD
ATOM     22  H2  UNL     1       3.556   1.695  19.216  0.00  0.00    +0.000 HD
ENDBRANCH  19  20
BRANCH  19  23
ATOM     23  C   UNL     1       1.923   2.584  20.677  0.00  0.00    +0.000 C 
ATOM     24  O   UNL     1       1.111   2.828  21.550  0.00  0.00    +0.000 OA
BRANCH  23  25
ATOM     25  OXT UNL     1       3.257   2.441  20.916  0.00  0.00    +0.000 OA
ATOM     26  HXT UNL     1       3.713   2.881  20.155  0.00  0.00    +0.000 HD
ENDBRANCH  23  25
ENDBRANCH  19  23
ENDBRANCH  18  19
ENDBRANCH  17  18
ENDBRANCH   2  17
TORSDOF 15
ENDMDL
MODEL 7
REMARK VINA RESULT:      -5.7      3.452      6.721
REMARK  Name = 
REMARK  17 active torsions:
REMARK  status: ('A' for Active; 'I' for Inactive)
REMARK    1  A    between atoms: C_1  and  C_2
REMARK    2  A    between atoms: C_2  and  C_3
REMARK    3  A    between atoms: C_2  and  C_4
REMARK    4  A    between atoms: C_2  and  C_14
REMARK    5  A    between atoms: C_4  and  CE_5
REMARK    6  A    between atoms: CE_5  and  SD_6
REMARK    7  A    between atoms: SD_6  and  CG_7
REMARK    8  A    between atoms: CG_7  and  CB_8
REMARK    9  A    between atoms: CB_8  and  CA_9
REMARK   10  A    between atoms: CA_9  and  N_10
REMARK   11  A    between atoms: CA_9  and  C_11
REMARK   12  A    between atoms: C_11  and  OXT_13
REMARK   13  A    between atoms: C_14  and  C_15
REMARK   14  A    between atoms: C_15  and  CA_16
REMARK   15  A    between atoms: CA_16  and  N_17
REMARK   16  A    between atoms: CA_16  and  C_18
REMARK   17  A    between atoms: C_18  and  OXT_20
REMARK                            x       y       z     vdW  Elec       q    Type
REMARK                         _______ _______ _______ _____ _____    ______ ____
ROOT
ATOM      1  C   UNL     1       5.349   6.672  15.751  0.00  0.00    +0.000 C 
ATOM      2  C   UNL     1       5.888   5.602  16.727  0.00  0.00    +0.000 C 
ATOM      3  C   UNL     1       7.179   6.136  17.372  0.00  0.00    +0.000 C 
ENDROOT
BRANCH   2   4
ATOM      4  C   UNL     1       4.820   5.283  17.808  0.00  0.00    +0.000 C 
BRANCH   4   5
ATOM      5  CE  UNL     1       5.039   3.987  18.593  0.00  0.00    +0.000 C 
BRANCH   5   6
ATOM      6  SD  UNL     1       3.813   2.770  18.027  0.00  0.00    +0.000 S 
BRANCH   6   7
ATOM      7  CG  UNL     1       2.487   3.893  17.510  0.00  0.00    +0.000 C 
BRANCH   7   8
ATOM      8  CB  UNL     1       1.590   4.259  18.696  0.00  0.00    +0.000 C 
BRANCH   8   9
ATOM      9  CA  UNL     1       1.513   3.251  19.854  0.00  0.00    +0.000 C 
BRANCH   9  10
ATOM     10  N   UNL     1       0.142   2.692  19.960  0.00  0.00    +0.000 NA
ATOM     11  H1  UNL     1       0.111   2.094  20.790  0.00  0.00    +0.000 HD
ATOM     12  H2  UNL     1       0.040   2.007  19.202  0.00  0.00    +0.000 HD
ENDBRANCH   9  10
BRANCH   9  13
ATOM     13  C   UNL     1       1.981   3.750  21.239  0.00  0.00    +0.000 C 
ATOM     14  O   UNL     1       2.025   3.034  22.234  0.00  0.00    +0.000 OA
BRANCH  13  15
ATOM     15  OXT UNL     1       2.438   5.022  21.256  0.00  0.00    +0.000 OA
ATOM     16  HXT UNL     1       2.072   5.577  21.968  0.00  0.00    +0.000 HD
ENDBRANCH  13  15
ENDBRANCH   9  13
ENDBRANCH   8   9
ENDBRANCH   7   8
ENDBRANCH   6   7
ENDBRANCH   5   6
ENDBRANCH   4   5
ENDBRANCH   2   4
BRANCH   2  17
ATOM     17  C   UNL     1       6.196   4.316  15.892  0.00  0.00    +0.000 C 
BRANCH  17  18
ATOM     18  C   UNL     1       5.709   4.337  14.432  0.00  0.00    +0.000 C 
BRANCH  18  19
ATOM     19  CA  UNL     1       6.738   3.802  13.426  0.00  0.00    +0.000 C 
BRANCH  19  20
ATOM     20  N   UNL     1       6.119   2.954  12.364  0.00  0.00    +0.000 NA
ATOM     21  H1  UNL     1       5.164   3.295  12.203  0.00  0.00    +0.000 HD
ATOM     22  H2  UNL     1       5.988   2.013  12.746  0.00  0.00    +0.000 HD
ENDBRANCH  19  20
BRANCH  19  23
ATOM     23  C   UNL     1       7.477   4.968  12.731  0.00  0.00    +0.000 C 
ATOM     24  O   UNL     1       7.478   5.209  11.538  0.00  0.00    +0.000 OA
BRANCH  23  25
ATOM     25  OXT UNL     1       8.129   5.735  13.650  0.00  0.00    +0.000 OA
ATOM     26  HXT UNL     1       7.906   5.344  14.531  0.00  0.00    +0.000 HD
ENDBRANCH  23  25
ENDBRANCH  19  23
ENDBRANCH  18  19
ENDBRANCH  17  18
ENDBRANCH   2  17
TORSDOF 15
ENDMDL
MODEL 8
REMARK VINA RESULT:      -5.7      2.381      5.526
REMARK  Name = 
REMARK  17 active torsions:
REMARK  status: ('A' for Active; 'I' for Inactive)
REMARK    1  A    between atoms: C_1  and  C_2
REMARK    2  A    between atoms: C_2  and  C_3
REMARK    3  A    between atoms: C_2  and  C_4
REMARK    4  A    between atoms: C_2  and  C_14
REMARK    5  A    between atoms: C_4  and  CE_5
REMARK    6  A    between atoms: CE_5  and  SD_6
REMARK    7  A    between atoms: SD_6  and  CG_7
REMARK    8  A    between atoms: CG_7  and  CB_8
REMARK    9  A    between atoms: CB_8  and  CA_9
REMARK   10  A    between atoms: CA_9  and  N_10
REMARK   11  A    between atoms: CA_9  and  C_11
REMARK   12  A    between atoms: C_11  and  OXT_13
REMARK   13  A    between atoms: C_14  and  C_15
REMARK   14  A    between atoms: C_15  and  CA_16
REMARK   15  A    between atoms: CA_16  and  N_17
REMARK   16  A    between atoms: CA_16  and  C_18
REMARK   17  A    between atoms: C_18  and  OXT_20
REMARK                            x       y       z     vdW  Elec       q    Type
REMARK                         _______ _______ _______ _____ _____    ______ ____
ROOT
ATOM      1  C   UNL     1       1.757   6.056  17.683  0.00  0.00    +0.000 C 
ATOM      2  C   UNL     1       2.634   7.194  18.252  0.00  0.00    +0.000 C 
ATOM      3  C   UNL     1       2.044   8.539  17.792  0.00  0.00    +0.000 C 
ENDROOT
BRANCH   2   4
ATOM      4  C   UNL     1       2.675   7.108  19.801  0.00  0.00    +0.000 C 
BRANCH   4   5
ATOM      5  CE  UNL     1       1.586   6.246  20.446  0.00  0.00    +0.000 C 
BRANCH   5   6
ATOM      6  SD  UNL     1       2.333   4.658  20.923  0.00  0.00    +0.000 S 
BRANCH   6   7
ATOM      7  CG  UNL     1       0.970   3.540  20.499  0.00  0.00    +0.000 C 
BRANCH   7   8
ATOM      8  CB  UNL     1       1.466   2.387  19.622  0.00  0.00    +0.000 C 
BRANCH   8   9
ATOM      9  CA  UNL     1       2.675   2.665  18.715  0.00  0.00    +0.000 C 
BRANCH   9  10
ATOM     10  N   UNL     1       2.275   2.598  17.287  0.00  0.00    +0.000 NA
ATOM     11  H1  UNL     1       2.261   1.612  17.011  0.00  0.00    +0.000 HD
ATOM     12  H2  UNL     1       3.063   2.960  16.739  0.00  0.00    +0.000 HD
ENDBRANCH   9  10
BRANCH   9  13
ATOM     13  C   UNL     1       3.930   1.794  18.946  0.00  0.00    +0.000 C 
ATOM     14  O   UNL     1       4.081   0.684  18.446  0.00  0.00    +0.000 OA
BRANCH  13  15
ATOM     15  OXT UNL     1       4.905   2.388  19.670  0.00  0.00    +0.000 OA
ATOM     16  HXT UNL     1       4.732   2.431  20.627  0.00  0.00    +0.000 HD
ENDBRANCH  13  15
ENDBRANCH   9  13
ENDBRANCH   8   9
ENDBRANCH   7   8
ENDBRANCH   6   7
ENDBRANCH   5   6
ENDBRANCH   4   5
ENDBRANCH   2   4
BRANCH   2  17
ATOM     17  C   UNL     1       4.075   7.013  17.673  0.00  0.00    +0.000 C 
BRANCH  17  18
ATOM     18  C   UNL     1       4.677   5.603  17.811  0.00  0.00    +0.000 C 
BRANCH  18  19
ATOM     19  CA  UNL     1       6.197   5.594  18.025  0.00  0.00    +0.000 C 
BRANCH  19  20
ATOM     20  N   UNL     1       6.740   4.220  18.244  0.00  0.00    +0.000 NA
ATOM     21  H1  UNL     1       5.949   3.565  18.252  0.00  0.00    +0.000 HD
ATOM     22  H2  UNL     1       7.113   4.175  19.196  0.00  0.00    +0.000 HD
ENDBRANCH  19  20
BRANCH  19  23
ATOM     23  C   UNL     1       6.922   6.201  16.803  0.00  0.00    +0.000 C 
ATOM     24  O   UNL     1       6.869   5.790  15.658  0.00  0.00    +0.000 OA
BRANCH  23  25
ATOM     25  OXT UNL     1       7.631   7.306  17.168  0.00  0.00    +0.000 OA
ATOM     26  HXT UNL     1       7.027   8.075  17.012  0.00  0.00    +0.000 HD
ENDBRANCH  23  25
ENDBRANCH  19  23
ENDBRANCH  18  19
ENDBRANCH  17  18
ENDBRANCH   2  17
TORSDOF 15
ENDMDL
MODEL 9
REMARK VINA RESULT:      -5.7      2.457      5.337
REMARK  Name = 
REMARK  17 active torsions:
REMARK  status: ('A' for Active; 'I' for Inactive)
REMARK    1  A    between atoms: C_1  and  C_2
REMARK    2  A    between atoms: C_2  and  C_3
REMARK    3  A    between atoms: C_2  and  C_4
REMARK    4  A    between atoms: C_2  and  C_14
REMARK    5  A    between atoms: C_4  and  CE_5
REMARK    6  A    between atoms: CE_5  and  SD_6
REMARK    7  A    between atoms: SD_6  and  CG_7
REMARK    8  A    between atoms: CG_7  and  CB_8
REMARK    9  A    between atoms: CB_8  and  CA_9
REMARK   10  A    between atoms: CA_9  and  N_10
REMARK   11  A    between atoms: CA_9  and  C_11
REMARK   12  A    between atoms: C_11  and  OXT_13
REMARK   13  A    between atoms: C_14  and  C_15
REMARK   14  A    between atoms: C_15  and  CA_16
REMARK   15  A    between atoms: CA_16  and  N_17
REMARK   16  A    between atoms: CA_16  and  C_18
REMARK   17  A    between atoms: C_18  and  OXT_20
REMARK                            x       y       z     vdW  Elec       q    Type
REMARK                         _______ _______ _______ _____ _____    ______ ____
ROOT
ATOM      1  C   UNL     1       2.148   5.617  17.517  0.00  0.00    +0.000 C 
ATOM      2  C   UNL     1       2.866   6.672  18.388  0.00  0.00    +0.000 C 
ATOM      3  C   UNL     1       2.574   8.067  17.806  0.00  0.00    +0.000 C 
ENDROOT
BRANCH   2   4
ATOM      4  C   UNL     1       2.374   6.571  19.857  0.00  0.00    +0.000 C 
BRANCH   4   5
ATOM      5  CE  UNL     1       2.667   5.245  20.564  0.00  0.00    +0.000 C 
BRANCH   5   6
ATOM      6  SD  UNL     1       1.165   4.223  20.490  0.00  0.00    +0.000 S 
BRANCH   6   7
ATOM      7  CG  UNL     1       1.871   2.612  20.930  0.00  0.00    +0.000 C 
BRANCH   7   8
ATOM      8  CB  UNL     1       2.164   1.786  19.674  0.00  0.00    +0.000 C 
BRANCH   8   9
ATOM      9  CA  UNL     1       3.492   2.058  18.949  0.00  0.00    +0.000 C 
BRANCH   9  10
ATOM     10  N   UNL     1       3.811   0.945  18.021  0.00  0.00    +0.000 NA
ATOM     11  H1  UNL     1       3.508   1.223  17.083  0.00  0.00    +0.000 HD
ATOM     12  H2  UNL     1       3.160   0.182  18.236  0.00  0.00    +0.000 HD
ENDBRANCH   9  10
BRANCH   9  13
ATOM     13  C   UNL     1       4.718   2.362  19.840  0.00  0.00    +0.000 C 
ATOM     14  O   UNL     1       4.994   1.721  20.848  0.00  0.00    +0.000 OA
BRANCH  13  15
ATOM     15  OXT UNL     1       5.530   3.335  19.371  0.00  0.00    +0.000 OA
ATOM     16  HXT UNL     1       6.350   3.464  19.881  0.00  0.00    +0.000 HD
ENDBRANCH  13  15
ENDBRANCH   9  13
ENDBRANCH   8   9
ENDBRANCH   7   8
ENDBRANCH   6   7
ENDBRANCH   5   6
ENDBRANCH   4   5
ENDBRANCH   2   4
BRANCH   2  17
ATOM     17  C   UNL     1       4.399   6.373  18.322  0.00  0.00    +0.000 C 
BRANCH  17  18
ATOM     18  C   UNL     1       4.918   5.841  16.974  0.00  0.00    +0.000 C 
BRANCH  18  19
ATOM     19  CA  UNL     1       6.439   5.954  16.805  0.00  0.00    +0.000 C 
BRANCH  19  20
ATOM     20  N   UNL     1       7.127   6.397  18.054  0.00  0.00    +0.000 NA
ATOM     21  H1  UNL     1       6.431   6.416  18.809  0.00  0.00    +0.000 HD
ATOM     22  H2  UNL     1       7.396   7.378  17.937  0.00  0.00    +0.000 HD
ENDBRANCH  19  20
BRANCH  19  23
ATOM     23  C   UNL     1       7.043   4.595  16.387  0.00  0.00    +0.000 C 
ATOM     24  O   UNL     1       6.786   3.975  15.372  0.00  0.00    +0.000 OA
BRANCH  23  25
ATOM     25  OXT UNL     1       7.949   4.169  17.313  0.00  0.00    +0.000 OA
ATOM     26  HXT UNL     1       7.914   3.180  17.286  0.00  0.00    +0.000 HD
ENDBRANCH  23  25
ENDBRANCH  19  23
ENDBRANCH  18  19
ENDBRANCH  17  18
ENDBRANCH   2  17
TORSDOF 15
ENDMDL
