MODEL 1
REMARK VINA RESULT:      -5.9      0.000      0.000
REMARK  Name = 
REMARK  6 active torsions:
REMARK  status: ('A' for Active; 'I' for Inactive)
REMARK    1  A    between atoms: C_2  and  O_3
REMARK    2  A    between atoms: C_2  and  C_4
REMARK    3  A    between atoms: C_4  and  S_5
REMARK    4  A    between atoms: S_5  and  C_6
REMARK    5  A    between atoms: C_6  and  C_7
REMARK    6  A    between atoms: N_9  and  C_10
REMARK                            x       y       z     vdW  Elec       q    Type
REMARK                         _______ _______ _______ _____ _____    ______ ____
ROOT
ATOM      1  C   UNL     1       3.573   3.914  17.763  0.00  0.00    +0.000 C 
ATOM      2  O   UNL     1       4.338   3.003  17.429  0.00  0.00    +0.000 OA
ATOM      3  N   UNL     1       3.943   5.177  18.184  0.00  0.00    +0.000 N 
ATOM      4  H   UNL     1       3.219   5.779  18.558  0.00  0.00    +0.000 HD
ENDROOT
BRANCH   3   5
ATOM      5  C   UNL     1       5.257   5.695  18.212  0.00  0.00    +0.000 A 
ATOM      6  C   UNL     1       5.729   6.634  17.294  0.00  0.00    +0.000 A 
ATOM      7  C   UNL     1       7.042   7.108  17.368  0.00  0.00    +0.000 A 
ATOM      8  C   UNL     1       7.894   6.647  18.367  0.00  0.00    +0.000 A 
ATOM      9  C   UNL     1       7.430   5.725  19.301  0.00  0.00    +0.000 A 
ATOM     10  C   UNL     1       6.113   5.260  19.231  0.00  0.00    +0.000 A 
ENDBRANCH   3   5
BRANCH   1  11
ATOM     11  C   UNL     1       2.074   3.690  17.669  0.00  0.00    +0.000 C 
BRANCH  11  12
ATOM     12  S   UNL     1       1.545   2.424  18.871  0.00  0.00    +0.000 S 
BRANCH  12  13
ATOM     13  C   UNL     1       0.945   3.456  20.256  0.00  0.00    +0.000 C 
BRANCH  13  15
ATOM     14  O   UNL     1       2.388   3.102  22.163  0.00  0.00    +0.000 OA
ATOM     15  C   UNL     1       2.036   3.820  21.236  0.00  0.00    +0.000 C 
BRANCH  15  16
ATOM     16  O   UNL     1       2.602   5.032  21.025  0.00  0.00    +0.000 OA
ATOM     17  H   UNL     1       3.014   5.444  21.825  0.00  0.00    +0.000 HD
ENDBRANCH  15  16
ENDBRANCH  13  15
ENDBRANCH  12  13
ENDBRANCH  11  12
ENDBRANCH   1  11
TORSDOF 6
ENDMDL
MODEL 2
REMARK VINA RESULT:      -5.9      2.699      5.478
REMARK  Name = 
REMARK  6 active torsions:
REMARK  status: ('A' for Active; 'I' for Inactive)
REMARK    1  A    between atoms: C_2  and  O_3
REMARK    2  A    between atoms: C_2  and  C_4
REMARK    3  A    between atoms: C_4  and  S_5
REMARK    4  A    between atoms: S_5  and  C_6
REMARK    5  A    between atoms: C_6  and  C_7
REMARK    6  A    between atoms: N_9  and  C_10
REMARK                            x       y       z     vdW  Elec       q    Type
REMARK                         _______ _______ _______ _____ _____    ______ ____
ROOT
ATOM      1  C   UNL     1       4.312   4.535  17.072  0.00  0.00    +0.000 C 
ATOM      2  O   UNL     1       4.700   3.363  17.120  0.00  0.00    +0.000 OA
ATOM      3  N   UNL     1       3.289   5.088  17.818  0.00  0.00    +0.000 N 
ATOM      4  H   UNL     1       2.985   6.025  17.579  0.00  0.00    +0.000 HD
ENDROOT
BRANCH   3   5
ATOM      5  C   UNL     1       2.566   4.445  18.847  0.00  0.00    +0.000 A 
ATOM      6  C   UNL     1       2.810   4.662  20.204  0.00  0.00    +0.000 A 
ATOM      7  C   UNL     1       2.066   3.992  21.180  0.00  0.00    +0.000 A 
ATOM      8  C   UNL     1       1.066   3.101  20.804  0.00  0.00    +0.000 A 
ATOM      9  C   UNL     1       0.799   2.890  19.454  0.00  0.00    +0.000 A 
ATOM     10  C   UNL     1       1.538   3.568  18.479  0.00  0.00    +0.000 A 
ENDBRANCH   3   5
BRANCH   1  11
ATOM     11  C   UNL     1       5.030   5.512  16.158  0.00  0.00    +0.000 C 
BRANCH  11  12
ATOM     12  S   UNL     1       5.672   6.924  17.119  0.00  0.00    +0.000 S 
BRANCH  12  13
ATOM     13  C   UNL     1       7.397   6.404  17.434  0.00  0.00    +0.000 C 
BRANCH  13  15
ATOM     14  O   UNL     1       7.367   5.334  19.601  0.00  0.00    +0.000 OA
ATOM     15  C   UNL     1       7.495   5.236  18.388  0.00  0.00    +0.000 C 
BRANCH  15  16
ATOM     16  O   UNL     1       7.756   4.046  17.797  0.00  0.00    +0.000 OA
ATOM     17  H   UNL     1       8.051   4.105  16.854  0.00  0.00    +0.000 HD
ENDBRANCH  15  16
ENDBRANCH  13  15
ENDBRANCH  12  13
ENDBRANCH  11  12
ENDBRANCH   1  11
TORSDOF 6
ENDMDL
MODEL 3
REMARK VINA RESULT:      -5.8      2.606      5.270
REMARK  Name = 
REMARK  6 active torsions:
REMARK  status: ('A' for Active; 'I' for Inactive)
REMARK    1  A    between atoms: C_2  and  O_3
REMARK    2  A    between atoms: C_2  and  C_4
REMARK    3  A    between atoms: C_4  and  S_5
REMARK    4  A    between atoms: S_5  and  C_6
REMARK    5  A    between atoms: C_6  and  C_7
REMARK    6  A    between atoms: N_9  and  C_10
REMARK                            x       y       z     vdW  Elec       q    Type
REMARK                         _______ _______ _______ _____ _____    ______ ____
ROOT
ATOM      1  C   UNL     1       4.405   4.729  17.024  0.00  0.00    +0.000 C 
ATOM      2  O   UNL     1       4.829   3.572  17.102  0.00  0.00    +0.000 OA
ATOM      3  N   UNL     1       3.317   5.249  17.701  0.00  0.00    +0.000 N 
ATOM      4  H   UNL     1       2.998   6.173  17.439  0.00  0.00    +0.000 HD
ENDROOT
BRANCH   3   5
ATOM      5  C   UNL     1       2.553   4.584  18.685  0.00  0.00    +0.000 A 
ATOM      6  C   UNL     1       1.580   3.630  18.383  0.00  0.00    +0.000 A 
ATOM      7  C   UNL     1       0.850   3.007  19.400  0.00  0.00    +0.000 A 
ATOM      8  C   UNL     1       1.091   3.332  20.731  0.00  0.00    +0.000 A 
ATOM      9  C   UNL     1       2.072   4.268  21.047  0.00  0.00    +0.000 A 
ATOM     10  C   UNL     1       2.809   4.883  20.029  0.00  0.00    +0.000 A 
ENDBRANCH   3   5
BRANCH   1  11
ATOM     11  C   UNL     1       5.146   5.729  16.154  0.00  0.00    +0.000 C 
BRANCH  11  12
ATOM     12  S   UNL     1       6.092   6.895  17.190  0.00  0.00    +0.000 S 
BRANCH  12  13
ATOM     13  C   UNL     1       7.455   5.834  17.790  0.00  0.00    +0.000 C 
BRANCH  13  15
ATOM     14  O   UNL     1       6.263   5.233  19.806  0.00  0.00    +0.000 OA
ATOM     15  C   UNL     1       7.327   5.481  19.255  0.00  0.00    +0.000 C 
BRANCH  15  16
ATOM     16  O   UNL     1       8.496   5.473  19.937  0.00  0.00    +0.000 OA
ATOM     17  H   UNL     1       8.920   4.583  20.026  0.00  0.00    +0.000 HD
ENDBRANCH  15  16
ENDBRANCH  13  15
ENDBRANCH  12  13
ENDBRANCH  11  12
ENDBRANCH   1  11
TORSDOF 6
ENDMDL
MODEL 4
REMARK VINA RESULT:      -5.8      1.016      1.016
REMARK  Name = 
REMARK  6 active torsions:
REMARK  status: ('A' for Active; 'I' for Inactive)
REMARK    1  A    between atoms: C_2  and  O_3
REMARK    2  A    between atoms: C_2  and  C_4
REMARK    3  A    between atoms: C_4  and  S_5
REMARK    4  A    between atoms: S_5  and  C_6
REMARK    5  A    between atoms: C_6  and  C_7
REMARK    6  A    between atoms: N_9  and  C_10
REMARK                            x       y       z     vdW  Elec       q    Type
REMARK                         _______ _______ _______ _____ _____    ______ ____
ROOT
ATOM      1  C   UNL     1       3.276   4.746  17.704  0.00  0.00    +0.000 C 
ATOM      2  O   UNL     1       2.814   5.764  18.229  0.00  0.00    +0.000 OA
ATOM      3  N   UNL     1       4.599   4.532  17.364  0.00  0.00    +0.000 N 
ATOM      4  H   UNL     1       4.816   3.709  16.815  0.00  0.00    +0.000 HD
ENDROOT
BRANCH   3   5
ATOM      5  C   UNL     1       5.683   5.392  17.648  0.00  0.00    +0.000 A 
ATOM      6  C   UNL     1       5.943   6.558  16.928  0.00  0.00    +0.000 A 
ATOM      7  C   UNL     1       7.035   7.369  17.252  0.00  0.00    +0.000 A 
ATOM      8  C   UNL     1       7.875   7.020  18.304  0.00  0.00    +0.000 A 
ATOM      9  C   UNL     1       7.616   5.869  19.042  0.00  0.00    +0.000 A 
ATOM     10  C   UNL     1       6.517   5.064  18.724  0.00  0.00    +0.000 A 
ENDBRANCH   3   5
BRANCH   1  11
ATOM     11  C   UNL     1       2.354   3.571  17.433  0.00  0.00    +0.000 C 
BRANCH  11  12
ATOM     12  S   UNL     1       2.329   2.440  18.864  0.00  0.00    +0.000 S 
BRANCH  12  13
ATOM     13  C   UNL     1       1.261   3.349  20.036  0.00  0.00    +0.000 C 
BRANCH  13  15
ATOM     14  O   UNL     1       2.171   3.196  22.271  0.00  0.00    +0.000 OA
ATOM     15  C   UNL     1       2.010   3.851  21.250  0.00  0.00    +0.000 C 
BRANCH  15  16
ATOM     16  O   UNL     1       2.492   5.111  21.134  0.00  0.00    +0.000 OA
ATOM     17  H   UNL     1       1.911   5.733  20.629  0.00  0.00    +0.000 HD
ENDBRANCH  15  16
ENDBRANCH  13  15
ENDBRANCH  12  13
ENDBRANCH  11  12
ENDBRANCH   1  11
TORSDOF 6
ENDMDL
MODEL 5
REMARK VINA RESULT:      -5.7      3.043      6.327
REMARK  Name = 
REMARK  6 active torsions:
REMARK  status: ('A' for Active; 'I' for Inactive)
REMARK    1  A    between atoms: C_2  and  O_3
REMARK    2  A    between atoms: C_2  and  C_4
REMARK    3  A    between atoms: C_4  and  S_5
REMARK    4  A    between atoms: S_5  and  C_6
REMARK    5  A    between atoms: C_6  and  C_7
REMARK    6  A    between atoms: N_9  and  C_10
REMARK                            x       y       z     vdW  Elec       q    Type
REMARK                         _______ _______ _______ _____ _____    ______ ____
ROOT
ATOM      1  C   UNL     1       5.202   4.805  18.527  0.00  0.00    +0.000 C 
ATOM      2  O   UNL     1       5.644   4.005  19.357  0.00  0.00    +0.000 OA
ATOM      3  N   UNL     1       3.873   4.991  18.197  0.00  0.00    +0.000 N 
ATOM      4  H   UNL     1       3.663   5.582  17.402  0.00  0.00    +0.000 HD
ENDROOT
BRANCH   3   5
ATOM      5  C   UNL     1       2.766   4.374  18.821  0.00  0.00    +0.000 A 
ATOM      6  C   UNL     1       2.296   4.742  20.083  0.00  0.00    +0.000 A 
ATOM      7  C   UNL     1       1.197   4.092  20.654  0.00  0.00    +0.000 A 
ATOM      8  C   UNL     1       0.557   3.069  19.963  0.00  0.00    +0.000 A 
ATOM      9  C   UNL     1       1.003   2.704  18.696  0.00  0.00    +0.000 A 
ATOM     10  C   UNL     1       2.096   3.362  18.122  0.00  0.00    +0.000 A 
ENDBRANCH   3   5
BRANCH   1  11
ATOM     11  C   UNL     1       6.168   5.733  17.810  0.00  0.00    +0.000 C 
BRANCH  11  12
ATOM     12  S   UNL     1       7.363   4.767  16.826  0.00  0.00    +0.000 S 
BRANCH  12  13
ATOM     13  C   UNL     1       6.296   4.100  15.499  0.00  0.00    +0.000 C 
BRANCH  13  15
ATOM     14  O   UNL     1       6.430   3.872  13.096  0.00  0.00    +0.000 OA
ATOM     15  C   UNL     1       6.791   4.449  14.114  0.00  0.00    +0.000 C 
BRANCH  15  16
ATOM     16  O   UNL     1       7.694   5.456  14.074  0.00  0.00    +0.000 OA
ATOM     17  H   UNL     1       7.339   6.343  14.332  0.00  0.00    +0.000 HD
ENDBRANCH  15  16
ENDBRANCH  13  15
ENDBRANCH  12  13
ENDBRANCH  11  12
ENDBRANCH   1  11
TORSDOF 6
ENDMDL
MODEL 6
REMARK VINA RESULT:      -5.7      2.740      5.386
REMARK  Name = 
REMARK  6 active torsions:
REMARK  status: ('A' for Active; 'I' for Inactive)
REMARK    1  A    between atoms: C_2  and  O_3
REMARK    2  A    between atoms: C_2  and  C_4
REMARK    3  A    between atoms: C_4  and  S_5
REMARK    4  A    between atoms: S_5  and  C_6
REMARK    5  A    between atoms: C_6  and  C_7
REMARK    6  A    between atoms: N_9  and  C_10
REMARK                            x       y       z     vdW  Elec       q    Type
REMARK                         _______ _______ _______ _____ _____    ______ ____
ROOT
ATOM      1  C   UNL     1       3.921   3.973  17.133  0.00  0.00    +0.000 C 
ATOM      2  O   UNL     1       3.034   3.316  16.580  0.00  0.00    +0.000 OA
ATOM      3  N   UNL     1       3.975   4.307  18.473  0.00  0.00    +0.000 N 
ATOM      4  H   UNL     1       4.686   4.966  18.766  0.00  0.00    +0.000 HD
ENDROOT
BRANCH   3   5
ATOM      5  C   UNL     1       3.081   3.872  19.477  0.00  0.00    +0.000 A 
ATOM      6  C   UNL     1       1.767   4.330  19.583  0.00  0.00    +0.000 A 
ATOM      7  C   UNL     1       0.929   3.866  20.602  0.00  0.00    +0.000 A 
ATOM      8  C   UNL     1       1.400   2.937  21.523  0.00  0.00    +0.000 A 
ATOM      9  C   UNL     1       2.703   2.458  21.419  0.00  0.00    +0.000 A 
ATOM     10  C   UNL     1       3.537   2.915  20.392  0.00  0.00    +0.000 A 
ENDBRANCH   3   5
BRANCH   1  11
ATOM     11  C   UNL     1       5.113   4.438  16.316  0.00  0.00    +0.000 C 
BRANCH  11  12
ATOM     12  S   UNL     1       5.446   6.204  16.628  0.00  0.00    +0.000 S 
BRANCH  12  13
ATOM     13  C   UNL     1       7.198   6.163  17.151  0.00  0.00    +0.000 C 
BRANCH  13  15
ATOM     14  O   UNL     1       8.314   4.115  17.785  0.00  0.00    +0.000 OA
ATOM     15  C   UNL     1       7.514   4.999  18.062  0.00  0.00    +0.000 C 
BRANCH  15  16
ATOM     16  O   UNL     1       6.826   4.991  19.227  0.00  0.00    +0.000 OA
ATOM     17  H   UNL     1       6.005   5.544  19.229  0.00  0.00    +0.000 HD
ENDBRANCH  15  16
ENDBRANCH  13  15
ENDBRANCH  12  13
ENDBRANCH  11  12
ENDBRANCH   1  11
TORSDOF 6
ENDMDL
MODEL 7
REMARK VINA RESULT:      -5.7      2.857      5.970
REMARK  Name = 
REMARK  6 active torsions:
REMARK  status: ('A' for Active; 'I' for Inactive)
REMARK    1  A    between atoms: C_2  and  O_3
REMARK    2  A    between atoms: C_2  and  C_4
REMARK    3  A    between atoms: C_4  and  S_5
REMARK    4  A    between atoms: S_5  and  C_6
REMARK    5  A    between atoms: C_6  and  C_7
REMARK    6  A    between atoms: N_9  and  C_10
REMARK                            x       y       z     vdW  Elec       q    Type
REMARK                         _______ _______ _______ _____ _____    ______ ____
ROOT
ATOM      1  C   UNL     1       5.706   5.106  19.217  0.00  0.00    +0.000 C 
ATOM      2  O   UNL     1       4.879   5.990  19.464  0.00  0.00    +0.000 OA
ATOM      3  N   UNL     1       5.434   3.767  19.009  0.00  0.00    +0.000 N 
ATOM      4  H   UNL     1       6.219   3.131  18.952  0.00  0.00    +0.000 HD
ENDROOT
BRANCH   3   5
ATOM      5  C   UNL     1       4.152   3.179  18.937  0.00  0.00    +0.000 A 
ATOM      6  C   UNL     1       3.549   2.801  17.736  0.00  0.00    +0.000 A 
ATOM      7  C   UNL     1       2.274   2.227  17.726  0.00  0.00    +0.000 A 
ATOM      8  C   UNL     1       1.592   2.023  18.921  0.00  0.00    +0.000 A 
ATOM      9  C   UNL     1       2.189   2.377  20.128  0.00  0.00    +0.000 A 
ATOM     10  C   UNL     1       3.469   2.942  20.137  0.00  0.00    +0.000 A 
ENDBRANCH   3   5
BRANCH   1  11
ATOM     11  C   UNL     1       7.168   5.486  19.066  0.00  0.00    +0.000 C 
BRANCH  11  12
ATOM     12  S   UNL     1       7.367   6.741  17.756  0.00  0.00    +0.000 S 
BRANCH  12  13
ATOM     13  C   UNL     1       6.245   6.103  16.461  0.00  0.00    +0.000 C 
BRANCH  13  15
ATOM     14  O   UNL     1       7.601   5.186  14.682  0.00  0.00    +0.000 OA
ATOM     15  C   UNL     1       6.863   4.994  15.639  0.00  0.00    +0.000 C 
BRANCH  15  16
ATOM     16  O   UNL     1       6.523   3.745  16.032  0.00  0.00    +0.000 OA
ATOM     17  H   UNL     1       5.841   3.302  15.469  0.00  0.00    +0.000 HD
ENDBRANCH  15  16
ENDBRANCH  13  15
ENDBRANCH  12  13
ENDBRANCH  11  12
ENDBRANCH   1  11
TORSDOF 6
ENDMDL
MODEL 8
REMARK VINA RESULT:      -5.7      2.856      5.402
REMARK  Name = 
REMARK  6 active torsions:
REMARK  status: ('A' for Active; 'I' for Inactive)
REMARK    1  A    between atoms: C_2  and  O_3
REMARK    2  A    between atoms: C_2  and  C_4
REMARK    3  A    between atoms: C_4  and  S_5
REMARK    4  A    between atoms: S_5  and  C_6
REMARK    5  A    between atoms: C_6  and  C_7
REMARK    6  A    between atoms: N_9  and  C_10
REMARK                            x       y       z     vdW  Elec       q    Type
REMARK                         _______ _______ _______ _____ _____    ______ ____
ROOT
ATOM      1  C   UNL     1       4.460   4.522  16.846  0.00  0.00    +0.000 C 
ATOM      2  O   UNL     1       4.676   3.307  16.905  0.00  0.00    +0.000 OA
ATOM      3  N   UNL     1       3.534   5.225  17.593  0.00  0.00    +0.000 N 
ATOM      4  H   UNL     1       3.366   6.192  17.345  0.00  0.00    +0.000 HD
ENDROOT
BRANCH   3   5
ATOM      5  C   UNL     1       2.736   4.704  18.635  0.00  0.00    +0.000 A 
ATOM      6  C   UNL     1       2.934   5.018  19.981  0.00  0.00    +0.000 A 
ATOM      7  C   UNL     1       2.115   4.467  20.971  0.00  0.00    +0.000 A 
ATOM      8  C   UNL     1       1.086   3.599  20.622  0.00  0.00    +0.000 A 
ATOM      9  C   UNL     1       0.865   3.293  19.282  0.00  0.00    +0.000 A 
ATOM     10  C   UNL     1       1.678   3.852  18.291  0.00  0.00    +0.000 A 
ENDBRANCH   3   5
BRANCH   1  11
ATOM     11  C   UNL     1       5.303   5.375  15.915  0.00  0.00    +0.000 C 
BRANCH  11  12
ATOM     12  S   UNL     1       6.365   6.504  16.876  0.00  0.00    +0.000 S 
BRANCH  12  13
ATOM     13  C   UNL     1       7.382   5.326  17.837  0.00  0.00    +0.000 C 
BRANCH  13  15
ATOM     14  O   UNL     1       7.705   5.339  20.233  0.00  0.00    +0.000 OA
ATOM     15  C   UNL     1       7.859   5.896  19.154  0.00  0.00    +0.000 C 
BRANCH  15  16
ATOM     16  O   UNL     1       8.468   7.101  19.059  0.00  0.00    +0.000 OA
ATOM     17  H   UNL     1       8.299   7.588  18.214  0.00  0.00    +0.000 HD
ENDBRANCH  15  16
ENDBRANCH  13  15
ENDBRANCH  12  13
ENDBRANCH  11  12
ENDBRANCH   1  11
TORSDOF 6
ENDMDL
MODEL 9
REMARK VINA RESULT:      -5.7      3.045      5.779
REMARK  Name = 
REMARK  6 active torsions:
REMARK  status: ('A' for Active; 'I' for Inactive)
REMARK    1  A    between atoms: C_2  and  O_3
REMARK    2  A    between atoms: C_2  and  C_4
REMARK    3  A    between atoms: C_4  and  S_5
REMARK    4  A    between atoms: S_5  and  C_6
REMARK    5  A    between atoms: C_6  and  C_7
REMARK    6  A    between atoms: N_9  and  C_10
REMARK                            x       y       z     vdW  Elec       q    Type
REMARK                         _______ _______ _______ _____ _____    ______ ____
ROOT
ATOM      1  C   UNL     1       4.421   4.119  17.215  0.00  0.00    +0.000 C 
ATOM      2  O   UNL     1       3.945   5.255  17.314  0.00  0.00    +0.000 OA
ATOM      3  N   UNL     1       4.116   3.033  18.013  0.00  0.00    +0.000 N 
ATOM      4  H   UNL     1       4.681   2.199  17.909  0.00  0.00    +0.000 HD
ENDROOT
BRANCH   3   5
ATOM      5  C   UNL     1       3.128   2.991  19.022  0.00  0.00    +0.000 A 
ATOM      6  C   UNL     1       1.763   3.123  18.763  0.00  0.00    +0.000 A 
ATOM      7  C   UNL     1       0.831   3.079  19.805  0.00  0.00    +0.000 A 
ATOM      8  C   UNL     1       1.259   2.899  21.116  0.00  0.00    +0.000 A 
ATOM      9  C   UNL     1       2.616   2.748  21.386  0.00  0.00    +0.000 A 
ATOM     10  C   UNL     1       3.547   2.782  20.342  0.00  0.00    +0.000 A 
ENDBRANCH   3   5
BRANCH   1  11
ATOM     11  C   UNL     1       5.400   3.826  16.092  0.00  0.00    +0.000 C 
BRANCH  11  12
ATOM     12  S   UNL     1       6.522   5.242  15.842  0.00  0.00    +0.000 S 
BRANCH  12  13
ATOM     13  C   UNL     1       7.330   5.368  17.478  0.00  0.00    +0.000 C 
BRANCH  13  15
ATOM     14  O   UNL     1       7.353   7.769  17.193  0.00  0.00    +0.000 OA
ATOM     15  C   UNL     1       7.650   6.793  17.869  0.00  0.00    +0.000 C 
BRANCH  15  16
ATOM     16  O   UNL     1       8.319   6.919  19.039  0.00  0.00    +0.000 OA
ATOM     17  H   UNL     1       9.035   7.602  19.037  0.00  0.00    +0.000 HD
ENDBRANCH  15  16
ENDBRANCH  13  15
ENDBRANCH  12  13
ENDBRANCH  11  12
ENDBRANCH   1  11
TORSDOF 6
ENDMDL
