MODEL 1
REMARK VINA RESULT:      -7.9      0.000      0.000
REMARK  Name = 
REMARK  10 active torsions:
REMARK  status: ('A' for Active; 'I' for Inactive)
REMARK    1  A    between atoms: C_1  and  N_2
REMARK    2  A    between atoms: C_3  and  C_5
REMARK    3  A    between atoms: C_5  and  O_6
REMARK    4  A    between atoms: C_5  and  C_8
REMARK    5  A    between atoms: O_6  and  C_7
REMARK    6  A    between atoms: C_12  and  C_13
REMARK    7  A    between atoms: C_13  and  O_14
REMARK    8  A    between atoms: O_14  and  C_15
REMARK    9  A    between atoms: C_18  and  C_19
REMARK   10  A    between atoms: C_21  and  C_22
REMARK                            x       y       z     vdW  Elec       q    Type
REMARK                         _______ _______ _______ _____ _____    ______ ____
ROOT
ATOM      1  C   UNL     1       6.770   4.935  16.080  0.00  0.00    +0.000 A 
ATOM      2  C   UNL     1       7.500   4.491  17.197  0.00  0.00    +0.000 A 
ATOM      3  C   UNL     1       7.087   4.798  18.490  0.00  0.00    +0.000 A 
ATOM      4  C   UNL     1       5.944   5.567  18.699  0.00  0.00    +0.000 A 
ATOM      5  C   UNL     1       5.205   6.037  17.610  0.00  0.00    +0.000 A 
ATOM      6  C   UNL     1       5.605   5.687  16.306  0.00  0.00    +0.000 A 
ENDROOT
BRANCH   1   7
ATOM      7  C   UNL     1       7.197   4.586  14.656  0.00  0.00    +0.000 C 
BRANCH   7  10
ATOM      8  C   UNL     1       5.564   2.526  11.869  0.00  0.00    +0.000 C 
ATOM      9  N   UNL     1       6.474   3.078  12.835  0.00  0.00    +0.000 N 
ATOM     10  C   UNL     1       6.052   4.013  13.763  0.00  0.00    +0.000 C 
ATOM     11  O   UNL     1       4.870   4.331  13.873  0.00  0.00    +0.000 OA
ATOM     12  H   UNL     1       7.444   2.781  12.867  0.00  0.00    +0.000 HD
ENDBRANCH   7  10
BRANCH   7  13
ATOM     13  O   UNL     1       7.950   5.640  14.034  0.00  0.00    +0.000 OA
ATOM     14  C   UNL     1       8.029   5.560  12.614  0.00  0.00    +0.000 C 
ENDBRANCH   7  13
ENDBRANCH   1   7
BRANCH   5  15
ATOM     15  C   UNL     1       4.038   6.976  17.822  0.00  0.00    +0.000 C 
BRANCH  15  16
ATOM     16  O   UNL     1       2.796   6.316  17.594  0.00  0.00    +0.000 OA
BRANCH  16  17
ATOM     17  C   UNL     1       2.444   5.342  18.500  0.00  0.00    +0.000 A 
ATOM     18  C   UNL     1       2.177   5.834  19.787  0.00  0.00    +0.000 A 
ATOM     19  C   UNL     1       1.872   4.976  20.851  0.00  0.00    +0.000 A 
ATOM     20  C   UNL     1       1.835   3.599  20.647  0.00  0.00    +0.000 A 
ATOM     21  C   UNL     1       1.535   2.639  21.761  0.00  0.00    +0.000 C 
ATOM     22  C   UNL     1       2.099   3.105  19.369  0.00  0.00    +0.000 A 
ATOM     23  C   UNL     1       2.429   3.954  18.290  0.00  0.00    +0.000 A 
ATOM     24  C   UNL     1       2.771   3.276  16.996  0.00  0.00    +0.000 C 
ENDBRANCH  16  17
ENDBRANCH  15  16
ENDBRANCH   5  15
TORSDOF 6
ENDMDL
MODEL 2
REMARK VINA RESULT:      -7.7      3.040      4.836
REMARK  Name = 
REMARK  10 active torsions:
REMARK  status: ('A' for Active; 'I' for Inactive)
REMARK    1  A    between atoms: C_1  and  N_2
REMARK    2  A    between atoms: C_3  and  C_5
REMARK    3  A    between atoms: C_5  and  O_6
REMARK    4  A    between atoms: C_5  and  C_8
REMARK    5  A    between atoms: O_6  and  C_7
REMARK    6  A    between atoms: C_12  and  C_13
REMARK    7  A    between atoms: C_13  and  O_14
REMARK    8  A    between atoms: O_14  and  C_15
REMARK    9  A    between atoms: C_18  and  C_19
REMARK   10  A    between atoms: C_21  and  C_22
REMARK                            x       y       z     vdW  Elec       q    Type
REMARK                         _______ _______ _______ _____ _____    ______ ____
ROOT
ATOM      1  C   UNL     1       4.277   4.340  17.219  0.00  0.00    +0.000 A 
ATOM      2  C   UNL     1       3.746   3.057  16.994  0.00  0.00    +0.000 A 
ATOM      3  C   UNL     1       2.611   2.622  17.674  0.00  0.00    +0.000 A 
ATOM      4  C   UNL     1       1.989   3.450  18.606  0.00  0.00    +0.000 A 
ATOM      5  C   UNL     1       2.502   4.725  18.865  0.00  0.00    +0.000 A 
ATOM      6  C   UNL     1       3.624   5.174  18.142  0.00  0.00    +0.000 A 
ENDROOT
BRANCH   1   7
ATOM      7  C   UNL     1       5.505   4.841  16.464  0.00  0.00    +0.000 C 
BRANCH   7  10
ATOM      8  C   UNL     1       7.633   7.845  17.526  0.00  0.00    +0.000 C 
ATOM      9  N   UNL     1       6.676   6.975  16.898  0.00  0.00    +0.000 N 
ATOM     10  C   UNL     1       6.499   5.674  17.333  0.00  0.00    +0.000 C 
ATOM     11  O   UNL     1       7.068   5.240  18.333  0.00  0.00    +0.000 OA
ATOM     12  H   UNL     1       6.097   7.302  16.131  0.00  0.00    +0.000 HD
ENDBRANCH   7  10
BRANCH   7  13
ATOM     13  O   UNL     1       6.133   3.807  15.688  0.00  0.00    +0.000 OA
ATOM     14  C   UNL     1       6.230   4.083  14.294  0.00  0.00    +0.000 C 
ENDBRANCH   7  13
ENDBRANCH   1   7
BRANCH   5  15
ATOM     15  C   UNL     1       1.911   5.581  19.964  0.00  0.00    +0.000 C 
BRANCH  15  16
ATOM     16  O   UNL     1       2.606   6.819  20.084  0.00  0.00    +0.000 OA
BRANCH  16  17
ATOM     17  C   UNL     1       1.835   7.959  20.064  0.00  0.00    +0.000 A 
ATOM     18  C   UNL     1       1.113   8.177  21.247  0.00  0.00    +0.000 A 
ATOM     19  C   UNL     1       0.223   9.251  21.375  0.00  0.00    +0.000 A 
ATOM     20  C   UNL     1       0.034  10.129  20.312  0.00  0.00    +0.000 A 
ATOM     21  C   UNL     1      -0.925  11.282  20.394  0.00  0.00    +0.000 C 
ATOM     22  C   UNL     1       0.750   9.917  19.133  0.00  0.00    +0.000 A 
ATOM     23  C   UNL     1       1.634   8.828  18.979  0.00  0.00    +0.000 A 
ATOM     24  C   UNL     1       2.269   8.678  17.628  0.00  0.00    +0.000 C 
ENDBRANCH  16  17
ENDBRANCH  15  16
ENDBRANCH   5  15
TORSDOF 6
ENDMDL
MODEL 3
REMARK VINA RESULT:      -7.7      3.362      5.087
REMARK  Name = 
REMARK  10 active torsions:
REMARK  status: ('A' for Active; 'I' for Inactive)
REMARK    1  A    between atoms: C_1  and  N_2
REMARK    2  A    between atoms: C_3  and  C_5
REMARK    3  A    between atoms: C_5  and  O_6
REMARK    4  A    between atoms: C_5  and  C_8
REMARK    5  A    between atoms: O_6  and  C_7
REMARK    6  A    between atoms: C_12  and  C_13
REMARK    7  A    between atoms: C_13  and  O_14
REMARK    8  A    between atoms: O_14  and  C_15
REMARK    9  A    between atoms: C_18  and  C_19
REMARK   10  A    between atoms: C_21  and  C_22
REMARK                            x       y       z     vdW  Elec       q    Type
REMARK                         _______ _______ _______ _____ _____    ______ ____
ROOT
ATOM      1  C   UNL     1       4.263   5.054  17.095  0.00  0.00    +0.000 A 
ATOM      2  C   UNL     1       3.568   3.852  16.870  0.00  0.00    +0.000 A 
ATOM      3  C   UNL     1       2.401   3.558  17.570  0.00  0.00    +0.000 A 
ATOM      4  C   UNL     1       1.908   4.448  18.522  0.00  0.00    +0.000 A 
ATOM      5  C   UNL     1       2.584   5.643  18.781  0.00  0.00    +0.000 A 
ATOM      6  C   UNL     1       3.740   5.955  18.038  0.00  0.00    +0.000 A 
ENDROOT
BRANCH   1   7
ATOM      7  C   UNL     1       5.530   5.402  16.319  0.00  0.00    +0.000 C 
BRANCH   7  10
ATOM      8  C   UNL     1       7.907   5.838  19.292  0.00  0.00    +0.000 C 
ATOM      9  N   UNL     1       6.961   5.334  18.334  0.00  0.00    +0.000 N 
ATOM     10  C   UNL     1       6.659   6.043  17.185  0.00  0.00    +0.000 C 
ATOM     11  O   UNL     1       7.258   7.073  16.881  0.00  0.00    +0.000 OA
ATOM     12  H   UNL     1       6.506   4.437  18.472  0.00  0.00    +0.000 HD
ENDBRANCH   7  10
BRANCH   7  13
ATOM     13  O   UNL     1       5.976   4.323  15.482  0.00  0.00    +0.000 OA
ATOM     14  C   UNL     1       6.579   4.727  14.256  0.00  0.00    +0.000 C 
ENDBRANCH   7  13
ENDBRANCH   1   7
BRANCH   5  15
ATOM     15  C   UNL     1       2.129   6.556  19.899  0.00  0.00    +0.000 C 
BRANCH  15  16
ATOM     16  O   UNL     1       2.091   7.915  19.473  0.00  0.00    +0.000 OA
BRANCH  16  17
ATOM     17  C   UNL     1       1.313   8.770  20.220  0.00  0.00    +0.000 A 
ATOM     18  C   UNL     1       1.420   8.571  21.605  0.00  0.00    +0.000 A 
ATOM     19  C   UNL     1       0.645   9.305  22.512  0.00  0.00    +0.000 A 
ATOM     20  C   UNL     1      -0.261  10.253  22.047  0.00  0.00    +0.000 A 
ATOM     21  C   UNL     1      -1.128  11.049  22.979  0.00  0.00    +0.000 C 
ATOM     22  C   UNL     1      -0.371  10.455  20.670  0.00  0.00    +0.000 A 
ATOM     23  C   UNL     1       0.386   9.710  19.741  0.00  0.00    +0.000 A 
ATOM     24  C   UNL     1       0.100   9.975  18.292  0.00  0.00    +0.000 C 
ENDBRANCH  16  17
ENDBRANCH  15  16
ENDBRANCH   5  15
TORSDOF 6
ENDMDL
MODEL 4
REMARK VINA RESULT:      -7.7      3.074      5.233
REMARK  Name = 
REMARK  10 active torsions:
REMARK  status: ('A' for Active; 'I' for Inactive)
REMARK    1  A    between atoms: C_1  and  N_2
REMARK    2  A    between atoms: C_3  and  C_5
REMARK    3  A    between atoms: C_5  and  O_6
REMARK    4  A    between atoms: C_5  and  C_8
REMARK    5  A    between atoms: O_6  and  C_7
REMARK    6  A    between atoms: C_12  and  C_13
REMARK    7  A    between atoms: C_13  and  O_14
REMARK    8  A    between atoms: O_14  and  C_15
REMARK    9  A    between atoms: C_18  and  C_19
REMARK   10  A    between atoms: C_21  and  C_22
REMARK                            x       y       z     vdW  Elec       q    Type
REMARK                         _______ _______ _______ _____ _____    ______ ____
ROOT
ATOM      1  C   UNL     1       3.589   3.950  19.064  0.00  0.00    +0.000 A 
ATOM      2  C   UNL     1       2.718   2.851  18.966  0.00  0.00    +0.000 A 
ATOM      3  C   UNL     1       1.425   2.914  19.478  0.00  0.00    +0.000 A 
ATOM      4  C   UNL     1       0.976   4.070  20.113  0.00  0.00    +0.000 A 
ATOM      5  C   UNL     1       1.823   5.174  20.242  0.00  0.00    +0.000 A 
ATOM      6  C   UNL     1       3.115   5.118  19.683  0.00  0.00    +0.000 A 
ENDROOT
BRANCH   1   7
ATOM      7  C   UNL     1       5.002   3.905  18.487  0.00  0.00    +0.000 C 
BRANCH   7  10
ATOM      8  C   UNL     1       6.122   3.929  14.822  0.00  0.00    +0.000 C 
ATOM      9  N   UNL     1       5.842   3.568  16.186  0.00  0.00    +0.000 N 
ATOM     10  C   UNL     1       5.109   4.402  17.011  0.00  0.00    +0.000 C 
ATOM     11  O   UNL     1       4.579   5.429  16.591  0.00  0.00    +0.000 OA
ATOM     12  H   UNL     1       6.163   2.684  16.568  0.00  0.00    +0.000 HD
ENDBRANCH   7  10
BRANCH   7  13
ATOM     13  O   UNL     1       5.976   4.483  19.370  0.00  0.00    +0.000 OA
ATOM     14  C   UNL     1       6.833   5.447  18.765  0.00  0.00    +0.000 C 
ENDBRANCH   7  13
ENDBRANCH   1   7
BRANCH   5  15
ATOM     15  C   UNL     1       1.390   6.385  21.039  0.00  0.00    +0.000 C 
BRANCH  15  16
ATOM     16  O   UNL     1       2.127   7.544  20.661  0.00  0.00    +0.000 OA
BRANCH  16  17
ATOM     17  C   UNL     1       1.429   8.525  19.995  0.00  0.00    +0.000 A 
ATOM     18  C   UNL     1       0.424   9.129  20.766  0.00  0.00    +0.000 A 
ATOM     19  C   UNL     1      -0.432  10.098  20.226  0.00  0.00    +0.000 A 
ATOM     20  C   UNL     1      -0.300  10.478  18.894  0.00  0.00    +0.000 A 
ATOM     21  C   UNL     1      -1.207  11.496  18.265  0.00  0.00    +0.000 C 
ATOM     22  C   UNL     1       0.698   9.881  18.123  0.00  0.00    +0.000 A 
ATOM     23  C   UNL     1       1.555   8.888  18.644  0.00  0.00    +0.000 A 
ATOM     24  C   UNL     1       2.523   8.275  17.676  0.00  0.00    +0.000 C 
ENDBRANCH  16  17
ENDBRANCH  15  16
ENDBRANCH   5  15
TORSDOF 6
ENDMDL
MODEL 5
REMARK VINA RESULT:      -7.7      3.112      5.128
REMARK  Name = 
REMARK  10 active torsions:
REMARK  status: ('A' for Active; 'I' for Inactive)
REMARK    1  A    between atoms: C_1  and  N_2
REMARK    2  A    between atoms: C_3  and  C_5
REMARK    3  A    between atoms: C_5  and  O_6
REMARK    4  A    between atoms: C_5  and  C_8
REMARK    5  A    between atoms: O_6  and  C_7
REMARK    6  A    between atoms: C_12  and  C_13
REMARK    7  A    between atoms: C_13  and  O_14
REMARK    8  A    between atoms: O_14  and  C_15
REMARK    9  A    between atoms: C_18  and  C_19
REMARK   10  A    between atoms: C_21  and  C_22
REMARK                            x       y       z     vdW  Elec       q    Type
REMARK                         _______ _______ _______ _____ _____    ______ ____
ROOT
ATOM      1  C   UNL     1       3.757   4.314  17.611  0.00  0.00    +0.000 A 
ATOM      2  C   UNL     1       3.191   3.031  17.509  0.00  0.00    +0.000 A 
ATOM      3  C   UNL     1       2.091   2.670  18.283  0.00  0.00    +0.000 A 
ATOM      4  C   UNL     1       1.540   3.575  19.187  0.00  0.00    +0.000 A 
ATOM      5  C   UNL     1       2.090   4.852  19.325  0.00  0.00    +0.000 A 
ATOM      6  C   UNL     1       3.175   5.225  18.508  0.00  0.00    +0.000 A 
ENDROOT
BRANCH   1   7
ATOM      7  C   UNL     1       4.947   4.733  16.752  0.00  0.00    +0.000 C 
BRANCH   7  10
ATOM      8  C   UNL     1       7.629   5.581  19.355  0.00  0.00    +0.000 C 
ATOM      9  N   UNL     1       6.687   4.909  18.500  0.00  0.00    +0.000 N 
ATOM     10  C   UNL     1       6.012   5.592  17.504  0.00  0.00    +0.000 C 
ATOM     11  O   UNL     1       6.262   6.766  17.237  0.00  0.00    +0.000 OA
ATOM     12  H   UNL     1       6.510   3.915  18.599  0.00  0.00    +0.000 HD
ENDBRANCH   7  10
BRANCH   7  13
ATOM     13  O   UNL     1       5.502   3.636  16.008  0.00  0.00    +0.000 OA
ATOM     14  C   UNL     1       6.422   4.012  14.988  0.00  0.00    +0.000 C 
ENDBRANCH   7  13
ENDBRANCH   1   7
BRANCH   5  15
ATOM     15  C   UNL     1       1.580   5.796  20.392  0.00  0.00    +0.000 C 
BRANCH  15  16
ATOM     16  O   UNL     1       2.294   7.030  20.375  0.00  0.00    +0.000 OA
BRANCH  16  17
ATOM     17  C   UNL     1       1.541   8.173  20.239  0.00  0.00    +0.000 A 
ATOM     18  C   UNL     1       0.762   8.476  21.366  0.00  0.00    +0.000 A 
ATOM     19  C   UNL     1      -0.119   9.566  21.377  0.00  0.00    +0.000 A 
ATOM     20  C   UNL     1      -0.242  10.372  20.249  0.00  0.00    +0.000 A 
ATOM     21  C   UNL     1      -1.188  11.537  20.205  0.00  0.00    +0.000 C 
ATOM     22  C   UNL     1       0.530  10.075  19.126  0.00  0.00    +0.000 A 
ATOM     23  C   UNL     1       1.407   8.969  19.090  0.00  0.00    +0.000 A 
ATOM     24  C   UNL     1       2.108   8.723  17.786  0.00  0.00    +0.000 C 
ENDBRANCH  16  17
ENDBRANCH  15  16
ENDBRANCH   5  15
TORSDOF 6
ENDMDL
MODEL 6
REMARK VINA RESULT:      -7.6      3.312      5.260
REMARK  Name = 
REMARK  10 active torsions:
REMARK  status: ('A' for Active; 'I' for Inactive)
REMARK    1  A    between atoms: C_1  and  N_2
REMARK    2  A    between atoms: C_3  and  C_5
REMARK    3  A    between atoms: C_5  and  O_6
REMARK    4  A    between atoms: C_5  and  C_8
REMARK    5  A    between atoms: O_6  and  C_7
REMARK    6  A    between atoms: C_12  and  C_13
REMARK    7  A    between atoms: C_13  and  O_14
REMARK    8  A    between atoms: O_14  and  C_15
REMARK    9  A    between atoms: C_18  and  C_19
REMARK   10  A    between atoms: C_21  and  C_22
REMARK                            x       y       z     vdW  Elec       q    Type
REMARK                         _______ _______ _______ _____ _____    ______ ____
ROOT
ATOM      1  C   UNL     1       4.208   4.752  17.243  0.00  0.00    +0.000 A 
ATOM      2  C   UNL     1       3.503   3.573  16.944  0.00  0.00    +0.000 A 
ATOM      3  C   UNL     1       2.315   3.263  17.602  0.00  0.00    +0.000 A 
ATOM      4  C   UNL     1       1.812   4.114  18.584  0.00  0.00    +0.000 A 
ATOM      5  C   UNL     1       2.499   5.286  18.916  0.00  0.00    +0.000 A 
ATOM      6  C   UNL     1       3.676   5.615  18.216  0.00  0.00    +0.000 A 
ENDROOT
BRANCH   1   7
ATOM      7  C   UNL     1       5.498   5.118  16.514  0.00  0.00    +0.000 C 
BRANCH   7  10
ATOM      8  C   UNL     1       7.771   8.004  17.605  0.00  0.00    +0.000 C 
ATOM      9  N   UNL     1       6.771   7.188  16.970  0.00  0.00    +0.000 N 
ATOM     10  C   UNL     1       6.535   5.891  17.389  0.00  0.00    +0.000 C 
ATOM     11  O   UNL     1       7.088   5.417  18.379  0.00  0.00    +0.000 OA
ATOM     12  H   UNL     1       6.205   7.553  16.211  0.00  0.00    +0.000 HD
ENDBRANCH   7  10
BRANCH   7  13
ATOM     13  O   UNL     1       6.056   4.008  15.792  0.00  0.00    +0.000 OA
ATOM     14  C   UNL     1       6.515   4.319  14.480  0.00  0.00    +0.000 C 
ENDBRANCH   7  13
ENDBRANCH   1   7
BRANCH   5  15
ATOM     15  C   UNL     1       2.030   6.150  20.066  0.00  0.00    +0.000 C 
BRANCH  15  16
ATOM     16  O   UNL     1       2.513   7.485  19.940  0.00  0.00    +0.000 OA
BRANCH  16  17
ATOM     17  C   UNL     1       1.572   8.456  19.689  0.00  0.00    +0.000 A 
ATOM     18  C   UNL     1       1.464   8.806  18.335  0.00  0.00    +0.000 A 
ATOM     19  C   UNL     1       0.605   9.828  17.908  0.00  0.00    +0.000 A 
ATOM     20  C   UNL     1      -0.161  10.527  18.836  0.00  0.00    +0.000 A 
ATOM     21  C   UNL     1      -1.078  11.643  18.429  0.00  0.00    +0.000 C 
ATOM     22  C   UNL     1      -0.057  10.182  20.184  0.00  0.00    +0.000 A 
ATOM     23  C   UNL     1       0.818   9.171  20.635  0.00  0.00    +0.000 A 
ATOM     24  C   UNL     1       0.887   8.969  22.120  0.00  0.00    +0.000 C 
ENDBRANCH  16  17
ENDBRANCH  15  16
ENDBRANCH   5  15
TORSDOF 6
ENDMDL
MODEL 7
REMARK VINA RESULT:      -7.6      5.416      8.418
REMARK  Name = 
REMARK  10 active torsions:
REMARK  status: ('A' for Active; 'I' for Inactive)
REMARK    1  A    between atoms: C_1  and  N_2
REMARK    2  A    between atoms: C_3  and  C_5
REMARK    3  A    between atoms: C_5  and  O_6
REMARK    4  A    between atoms: C_5  and  C_8
REMARK    5  A    between atoms: O_6  and  C_7
REMARK    6  A    between atoms: C_12  and  C_13
REMARK    7  A    between atoms: C_13  and  O_14
REMARK    8  A    between atoms: O_14  and  C_15
REMARK    9  A    between atoms: C_18  and  C_19
REMARK   10  A    between atoms: C_21  and  C_22
REMARK                            x       y       z     vdW  Elec       q    Type
REMARK                         _______ _______ _______ _____ _____    ______ ____
ROOT
ATOM      1  C   UNL     1      -0.334  10.821  19.057  0.00  0.00    +0.000 A 
ATOM      2  C   UNL     1      -0.549  10.484  20.405  0.00  0.00    +0.000 A 
ATOM      3  C   UNL     1       0.204   9.489  21.023  0.00  0.00    +0.000 A 
ATOM      4  C   UNL     1       1.177   8.796  20.307  0.00  0.00    +0.000 A 
ATOM      5  C   UNL     1       1.404   9.096  18.960  0.00  0.00    +0.000 A 
ATOM      6  C   UNL     1       0.669  10.133  18.354  0.00  0.00    +0.000 A 
ENDROOT
BRANCH   1   7
ATOM      7  C   UNL     1      -1.133  11.927  18.372  0.00  0.00    +0.000 C 
BRANCH   7  10
ATOM      8  C   UNL     1      -3.284  10.916  15.366  0.00  0.00    +0.000 C 
ATOM      9  N   UNL     1      -2.198  11.274  16.238  0.00  0.00    +0.000 N 
ATOM     10  C   UNL     1      -2.393  11.425  17.599  0.00  0.00    +0.000 C 
ATOM     11  O   UNL     1      -3.468  11.159  18.135  0.00  0.00    +0.000 OA
ATOM     12  H   UNL     1      -1.259  11.407  15.875  0.00  0.00    +0.000 HD
ENDBRANCH   7  10
BRANCH   7  13
ATOM     13  O   UNL     1      -1.388  13.041  19.242  0.00  0.00    +0.000 OA
ATOM     14  C   UNL     1      -0.461  14.117  19.121  0.00  0.00    +0.000 C 
ENDBRANCH   7  13
ENDBRANCH   1   7
BRANCH   5  15
ATOM     15  C   UNL     1       2.368   8.266  18.141  0.00  0.00    +0.000 C 
BRANCH  15  16
ATOM     16  O   UNL     1       2.317   6.892  18.518  0.00  0.00    +0.000 OA
BRANCH  16  17
ATOM     17  C   UNL     1       3.178   6.044  17.861  0.00  0.00    +0.000 A 
ATOM     18  C   UNL     1       4.286   6.689  17.292  0.00  0.00    +0.000 A 
ATOM     19  C   UNL     1       5.228   5.989  16.527  0.00  0.00    +0.000 A 
ATOM     20  C   UNL     1       5.073   4.623  16.310  0.00  0.00    +0.000 A 
ATOM     21  C   UNL     1       6.043   3.835  15.479  0.00  0.00    +0.000 C 
ATOM     22  C   UNL     1       3.972   3.977  16.875  0.00  0.00    +0.000 A 
ATOM     23  C   UNL     1       3.002   4.669  17.630  0.00  0.00    +0.000 A 
ATOM     24  C   UNL     1       1.830   3.860  18.102  0.00  0.00    +0.000 C 
ENDBRANCH  16  17
ENDBRANCH  15  16
ENDBRANCH   5  15
TORSDOF 6
ENDMDL
MODEL 8
REMARK VINA RESULT:      -7.5      5.237      7.525
REMARK  Name = 
REMARK  10 active torsions:
REMARK  status: ('A' for Active; 'I' for Inactive)
REMARK    1  A    between atoms: C_1  and  N_2
REMARK    2  A    between atoms: C_3  and  C_5
REMARK    3  A    between atoms: C_5  and  O_6
REMARK    4  A    between atoms: C_5  and  C_8
REMARK    5  A    between atoms: O_6  and  C_7
REMARK    6  A    between atoms: C_12  and  C_13
REMARK    7  A    between atoms: C_13  and  O_14
REMARK    8  A    between atoms: O_14  and  C_15
REMARK    9  A    between atoms: C_18  and  C_19
REMARK   10  A    between atoms: C_21  and  C_22
REMARK                            x       y       z     vdW  Elec       q    Type
REMARK                         _______ _______ _______ _____ _____    ______ ____
ROOT
ATOM      1  C   UNL     1       6.729   5.748  17.039  0.00  0.00    +0.000 A 
ATOM      2  C   UNL     1       7.235   5.088  18.173  0.00  0.00    +0.000 A 
ATOM      3  C   UNL     1       8.009   5.768  19.110  0.00  0.00    +0.000 A 
ATOM      4  C   UNL     1       8.308   7.116  18.930  0.00  0.00    +0.000 A 
ATOM      5  C   UNL     1       7.833   7.797  17.805  0.00  0.00    +0.000 A 
ATOM      6  C   UNL     1       7.015   7.114  16.884  0.00  0.00    +0.000 A 
ENDROOT
BRANCH   1   7
ATOM      7  C   UNL     1       5.859   5.023  16.015  0.00  0.00    +0.000 C 
BRANCH   7  10
ATOM      8  C   UNL     1       6.381   3.574  12.506  0.00  0.00    +0.000 C 
ATOM      9  N   UNL     1       5.839   3.969  13.778  0.00  0.00    +0.000 N 
ATOM     10  C   UNL     1       6.548   4.793  14.633  0.00  0.00    +0.000 C 
ATOM     11  O   UNL     1       7.616   5.306  14.304  0.00  0.00    +0.000 OA
ATOM     12  H   UNL     1       4.916   3.664  14.069  0.00  0.00    +0.000 HD
ENDBRANCH   7  10
BRANCH   7  13
ATOM     13  O   UNL     1       5.233   3.849  16.557  0.00  0.00    +0.000 OA
ATOM     14  C   UNL     1       3.924   4.058  17.080  0.00  0.00    +0.000 C 
ENDBRANCH   7  13
ENDBRANCH   1   7
BRANCH   5  15
ATOM     15  C   UNL     1       8.256   9.224  17.537  0.00  0.00    +0.000 C 
BRANCH  15  16
ATOM     16  O   UNL     1       8.341   9.974  18.745  0.00  0.00    +0.000 OA
BRANCH  16  17
ATOM     17  C   UNL     1       9.213  11.038  18.747  0.00  0.00    +0.000 A 
ATOM     18  C   UNL     1      10.320  10.863  19.592  0.00  0.00    +0.000 A 
ATOM     19  C   UNL     1      11.273  11.874  19.771  0.00  0.00    +0.000 A 
ATOM     20  C   UNL     1      11.131  13.089  19.107  0.00  0.00    +0.000 A 
ATOM     21  C   UNL     1      12.115  14.210  19.284  0.00  0.00    +0.000 C 
ATOM     22  C   UNL     1      10.033  13.268  18.266  0.00  0.00    +0.000 A 
ATOM     23  C   UNL     1       9.052  12.269  18.090  0.00  0.00    +0.000 A 
ATOM     24  C   UNL     1       7.883  12.634  17.223  0.00  0.00    +0.000 C 
ENDBRANCH  16  17
ENDBRANCH  15  16
ENDBRANCH   5  15
TORSDOF 6
ENDMDL
MODEL 9
REMARK VINA RESULT:      -7.5      4.015      5.678
REMARK  Name = 
REMARK  10 active torsions:
REMARK  status: ('A' for Active; 'I' for Inactive)
REMARK    1  A    between atoms: C_1  and  N_2
REMARK    2  A    between atoms: C_3  and  C_5
REMARK    3  A    between atoms: C_5  and  O_6
REMARK    4  A    between atoms: C_5  and  C_8
REMARK    5  A    between atoms: O_6  and  C_7
REMARK    6  A    between atoms: C_12  and  C_13
REMARK    7  A    between atoms: C_13  and  O_14
REMARK    8  A    between atoms: O_14  and  C_15
REMARK    9  A    between atoms: C_18  and  C_19
REMARK   10  A    between atoms: C_21  and  C_22
REMARK                            x       y       z     vdW  Elec       q    Type
REMARK                         _______ _______ _______ _____ _____    ______ ____
ROOT
ATOM      1  C   UNL     1       5.271   6.004  17.338  0.00  0.00    +0.000 A 
ATOM      2  C   UNL     1       4.855   4.726  17.751  0.00  0.00    +0.000 A 
ATOM      3  C   UNL     1       3.549   4.501  18.178  0.00  0.00    +0.000 A 
ATOM      4  C   UNL     1       2.632   5.549  18.217  0.00  0.00    +0.000 A 
ATOM      5  C   UNL     1       3.018   6.835  17.829  0.00  0.00    +0.000 A 
ATOM      6  C   UNL     1       4.328   7.046  17.357  0.00  0.00    +0.000 A 
ENDROOT
BRANCH   1   7
ATOM      7  C   UNL     1       6.692   6.261  16.844  0.00  0.00    +0.000 C 
BRANCH   7  10
ATOM      8  C   UNL     1       8.485   9.365  18.199  0.00  0.00    +0.000 C 
ATOM      9  N   UNL     1       7.642   8.457  17.469  0.00  0.00    +0.000 N 
ATOM     10  C   UNL     1       7.564   7.119  17.813  0.00  0.00    +0.000 C 
ATOM     11  O   UNL     1       8.124   6.672  18.813  0.00  0.00    +0.000 OA
ATOM     12  H   UNL     1       7.072   8.782  16.695  0.00  0.00    +0.000 HD
ENDBRANCH   7  10
BRANCH   7  13
ATOM     13  O   UNL     1       7.339   5.065  16.381  0.00  0.00    +0.000 OA
ATOM     14  C   UNL     1       7.016   4.691  15.045  0.00  0.00    +0.000 C 
ENDBRANCH   7  13
ENDBRANCH   1   7
BRANCH   5  15
ATOM     15  C   UNL     1       2.069   8.002  17.987  0.00  0.00    +0.000 C 
BRANCH  15  16
ATOM     16  O   UNL     1       1.958   8.397  19.352  0.00  0.00    +0.000 OA
BRANCH  16  17
ATOM     17  C   UNL     1       0.978   9.317  19.646  0.00  0.00    +0.000 A 
ATOM     18  C   UNL     1       0.429   9.942  18.517  0.00  0.00    +0.000 A 
ATOM     19  C   UNL     1      -0.531  10.956  18.634  0.00  0.00    +0.000 A 
ATOM     20  C   UNL     1      -0.956  11.370  19.894  0.00  0.00    +0.000 A 
ATOM     21  C   UNL     1      -1.966  12.466  20.071  0.00  0.00    +0.000 C 
ATOM     22  C   UNL     1      -0.413  10.750  21.020  0.00  0.00    +0.000 A 
ATOM     23  C   UNL     1       0.570   9.743  20.921  0.00  0.00    +0.000 A 
ATOM     24  C   UNL     1       1.124   9.229  22.218  0.00  0.00    +0.000 C 
ENDBRANCH  16  17
ENDBRANCH  15  16
ENDBRANCH   5  15
TORSDOF 6
ENDMDL
