MODEL 1
REMARK VINA RESULT:      -7.5      0.000      0.000
REMARK  Name = 
REMARK  9 active torsions:
REMARK  status: ('A' for Active; 'I' for Inactive)
REMARK    1  A    between atoms: C_1  and  O_2
REMARK    2  A    between atoms: O_2  and  C_3
REMARK    3  A    between atoms: C_6  and  N_7
REMARK    4  A    between atoms: N_7  and  S_8
REMARK    5  A    between atoms: S_8  and  C_11
REMARK    6  A    between atoms: C_14  and  N_15
REMARK    7  A    between atoms: C_16  and  C_17
REMARK    8  A    between atoms: C_21  and  O_22
REMARK    9  A    between atoms: O_22  and  C_23
REMARK                            x       y       z     vdW  Elec       q    Type
REMARK                         _______ _______ _______ _____ _____    ______ ____
ROOT
ATOM      1  S   UNL     1       2.694   3.190  17.731  0.00  0.00    +0.000 S 
ATOM      2  O   UNL     1       2.532   3.567  16.346  0.00  0.00    +0.000 OA
ATOM      3  O   UNL     1       1.912   2.127  18.329  0.00  0.00    +0.000 OA
ENDROOT
BRANCH   1   4
ATOM      4  C   UNL     1       2.413   4.635  18.737  0.00  0.00    +0.000 A 
ATOM      5  C   UNL     1       2.072   4.494  20.079  0.00  0.00    +0.000 A 
ATOM      6  C   UNL     1       1.819   5.631  20.851  0.00  0.00    +0.000 A 
ATOM      7  C   UNL     1       1.916   6.914  20.301  0.00  0.00    +0.000 A 
ATOM      8  C   UNL     1       2.293   7.043  18.957  0.00  0.00    +0.000 A 
ATOM      9  C   UNL     1       2.551   5.909  18.175  0.00  0.00    +0.000 A 
BRANCH   7  10
ATOM     10  N   UNL     1       1.659   8.098  21.032  0.00  0.00    +0.000 N 
ATOM     11  C   UNL     1       0.450   8.484  21.587  0.00  0.00    +0.000 C 
ATOM     12  C   UNL     1       0.515   9.802  22.315  0.00  0.00    +0.000 C 
ATOM     13  O   UNL     1      -0.617   7.884  21.511  0.00  0.00    +0.000 OA
ATOM     14  H   UNL     1       2.444   8.726  21.158  0.00  0.00    +0.000 HD
ENDBRANCH   7  10
ENDBRANCH   1   4
BRANCH   1  15
ATOM     15  N   UNL     1       4.315   2.845  18.061  0.00  0.00    +0.000 N 
ATOM     16  H   UNL     1       4.434   2.129  18.772  0.00  0.00    +0.000 HD
BRANCH  15  20
ATOM     17  C   UNL     1       7.128   6.005  18.095  0.00  0.00    +0.000 A 
ATOM     18  C   UNL     1       6.469   5.630  19.268  0.00  0.00    +0.000 A 
ATOM     19  C   UNL     1       5.541   4.588  19.264  0.00  0.00    +0.000 A 
ATOM     20  C   UNL     1       5.257   3.920  18.073  0.00  0.00    +0.000 A 
ATOM     21  C   UNL     1       5.899   4.298  16.880  0.00  0.00    +0.000 A 
ATOM     22  C   UNL     1       6.836   5.340  16.901  0.00  0.00    +0.000 A 
BRANCH  17  24
ATOM     23  C   UNL     1       7.747   8.259  17.637  0.00  0.00    +0.000 C 
ATOM     24  O   UNL     1       8.043   7.010  18.251  0.00  0.00    +0.000 OA
ENDBRANCH  17  24
BRANCH  21  25
ATOM     25  O   UNL     1       5.621   3.540  15.769  0.00  0.00    +0.000 OA
ATOM     26  C   UNL     1       6.103   4.027  14.524  0.00  0.00    +0.000 C 
ENDBRANCH  21  25
ENDBRANCH  15  20
ENDBRANCH   1  15
TORSDOF 6
ENDMDL
MODEL 2
REMARK VINA RESULT:      -7.5      0.210      1.007
REMARK  Name = 
REMARK  9 active torsions:
REMARK  status: ('A' for Active; 'I' for Inactive)
REMARK    1  A    between atoms: C_1  and  O_2
REMARK    2  A    between atoms: O_2  and  C_3
REMARK    3  A    between atoms: C_6  and  N_7
REMARK    4  A    between atoms: N_7  and  S_8
REMARK    5  A    between atoms: S_8  and  C_11
REMARK    6  A    between atoms: C_14  and  N_15
REMARK    7  A    between atoms: C_16  and  C_17
REMARK    8  A    between atoms: C_21  and  O_22
REMARK    9  A    between atoms: O_22  and  C_23
REMARK                            x       y       z     vdW  Elec       q    Type
REMARK                         _______ _______ _______ _____ _____    ______ ____
ROOT
ATOM      1  S   UNL     1       2.731   3.096  17.652  0.00  0.00    +0.000 S 
ATOM      2  O   UNL     1       2.520   3.496  16.280  0.00  0.00    +0.000 OA
ATOM      3  O   UNL     1       1.990   2.005  18.250  0.00  0.00    +0.000 OA
ENDROOT
BRANCH   1   4
ATOM      4  C   UNL     1       2.448   4.514  18.695  0.00  0.00    +0.000 A 
ATOM      5  C   UNL     1       2.493   5.796  18.156  0.00  0.00    +0.000 A 
ATOM      6  C   UNL     1       2.305   6.903  18.989  0.00  0.00    +0.000 A 
ATOM      7  C   UNL     1       2.056   6.744  20.356  0.00  0.00    +0.000 A 
ATOM      8  C   UNL     1       1.979   5.446  20.880  0.00  0.00    +0.000 A 
ATOM      9  C   UNL     1       2.165   4.330  20.053  0.00  0.00    +0.000 A 
BRANCH   7  10
ATOM     10  N   UNL     1       1.871   7.828  21.247  0.00  0.00    +0.000 N 
ATOM     11  C   UNL     1       0.669   8.433  21.576  0.00  0.00    +0.000 C 
ATOM     12  C   UNL     1       0.814   9.558  22.568  0.00  0.00    +0.000 C 
ATOM     13  O   UNL     1      -0.438   8.158  21.127  0.00  0.00    +0.000 OA
ATOM     14  H   UNL     1       2.706   8.196  21.684  0.00  0.00    +0.000 HD
ENDBRANCH   7  10
ENDBRANCH   1   4
BRANCH   1  15
ATOM     15  N   UNL     1       4.368   2.781  17.927  0.00  0.00    +0.000 N 
ATOM     16  H   UNL     1       4.523   2.023  18.585  0.00  0.00    +0.000 HD
BRANCH  15  20
ATOM     17  C   UNL     1       7.085   6.017  18.124  0.00  0.00    +0.000 A 
ATOM     18  C   UNL     1       6.434   5.568  19.275  0.00  0.00    +0.000 A 
ATOM     19  C   UNL     1       5.537   4.500  19.217  0.00  0.00    +0.000 A 
ATOM     20  C   UNL     1       5.278   3.881  17.995  0.00  0.00    +0.000 A 
ATOM     21  C   UNL     1       5.912   4.334  16.824  0.00  0.00    +0.000 A 
ATOM     22  C   UNL     1       6.817   5.401  16.899  0.00  0.00    +0.000 A 
BRANCH  17  24
ATOM     23  C   UNL     1       7.749   8.246  17.609  0.00  0.00    +0.000 C 
ATOM     24  O   UNL     1       7.969   7.041  18.332  0.00  0.00    +0.000 OA
ENDBRANCH  17  24
BRANCH  21  25
ATOM     25  O   UNL     1       5.660   3.622  15.677  0.00  0.00    +0.000 OA
ATOM     26  C   UNL     1       6.199   4.141  14.468  0.00  0.00    +0.000 C 
ENDBRANCH  21  25
ENDBRANCH  15  20
ENDBRANCH   1  15
TORSDOF 6
ENDMDL
MODEL 3
REMARK VINA RESULT:      -7.2      1.465      2.663
REMARK  Name = 
REMARK  9 active torsions:
REMARK  status: ('A' for Active; 'I' for Inactive)
REMARK    1  A    between atoms: C_1  and  O_2
REMARK    2  A    between atoms: O_2  and  C_3
REMARK    3  A    between atoms: C_6  and  N_7
REMARK    4  A    between atoms: N_7  and  S_8
REMARK    5  A    between atoms: S_8  and  C_11
REMARK    6  A    between atoms: C_14  and  N_15
REMARK    7  A    between atoms: C_16  and  C_17
REMARK    8  A    between atoms: C_21  and  O_22
REMARK    9  A    between atoms: O_22  and  C_23
REMARK                            x       y       z     vdW  Elec       q    Type
REMARK                         _______ _______ _______ _____ _____    ______ ____
ROOT
ATOM      1  S   UNL     1       2.796   3.166  18.082  0.00  0.00    +0.000 S 
ATOM      2  O   UNL     1       2.444   3.283  16.686  0.00  0.00    +0.000 OA
ATOM      3  O   UNL     1       2.222   2.140  18.929  0.00  0.00    +0.000 OA
ENDROOT
BRANCH   1   4
ATOM      4  C   UNL     1       2.437   4.720  18.879  0.00  0.00    +0.000 A 
ATOM      5  C   UNL     1       2.765   5.917  18.251  0.00  0.00    +0.000 A 
ATOM      6  C   UNL     1       2.513   7.130  18.899  0.00  0.00    +0.000 A 
ATOM      7  C   UNL     1       1.921   7.162  20.166  0.00  0.00    +0.000 A 
ATOM      8  C   UNL     1       1.563   5.949  20.773  0.00  0.00    +0.000 A 
ATOM      9  C   UNL     1       1.811   4.729  20.130  0.00  0.00    +0.000 A 
BRANCH   7  10
ATOM     10  N   UNL     1       1.654   8.358  20.872  0.00  0.00    +0.000 N 
ATOM     11  C   UNL     1       0.883   9.424  20.437  0.00  0.00    +0.000 C 
ATOM     12  C   UNL     1       0.787  10.546  21.438  0.00  0.00    +0.000 C 
ATOM     13  O   UNL     1       0.327   9.531  19.349  0.00  0.00    +0.000 OA
ATOM     14  H   UNL     1       2.073   8.439  21.791  0.00  0.00    +0.000 HD
ENDBRANCH   7  10
ENDBRANCH   1   4
BRANCH   1  15
ATOM     15  N   UNL     1       4.472   3.061  18.258  0.00  0.00    +0.000 N 
ATOM     16  H   UNL     1       4.776   3.114  19.226  0.00  0.00    +0.000 HD
BRANCH  15  20
ATOM     17  C   UNL     1       6.930   4.990  15.406  0.00  0.00    +0.000 A 
ATOM     18  C   UNL     1       5.824   4.242  14.997  0.00  0.00    +0.000 A 
ATOM     19  C   UNL     1       5.008   3.604  15.933  0.00  0.00    +0.000 A 
ATOM     20  C   UNL     1       5.307   3.703  17.292  0.00  0.00    +0.000 A 
ATOM     21  C   UNL     1       6.428   4.439  17.718  0.00  0.00    +0.000 A 
ATOM     22  C   UNL     1       7.232   5.082  16.767  0.00  0.00    +0.000 A 
BRANCH  17  24
ATOM     23  C   UNL     1       7.579   4.967  13.114  0.00  0.00    +0.000 C 
ATOM     24  O   UNL     1       7.615   5.597  14.389  0.00  0.00    +0.000 OA
ENDBRANCH  17  24
BRANCH  21  25
ATOM     25  O   UNL     1       6.607   4.551  19.074  0.00  0.00    +0.000 OA
ATOM     26  C   UNL     1       7.384   5.650  19.530  0.00  0.00    +0.000 C 
ENDBRANCH  21  25
ENDBRANCH  15  20
ENDBRANCH   1  15
TORSDOF 6
ENDMDL
MODEL 4
REMARK VINA RESULT:      -7.1      2.604      3.756
REMARK  Name = 
REMARK  9 active torsions:
REMARK  status: ('A' for Active; 'I' for Inactive)
REMARK    1  A    between atoms: C_1  and  O_2
REMARK    2  A    between atoms: O_2  and  C_3
REMARK    3  A    between atoms: C_6  and  N_7
REMARK    4  A    between atoms: N_7  and  S_8
REMARK    5  A    between atoms: S_8  and  C_11
REMARK    6  A    between atoms: C_14  and  N_15
REMARK    7  A    between atoms: C_16  and  C_17
REMARK    8  A    between atoms: C_21  and  O_22
REMARK    9  A    between atoms: O_22  and  C_23
REMARK                            x       y       z     vdW  Elec       q    Type
REMARK                         _______ _______ _______ _____ _____    ______ ____
ROOT
ATOM      1  S   UNL     1       3.109   5.703  19.061  0.00  0.00    +0.000 S 
ATOM      2  O   UNL     1       2.590   4.975  17.927  0.00  0.00    +0.000 OA
ATOM      3  O   UNL     1       3.053   5.164  20.404  0.00  0.00    +0.000 OA
ENDROOT
BRANCH   1   4
ATOM      4  C   UNL     1       2.288   7.285  19.130  0.00  0.00    +0.000 A 
ATOM      5  C   UNL     1       2.206   8.078  17.990  0.00  0.00    +0.000 A 
ATOM      6  C   UNL     1       1.592   9.331  18.063  0.00  0.00    +0.000 A 
ATOM      7  C   UNL     1       1.042   9.798  19.262  0.00  0.00    +0.000 A 
ATOM      8  C   UNL     1       1.100   8.973  20.395  0.00  0.00    +0.000 A 
ATOM      9  C   UNL     1       1.713   7.715  20.331  0.00  0.00    +0.000 A 
BRANCH   7  10
ATOM     10  N   UNL     1       0.419  11.061  19.396  0.00  0.00    +0.000 N 
ATOM     11  C   UNL     1      -0.794  11.450  18.852  0.00  0.00    +0.000 C 
ATOM     12  C   UNL     1      -1.182  12.865  19.194  0.00  0.00    +0.000 C 
ATOM     13  O   UNL     1      -1.523  10.778  18.130  0.00  0.00    +0.000 OA
ATOM     14  H   UNL     1       0.918  11.750  19.946  0.00  0.00    +0.000 HD
ENDBRANCH   7  10
ENDBRANCH   1   4
BRANCH   1  15
ATOM     15  N   UNL     1       4.713   6.155  18.784  0.00  0.00    +0.000 N 
ATOM     16  H   UNL     1       4.921   7.101  19.092  0.00  0.00    +0.000 HD
BRANCH  15  20
ATOM     17  C   UNL     1       6.627   4.890  15.230  0.00  0.00    +0.000 A 
ATOM     18  C   UNL     1       5.482   5.688  15.172  0.00  0.00    +0.000 A 
ATOM     19  C   UNL     1       4.846   6.109  16.342  0.00  0.00    +0.000 A 
ATOM     20  C   UNL     1       5.352   5.721  17.581  0.00  0.00    +0.000 A 
ATOM     21  C   UNL     1       6.494   4.903  17.655  0.00  0.00    +0.000 A 
ATOM     22  C   UNL     1       7.128   4.495  16.473  0.00  0.00    +0.000 A 
BRANCH  17  24
ATOM     23  C   UNL     1       6.380   3.815  13.118  0.00  0.00    +0.000 C 
ATOM     24  O   UNL     1       7.172   4.587  14.012  0.00  0.00    +0.000 OA
ENDBRANCH  17  24
BRANCH  21  25
ATOM     25  O   UNL     1       6.971   4.629  18.913  0.00  0.00    +0.000 OA
ATOM     26  C   UNL     1       7.938   5.527  19.442  0.00  0.00    +0.000 C 
ENDBRANCH  21  25
ENDBRANCH  15  20
ENDBRANCH   1  15
TORSDOF 6
ENDMDL
MODEL 5
REMARK VINA RESULT:      -7.1      1.675      2.620
REMARK  Name = 
REMARK  9 active torsions:
REMARK  status: ('A' for Active; 'I' for Inactive)
REMARK    1  A    between atoms: C_1  and  O_2
REMARK    2  A    between atoms: O_2  and  C_3
REMARK    3  A    between atoms: C_6  and  N_7
REMARK    4  A    between atoms: N_7  and  S_8
REMARK    5  A    between atoms: S_8  and  C_11
REMARK    6  A    between atoms: C_14  and  N_15
REMARK    7  A    between atoms: C_16  and  C_17
REMARK    8  A    between atoms: C_21  and  O_22
REMARK    9  A    between atoms: O_22  and  C_23
REMARK                            x       y       z     vdW  Elec       q    Type
REMARK                         _______ _______ _______ _____ _____    ______ ____
ROOT
ATOM      1  S   UNL     1       2.783   3.383  18.364  0.00  0.00    +0.000 S 
ATOM      2  O   UNL     1       2.409   3.310  16.971  0.00  0.00    +0.000 OA
ATOM      3  O   UNL     1       2.205   2.499  19.356  0.00  0.00    +0.000 OA
ENDROOT
BRANCH   1   4
ATOM      4  C   UNL     1       2.469   5.041  18.940  0.00  0.00    +0.000 A 
ATOM      5  C   UNL     1       1.960   5.250  20.217  0.00  0.00    +0.000 A 
ATOM      6  C   UNL     1       1.683   6.552  20.646  0.00  0.00    +0.000 A 
ATOM      7  C   UNL     1       1.925   7.652  19.818  0.00  0.00    +0.000 A 
ATOM      8  C   UNL     1       2.472   7.430  18.545  0.00  0.00    +0.000 A 
ATOM      9  C   UNL     1       2.753   6.129  18.107  0.00  0.00    +0.000 A 
BRANCH   7  10
ATOM     10  N   UNL     1       1.654   8.988  20.195  0.00  0.00    +0.000 N 
ATOM     11  C   UNL     1       0.807   9.876  19.552  0.00  0.00    +0.000 C 
ATOM     12  C   UNL     1       0.731  11.225  20.219  0.00  0.00    +0.000 C 
ATOM     13  O   UNL     1       0.172   9.670  18.524  0.00  0.00    +0.000 OA
ATOM     14  H   UNL     1       2.133   9.326  21.021  0.00  0.00    +0.000 HD
ENDBRANCH   7  10
ENDBRANCH   1   4
BRANCH   1  15
ATOM     15  N   UNL     1       4.460   3.267  18.529  0.00  0.00    +0.000 N 
ATOM     16  H   UNL     1       4.776   3.373  19.489  0.00  0.00    +0.000 HD
BRANCH  15  20
ATOM     17  C   UNL     1       6.909   4.997  15.544  0.00  0.00    +0.000 A 
ATOM     18  C   UNL     1       5.809   4.212  15.191  0.00  0.00    +0.000 A 
ATOM     19  C   UNL     1       4.997   3.639  16.171  0.00  0.00    +0.000 A 
ATOM     20  C   UNL     1       5.292   3.842  17.518  0.00  0.00    +0.000 A 
ATOM     21  C   UNL     1       6.406   4.616  17.890  0.00  0.00    +0.000 A 
ATOM     22  C   UNL     1       7.208   5.193  16.895  0.00  0.00    +0.000 A 
BRANCH  17  24
ATOM     23  C   UNL     1       7.415   4.911  13.218  0.00  0.00    +0.000 C 
ATOM     24  O   UNL     1       7.591   5.532  14.485  0.00  0.00    +0.000 OA
ENDBRANCH  17  24
BRANCH  21  25
ATOM     25  O   UNL     1       6.582   4.830  19.234  0.00  0.00    +0.000 OA
ATOM     26  C   UNL     1       7.643   5.696  19.613  0.00  0.00    +0.000 C 
ENDBRANCH  21  25
ENDBRANCH  15  20
ENDBRANCH   1  15
TORSDOF 6
ENDMDL
MODEL 6
REMARK VINA RESULT:      -7.0      2.879      3.968
REMARK  Name = 
REMARK  9 active torsions:
REMARK  status: ('A' for Active; 'I' for Inactive)
REMARK    1  A    between atoms: C_1  and  O_2
REMARK    2  A    between atoms: O_2  and  C_3
REMARK    3  A    between atoms: C_6  and  N_7
REMARK    4  A    between atoms: N_7  and  S_8
REMARK    5  A    between atoms: S_8  and  C_11
REMARK    6  A    between atoms: C_14  and  N_15
REMARK    7  A    between atoms: C_16  and  C_17
REMARK    8  A    between atoms: C_21  and  O_22
REMARK    9  A    between atoms: O_22  and  C_23
REMARK                            x       y       z     vdW  Elec       q    Type
REMARK                         _______ _______ _______ _____ _____    ______ ____
ROOT
ATOM      1  S   UNL     1       2.514   5.987  19.256  0.00  0.00    +0.000 S 
ATOM      2  O   UNL     1       1.970   5.281  18.119  0.00  0.00    +0.000 OA
ATOM      3  O   UNL     1       2.256   5.557  20.615  0.00  0.00    +0.000 OA
ENDROOT
BRANCH   1   4
ATOM      4  C   UNL     1       1.977   7.685  19.166  0.00  0.00    +0.000 A 
ATOM      5  C   UNL     1       2.126   8.401  17.983  0.00  0.00    +0.000 A 
ATOM      6  C   UNL     1       1.735   9.742  17.933  0.00  0.00    +0.000 A 
ATOM      7  C   UNL     1       1.181  10.375  19.050  0.00  0.00    +0.000 A 
ATOM      8  C   UNL     1       1.004   9.632  20.226  0.00  0.00    +0.000 A 
ATOM      9  C   UNL     1       1.392   8.286  20.286  0.00  0.00    +0.000 A 
BRANCH   7  10
ATOM     10  N   UNL     1       0.779  11.732  19.060  0.00  0.00    +0.000 N 
ATOM     11  C   UNL     1      -0.426  12.242  18.607  0.00  0.00    +0.000 C 
ATOM     12  C   UNL     1      -0.547  13.735  18.770  0.00  0.00    +0.000 C 
ATOM     13  O   UNL     1      -1.341  11.612  18.086  0.00  0.00    +0.000 OA
ATOM     14  H   UNL     1       1.446  12.394  19.436  0.00  0.00    +0.000 HD
ENDBRANCH   7  10
ENDBRANCH   1   4
BRANCH   1  15
ATOM     15  N   UNL     1       4.189   6.141  19.105  0.00  0.00    +0.000 N 
ATOM     16  H   UNL     1       4.541   7.032  19.444  0.00  0.00    +0.000 HD
BRANCH  15  20
ATOM     17  C   UNL     1       6.105   4.558  15.682  0.00  0.00    +0.000 A 
ATOM     18  C   UNL     1       5.514   5.823  15.641  0.00  0.00    +0.000 A 
ATOM     19  C   UNL     1       4.881   6.351  16.767  0.00  0.00    +0.000 A 
ATOM     20  C   UNL     1       4.827   5.605  17.944  0.00  0.00    +0.000 A 
ATOM     21  C   UNL     1       5.403   4.322  17.995  0.00  0.00    +0.000 A 
ATOM     22  C   UNL     1       6.044   3.808  16.859  0.00  0.00    +0.000 A 
BRANCH  17  24
ATOM     23  C   UNL     1       5.898   3.847  13.417  0.00  0.00    +0.000 C 
ATOM     24  O   UNL     1       6.728   4.182  14.523  0.00  0.00    +0.000 OA
ENDBRANCH  17  24
BRANCH  21  25
ATOM     25  O   UNL     1       5.374   3.686  19.211  0.00  0.00    +0.000 OA
ATOM     26  C   UNL     1       4.400   2.664  19.377  0.00  0.00    +0.000 C 
ENDBRANCH  21  25
ENDBRANCH  15  20
ENDBRANCH   1  15
TORSDOF 6
ENDMDL
MODEL 7
REMARK VINA RESULT:      -6.9      2.671      3.623
REMARK  Name = 
REMARK  9 active torsions:
REMARK  status: ('A' for Active; 'I' for Inactive)
REMARK    1  A    between atoms: C_1  and  O_2
REMARK    2  A    between atoms: O_2  and  C_3
REMARK    3  A    between atoms: C_6  and  N_7
REMARK    4  A    between atoms: N_7  and  S_8
REMARK    5  A    between atoms: S_8  and  C_11
REMARK    6  A    between atoms: C_14  and  N_15
REMARK    7  A    between atoms: C_16  and  C_17
REMARK    8  A    between atoms: C_21  and  O_22
REMARK    9  A    between atoms: O_22  and  C_23
REMARK                            x       y       z     vdW  Elec       q    Type
REMARK                         _______ _______ _______ _____ _____    ______ ____
ROOT
ATOM      1  S   UNL     1       2.357   5.694  19.657  0.00  0.00    +0.000 S 
ATOM      2  O   UNL     1       1.811   5.032  18.496  0.00  0.00    +0.000 OA
ATOM      3  O   UNL     1       2.042   5.258  21.002  0.00  0.00    +0.000 OA
ENDROOT
BRANCH   1   4
ATOM      4  C   UNL     1       1.905   7.417  19.579  0.00  0.00    +0.000 A 
ATOM      5  C   UNL     1       1.408   8.059  20.709  0.00  0.00    +0.000 A 
ATOM      6  C   UNL     1       1.023   9.400  20.628  0.00  0.00    +0.000 A 
ATOM      7  C   UNL     1       1.143  10.116  19.433  0.00  0.00    +0.000 A 
ATOM      8  C   UNL     1       1.678   9.467  18.310  0.00  0.00    +0.000 A 
ATOM      9  C   UNL     1       2.068   8.123  18.382  0.00  0.00    +0.000 A 
BRANCH   7  10
ATOM     10  N   UNL     1       0.759  11.470  19.291  0.00  0.00    +0.000 N 
ATOM     11  C   UNL     1       1.080  12.516  20.141  0.00  0.00    +0.000 C 
ATOM     12  C   UNL     1       0.521  13.844  19.699  0.00  0.00    +0.000 C 
ATOM     13  O   UNL     1       1.723  12.444  21.182  0.00  0.00    +0.000 OA
ATOM     14  H   UNL     1       0.189  11.692  18.484  0.00  0.00    +0.000 HD
ENDBRANCH   7  10
ENDBRANCH   1   4
BRANCH   1  15
ATOM     15  N   UNL     1       4.042   5.770  19.553  0.00  0.00    +0.000 N 
ATOM     16  H   UNL     1       4.443   6.521  20.107  0.00  0.00    +0.000 HD
BRANCH  15  20
ATOM     17  C   UNL     1       5.913   4.969  15.845  0.00  0.00    +0.000 A 
ATOM     18  C   UNL     1       5.638   6.283  16.230  0.00  0.00    +0.000 A 
ATOM     19  C   UNL     1       5.022   6.554  17.453  0.00  0.00    +0.000 A 
ATOM     20  C   UNL     1       4.665   5.501  18.295  0.00  0.00    +0.000 A 
ATOM     21  C   UNL     1       4.920   4.172  17.913  0.00  0.00    +0.000 A 
ATOM     22  C   UNL     1       5.548   3.915  16.687  0.00  0.00    +0.000 A 
BRANCH  17  24
ATOM     23  C   UNL     1       6.071   3.868  13.738  0.00  0.00    +0.000 C 
ATOM     24  O   UNL     1       6.559   4.850  14.644  0.00  0.00    +0.000 OA
ENDBRANCH  17  24
BRANCH  21  25
ATOM     25  O   UNL     1       4.607   3.200  18.832  0.00  0.00    +0.000 OA
ATOM     26  C   UNL     1       3.763   2.146  18.389  0.00  0.00    +0.000 C 
ENDBRANCH  21  25
ENDBRANCH  15  20
ENDBRANCH   1  15
TORSDOF 6
ENDMDL
MODEL 8
REMARK VINA RESULT:      -6.9      1.454      1.795
REMARK  Name = 
REMARK  9 active torsions:
REMARK  status: ('A' for Active; 'I' for Inactive)
REMARK    1  A    between atoms: C_1  and  O_2
REMARK    2  A    between atoms: O_2  and  C_3
REMARK    3  A    between atoms: C_6  and  N_7
REMARK    4  A    between atoms: N_7  and  S_8
REMARK    5  A    between atoms: S_8  and  C_11
REMARK    6  A    between atoms: C_14  and  N_15
REMARK    7  A    between atoms: C_16  and  C_17
REMARK    8  A    between atoms: C_21  and  O_22
REMARK    9  A    between atoms: O_22  and  C_23
REMARK                            x       y       z     vdW  Elec       q    Type
REMARK                         _______ _______ _______ _____ _____    ______ ____
ROOT
ATOM      1  S   UNL     1       3.397   2.842  18.396  0.00  0.00    +0.000 S 
ATOM      2  O   UNL     1       2.321   2.185  17.691  0.00  0.00    +0.000 OA
ATOM      3  O   UNL     1       3.952   2.297  19.618  0.00  0.00    +0.000 OA
ENDROOT
BRANCH   1   4
ATOM      4  C   UNL     1       2.874   4.501  18.789  0.00  0.00    +0.000 A 
ATOM      5  C   UNL     1       2.733   5.444  17.777  0.00  0.00    +0.000 A 
ATOM      6  C   UNL     1       2.357   6.752  18.099  0.00  0.00    +0.000 A 
ATOM      7  C   UNL     1       2.105   7.126  19.423  0.00  0.00    +0.000 A 
ATOM      8  C   UNL     1       2.218   6.156  20.429  0.00  0.00    +0.000 A 
ATOM      9  C   UNL     1       2.593   4.842  20.116  0.00  0.00    +0.000 A 
BRANCH   7  10
ATOM     10  N   UNL     1       1.734   8.436  19.806  0.00  0.00    +0.000 N 
ATOM     11  C   UNL     1       1.194   9.417  18.991  0.00  0.00    +0.000 C 
ATOM     12  C   UNL     1       0.898  10.706  19.715  0.00  0.00    +0.000 C 
ATOM     13  O   UNL     1       0.975   9.333  17.788  0.00  0.00    +0.000 OA
ATOM     14  H   UNL     1       1.883   8.677  20.779  0.00  0.00    +0.000 HD
ENDBRANCH   7  10
ENDBRANCH   1   4
BRANCH   1  15
ATOM     15  N   UNL     1       4.697   3.122  17.355  0.00  0.00    +0.000 N 
ATOM     16  H   UNL     1       5.136   2.267  17.025  0.00  0.00    +0.000 HD
BRANCH  15  20
ATOM     17  C   UNL     1       7.298   6.366  18.136  0.00  0.00    +0.000 A 
ATOM     18  C   UNL     1       6.903   5.510  19.167  0.00  0.00    +0.000 A 
ATOM     19  C   UNL     1       6.046   4.437  18.916  0.00  0.00    +0.000 A 
ATOM     20  C   UNL     1       5.568   4.223  17.624  0.00  0.00    +0.000 A 
ATOM     21  C   UNL     1       5.943   5.087  16.578  0.00  0.00    +0.000 A 
ATOM     22  C   UNL     1       6.811   6.154  16.843  0.00  0.00    +0.000 A 
BRANCH  17  24
ATOM     23  C   UNL     1       8.076   8.598  17.844  0.00  0.00    +0.000 C 
ATOM     24  O   UNL     1       8.173   7.347  18.513  0.00  0.00    +0.000 OA
ENDBRANCH  17  24
BRANCH  21  25
ATOM     25  O   UNL     1       5.490   4.761  15.324  0.00  0.00    +0.000 OA
ATOM     26  C   UNL     1       6.475   4.557  14.319  0.00  0.00    +0.000 C 
ENDBRANCH  21  25
ENDBRANCH  15  20
ENDBRANCH   1  15
TORSDOF 6
ENDMDL
MODEL 9
REMARK VINA RESULT:      -6.8      1.768      3.063
REMARK  Name = 
REMARK  9 active torsions:
REMARK  status: ('A' for Active; 'I' for Inactive)
REMARK    1  A    between atoms: C_1  and  O_2
REMARK    2  A    between atoms: O_2  and  C_3
REMARK    3  A    between atoms: C_6  and  N_7
REMARK    4  A    between atoms: N_7  and  S_8
REMARK    5  A    between atoms: S_8  and  C_11
REMARK    6  A    between atoms: C_14  and  N_15
REMARK    7  A    between atoms: C_16  and  C_17
REMARK    8  A    between atoms: C_21  and  O_22
REMARK    9  A    between atoms: O_22  and  C_23
REMARK                            x       y       z     vdW  Elec       q    Type
REMARK                         _______ _______ _______ _____ _____    ______ ____
ROOT
ATOM      1  S   UNL     1       3.562   3.372  18.981  0.00  0.00    +0.000 S 
ATOM      2  O   UNL     1       3.024   2.878  17.735  0.00  0.00    +0.000 OA
ATOM      3  O   UNL     1       3.389   2.651  20.226  0.00  0.00    +0.000 OA
ENDROOT
BRANCH   1   4
ATOM      4  C   UNL     1       2.904   5.005  19.263  0.00  0.00    +0.000 A 
ATOM      5  C   UNL     1       3.090   6.004  18.313  0.00  0.00    +0.000 A 
ATOM      6  C   UNL     1       2.602   7.291  18.559  0.00  0.00    +0.000 A 
ATOM      7  C   UNL     1       1.914   7.590  19.739  0.00  0.00    +0.000 A 
ATOM      8  C   UNL     1       1.703   6.564  20.673  0.00  0.00    +0.000 A 
ATOM      9  C   UNL     1       2.188   5.271  20.435  0.00  0.00    +0.000 A 
BRANCH   7  10
ATOM     10  N   UNL     1       1.409   8.875  20.045  0.00  0.00    +0.000 N 
ATOM     11  C   UNL     1       0.785   9.750  19.171  0.00  0.00    +0.000 C 
ATOM     12  C   UNL     1       0.353  11.041  19.818  0.00  0.00    +0.000 C 
ATOM     13  O   UNL     1       0.593   9.577  17.972  0.00  0.00    +0.000 OA
ATOM     14  H   UNL     1       1.519   9.184  21.004  0.00  0.00    +0.000 HD
ENDBRANCH   7  10
ENDBRANCH   1   4
BRANCH   1  15
ATOM     15  N   UNL     1       5.215   3.683  18.825  0.00  0.00    +0.000 N 
ATOM     16  H   UNL     1       5.603   4.187  19.618  0.00  0.00    +0.000 HD
BRANCH  15  20
ATOM     17  C   UNL     1       6.741   4.724  15.020  0.00  0.00    +0.000 A 
ATOM     18  C   UNL     1       5.451   4.205  15.148  0.00  0.00    +0.000 A 
ATOM     19  C   UNL     1       4.941   3.860  16.401  0.00  0.00    +0.000 A 
ATOM     20  C   UNL     1       5.732   4.024  17.537  0.00  0.00    +0.000 A 
ATOM     21  C   UNL     1       7.040   4.529  17.422  0.00  0.00    +0.000 A 
ATOM     22  C   UNL     1       7.535   4.880  16.159  0.00  0.00    +0.000 A 
BRANCH  17  24
ATOM     23  C   UNL     1       6.793   4.123  12.715  0.00  0.00    +0.000 C 
ATOM     24  O   UNL     1       7.097   5.059  13.742  0.00  0.00    +0.000 OA
ENDBRANCH  17  24
BRANCH  21  25
ATOM     25  O   UNL     1       7.723   4.731  18.596  0.00  0.00    +0.000 OA
ATOM     26  C   UNL     1       7.900   6.079  19.011  0.00  0.00    +0.000 C 
ENDBRANCH  21  25
ENDBRANCH  15  20
ENDBRANCH   1  15
TORSDOF 6
ENDMDL
