MODEL 1
REMARK VINA RESULT:      -8.8      0.000      0.000
REMARK  Name = 
REMARK  8 active torsions:
REMARK  status: ('A' for Active; 'I' for Inactive)
REMARK    1  A    between atoms: C_1  and  C_2
REMARK    2  A    between atoms: C_6  and  O_7
REMARK    3  A    between atoms: O_7  and  C_8
REMARK    4  A    between atoms: C_8  and  C_9
REMARK    5  A    between atoms: C_12  and  S_13
REMARK    6  A    between atoms: S_13  and  C_14
REMARK    7  A    between atoms: C_14  and  C_15
REMARK    8  A    between atoms: C_17  and  O_18
REMARK                            x       y       z     vdW  Elec       q    Type
REMARK                         _______ _______ _______ _____ _____    ______ ____
ROOT
ATOM      1  C   UNL     1       7.830   7.347  17.814  0.00  0.00    +0.000 A 
ATOM      2  N   UNL     1       7.879   6.463  18.789  0.00  0.00    +0.000 NA
ATOM      3  N   UNL     1       7.526   5.253  18.234  0.00  0.00    +0.000 NA
ATOM      4  C   UNL     1       7.286   5.470  16.955  0.00  0.00    +0.000 A 
ATOM      5  O   UNL     1       7.456   6.790  16.612  0.00  0.00    +0.000 OA
ENDROOT
BRANCH   1   6
ATOM      6  C   UNL     1       8.029   8.819  17.879  0.00  0.00    +0.000 C 
BRANCH   6   7
ATOM      7  O   UNL     1       8.933   9.083  18.951  0.00  0.00    +0.000 OA
BRANCH   7  13
ATOM      8  C   UNL     1       9.671  13.119  21.789  0.00  0.00    +0.000 C 
ATOM      9  C   UNL     1       9.673  12.411  20.464  0.00  0.00    +0.000 A 
ATOM     10  C   UNL     1      10.037  13.088  19.296  0.00  0.00    +0.000 A 
ATOM     11  C   UNL     1      10.033  12.424  18.071  0.00  0.00    +0.000 A 
ATOM     12  C   UNL     1       9.660  11.082  18.008  0.00  0.00    +0.000 A 
ATOM     13  C   UNL     1       9.287  10.389  19.163  0.00  0.00    +0.000 A 
ATOM     14  C   UNL     1       9.301  11.056  20.390  0.00  0.00    +0.000 A 
ENDBRANCH   7  13
ENDBRANCH   6   7
ENDBRANCH   1   6
BRANCH   4  15
ATOM     15  S   UNL     1       6.724   4.226  15.880  0.00  0.00    +0.000 S 
BRANCH  15  16
ATOM     16  C   UNL     1       4.939   4.546  15.821  0.00  0.00    +0.000 C 
BRANCH  16  17
ATOM     17  C   UNL     1       4.216   4.690  17.142  0.00  0.00    +0.000 A 
ATOM     18  N   UNL     1       3.724   5.889  17.491  0.00  0.00    +0.000 NA
ATOM     19  C   UNL     1       3.097   5.939  18.669  0.00  0.00    +0.000 A 
ATOM     20  C   UNL     1       2.910   4.873  19.526  0.00  0.00    +0.000 A 
ATOM     21  C   UNL     1       2.223   4.946  20.761  0.00  0.00    +0.000 A 
ATOM     22  C   UNL     1       2.078   3.808  21.543  0.00  0.00    +0.000 A 
ATOM     23  C   UNL     1       2.621   2.606  21.107  0.00  0.00    +0.000 A 
ATOM     24  C   UNL     1       3.307   2.550  19.886  0.00  0.00    +0.000 A 
ATOM     25  C   UNL     1       3.458   3.670  19.076  0.00  0.00    +0.000 A 
ATOM     26  N   UNL     1       4.108   3.578  17.901  0.00  0.00    +0.000 NA
BRANCH  19  27
ATOM     27  O   UNL     1       2.637   7.184  18.964  0.00  0.00    +0.000 OA
ATOM     28  H   UNL     1       1.687   7.072  18.770  0.00  0.00    +0.000 HD
ENDBRANCH  19  27
ENDBRANCH  16  17
ENDBRANCH  15  16
ENDBRANCH   4  15
TORSDOF 7
ENDMDL
MODEL 2
REMARK VINA RESULT:      -8.7      1.561      2.861
REMARK  Name = 
REMARK  8 active torsions:
REMARK  status: ('A' for Active; 'I' for Inactive)
REMARK    1  A    between atoms: C_1  and  C_2
REMARK    2  A    between atoms: C_6  and  O_7
REMARK    3  A    between atoms: O_7  and  C_8
REMARK    4  A    between atoms: C_8  and  C_9
REMARK    5  A    between atoms: C_12  and  S_13
REMARK    6  A    between atoms: S_13  and  C_14
REMARK    7  A    between atoms: C_14  and  C_15
REMARK    8  A    between atoms: C_17  and  O_18
REMARK                            x       y       z     vdW  Elec       q    Type
REMARK                         _______ _______ _______ _____ _____    ______ ____
ROOT
ATOM      1  C   UNL     1       7.668   7.470  17.735  0.00  0.00    +0.000 A 
ATOM      2  N   UNL     1       7.960   6.520  18.599  0.00  0.00    +0.000 NA
ATOM      3  N   UNL     1       7.352   5.375  18.137  0.00  0.00    +0.000 NA
ATOM      4  C   UNL     1       6.729   5.692  17.019  0.00  0.00    +0.000 A 
ATOM      5  O   UNL     1       6.882   7.020  16.698  0.00  0.00    +0.000 OA
ENDROOT
BRANCH   1   6
ATOM      6  C   UNL     1       7.993   8.919  17.797  0.00  0.00    +0.000 C 
BRANCH   6   7
ATOM      7  O   UNL     1       8.893   9.111  18.887  0.00  0.00    +0.000 OA
BRANCH   7  13
ATOM      8  C   UNL     1      10.894  13.370  17.228  0.00  0.00    +0.000 C 
ATOM      9  C   UNL     1      10.412  12.473  18.332  0.00  0.00    +0.000 A 
ATOM     10  C   UNL     1      10.503  12.877  19.668  0.00  0.00    +0.000 A 
ATOM     11  C   UNL     1      10.057  12.036  20.686  0.00  0.00    +0.000 A 
ATOM     12  C   UNL     1       9.522  10.787  20.373  0.00  0.00    +0.000 A 
ATOM     13  C   UNL     1       9.426  10.363  19.045  0.00  0.00    +0.000 A 
ATOM     14  C   UNL     1       9.867  11.212  18.027  0.00  0.00    +0.000 A 
ENDBRANCH   7  13
ENDBRANCH   6   7
ENDBRANCH   1   6
BRANCH   4  15
ATOM     15  S   UNL     1       5.752   4.560  16.133  0.00  0.00    +0.000 S 
BRANCH  15  16
ATOM     16  C   UNL     1       4.654   3.909  17.422  0.00  0.00    +0.000 C 
BRANCH  16  17
ATOM     17  C   UNL     1       3.842   4.910  18.214  0.00  0.00    +0.000 A 
ATOM     18  N   UNL     1       3.483   4.612  19.472  0.00  0.00    +0.000 NA
ATOM     19  C   UNL     1       2.769   5.544  20.109  0.00  0.00    +0.000 A 
ATOM     20  C   UNL     1       2.396   6.766  19.587  0.00  0.00    +0.000 A 
ATOM     21  C   UNL     1       1.656   7.748  20.289  0.00  0.00    +0.000 A 
ATOM     22  C   UNL     1       1.344   8.953  19.675  0.00  0.00    +0.000 A 
ATOM     23  C   UNL     1       1.753   9.179  18.366  0.00  0.00    +0.000 A 
ATOM     24  C   UNL     1       2.477   8.194  17.679  0.00  0.00    +0.000 A 
ATOM     25  C   UNL     1       2.815   6.982  18.273  0.00  0.00    +0.000 A 
ATOM     26  N   UNL     1       3.525   6.065  17.591  0.00  0.00    +0.000 NA
BRANCH  19  27
ATOM     27  O   UNL     1       2.430   5.171  21.371  0.00  0.00    +0.000 OA
ATOM     28  H   UNL     1       2.322   6.045  21.791  0.00  0.00    +0.000 HD
ENDBRANCH  19  27
ENDBRANCH  16  17
ENDBRANCH  15  16
ENDBRANCH   4  15
TORSDOF 7
ENDMDL
MODEL 3
REMARK VINA RESULT:      -8.5      1.547      2.271
REMARK  Name = 
REMARK  8 active torsions:
REMARK  status: ('A' for Active; 'I' for Inactive)
REMARK    1  A    between atoms: C_1  and  C_2
REMARK    2  A    between atoms: C_6  and  O_7
REMARK    3  A    between atoms: O_7  and  C_8
REMARK    4  A    between atoms: C_8  and  C_9
REMARK    5  A    between atoms: C_12  and  S_13
REMARK    6  A    between atoms: S_13  and  C_14
REMARK    7  A    between atoms: C_14  and  C_15
REMARK    8  A    between atoms: C_17  and  O_18
REMARK                            x       y       z     vdW  Elec       q    Type
REMARK                         _______ _______ _______ _____ _____    ______ ____
ROOT
ATOM      1  C   UNL     1       7.788   7.798  17.856  0.00  0.00    +0.000 A 
ATOM      2  N   UNL     1       8.081   6.854  18.727  0.00  0.00    +0.000 NA
ATOM      3  N   UNL     1       7.801   5.656  18.108  0.00  0.00    +0.000 NA
ATOM      4  C   UNL     1       7.360   5.939  16.899  0.00  0.00    +0.000 A 
ATOM      5  O   UNL     1       7.320   7.294  16.665  0.00  0.00    +0.000 OA
ENDROOT
BRANCH   1   6
ATOM      6  C   UNL     1       7.816   9.273  18.036  0.00  0.00    +0.000 C 
BRANCH   6   7
ATOM      7  O   UNL     1       9.107   9.731  17.635  0.00  0.00    +0.000 OA
BRANCH   7  13
ATOM      8  C   UNL     1      12.333  13.415  18.592  0.00  0.00    +0.000 C 
ATOM      9  C   UNL     1      11.276  12.434  19.014  0.00  0.00    +0.000 A 
ATOM     10  C   UNL     1      10.855  12.371  20.347  0.00  0.00    +0.000 A 
ATOM     11  C   UNL     1       9.876  11.456  20.730  0.00  0.00    +0.000 A 
ATOM     12  C   UNL     1       9.318  10.597  19.784  0.00  0.00    +0.000 A 
ATOM     13  C   UNL     1       9.729  10.640  18.449  0.00  0.00    +0.000 A 
ATOM     14  C   UNL     1      10.705  11.565  18.067  0.00  0.00    +0.000 A 
ENDBRANCH   7  13
ENDBRANCH   6   7
ENDBRANCH   1   6
BRANCH   4  15
ATOM     15  S   UNL     1       6.805   4.720  15.791  0.00  0.00    +0.000 S 
BRANCH  15  16
ATOM     16  C   UNL     1       5.007   4.949  15.836  0.00  0.00    +0.000 C 
BRANCH  16  17
ATOM     17  C   UNL     1       4.250   4.285  16.965  0.00  0.00    +0.000 A 
ATOM     18  N   UNL     1       4.360   2.958  17.134  0.00  0.00    +0.000 NA
ATOM     19  C   UNL     1       3.665   2.442  18.151  0.00  0.00    +0.000 A 
ATOM     20  C   UNL     1       2.873   3.157  19.028  0.00  0.00    +0.000 A 
ATOM     21  C   UNL     1       2.162   2.591  20.112  0.00  0.00    +0.000 A 
ATOM     22  C   UNL     1       1.404   3.404  20.945  0.00  0.00    +0.000 A 
ATOM     23  C   UNL     1       1.342   4.769  20.696  0.00  0.00    +0.000 A 
ATOM     24  C   UNL     1       2.045   5.315  19.613  0.00  0.00    +0.000 A 
ATOM     25  C   UNL     1       2.822   4.528  18.769  0.00  0.00    +0.000 A 
ATOM     26  N   UNL     1       3.497   5.087  17.748  0.00  0.00    +0.000 NA
BRANCH  19  27
ATOM     27  O   UNL     1       3.812   1.095  18.256  0.00  0.00    +0.000 OA
ATOM     28  H   UNL     1       2.919   0.843  18.559  0.00  0.00    +0.000 HD
ENDBRANCH  19  27
ENDBRANCH  16  17
ENDBRANCH  15  16
ENDBRANCH   4  15
TORSDOF 7
ENDMDL
MODEL 4
REMARK VINA RESULT:      -8.3      1.438      1.914
REMARK  Name = 
REMARK  8 active torsions:
REMARK  status: ('A' for Active; 'I' for Inactive)
REMARK    1  A    between atoms: C_1  and  C_2
REMARK    2  A    between atoms: C_6  and  O_7
REMARK    3  A    between atoms: O_7  and  C_8
REMARK    4  A    between atoms: C_8  and  C_9
REMARK    5  A    between atoms: C_12  and  S_13
REMARK    6  A    between atoms: S_13  and  C_14
REMARK    7  A    between atoms: C_14  and  C_15
REMARK    8  A    between atoms: C_17  and  O_18
REMARK                            x       y       z     vdW  Elec       q    Type
REMARK                         _______ _______ _______ _____ _____    ______ ____
ROOT
ATOM      1  C   UNL     1       7.694   7.719  17.781  0.00  0.00    +0.000 A 
ATOM      2  N   UNL     1       7.973   6.810  18.692  0.00  0.00    +0.000 NA
ATOM      3  N   UNL     1       7.715   5.587  18.112  0.00  0.00    +0.000 NA
ATOM      4  C   UNL     1       7.299   5.822  16.883  0.00  0.00    +0.000 A 
ATOM      5  O   UNL     1       7.255   7.167  16.599  0.00  0.00    +0.000 OA
ENDROOT
BRANCH   1   6
ATOM      6  C   UNL     1       7.707   9.200  17.907  0.00  0.00    +0.000 C 
BRANCH   6   7
ATOM      7  O   UNL     1       9.036   9.642  17.635  0.00  0.00    +0.000 OA
BRANCH   7  13
ATOM      8  C   UNL     1       9.357  12.110  21.959  0.00  0.00    +0.000 C 
ATOM      9  C   UNL     1       9.799  11.844  20.548  0.00  0.00    +0.000 A 
ATOM     10  C   UNL     1      10.824  12.598  19.969  0.00  0.00    +0.000 A 
ATOM     11  C   UNL     1      11.225  12.346  18.658  0.00  0.00    +0.000 A 
ATOM     12  C   UNL     1      10.599  11.342  17.920  0.00  0.00    +0.000 A 
ATOM     13  C   UNL     1       9.568  10.581  18.478  0.00  0.00    +0.000 A 
ATOM     14  C   UNL     1       9.175  10.832  19.796  0.00  0.00    +0.000 A 
ENDBRANCH   7  13
ENDBRANCH   6   7
ENDBRANCH   1   6
BRANCH   4  15
ATOM     15  S   UNL     1       6.777   4.560  15.809  0.00  0.00    +0.000 S 
BRANCH  15  16
ATOM     16  C   UNL     1       4.978   4.787  15.794  0.00  0.00    +0.000 C 
BRANCH  16  17
ATOM     17  C   UNL     1       4.197   4.228  16.962  0.00  0.00    +0.000 A 
ATOM     18  N   UNL     1       4.142   2.898  17.136  0.00  0.00    +0.000 NA
ATOM     19  C   UNL     1       3.436   2.478  18.189  0.00  0.00    +0.000 A 
ATOM     20  C   UNL     1       2.788   3.291  19.097  0.00  0.00    +0.000 A 
ATOM     21  C   UNL     1       2.062   2.823  20.219  0.00  0.00    +0.000 A 
ATOM     22  C   UNL     1       1.458   3.729  21.081  0.00  0.00    +0.000 A 
ATOM     23  C   UNL     1       1.562   5.090  20.825  0.00  0.00    +0.000 A 
ATOM     24  C   UNL     1       2.276   5.539  19.705  0.00  0.00    +0.000 A 
ATOM     25  C   UNL     1       2.902   4.657  18.831  0.00  0.00    +0.000 A 
ATOM     26  N   UNL     1       3.594   5.122  17.775  0.00  0.00    +0.000 NA
BRANCH  19  27
ATOM     27  O   UNL     1       3.411   1.123  18.296  0.00  0.00    +0.000 OA
ATOM     28  H   UNL     1       3.394   0.871  17.353  0.00  0.00    +0.000 HD
ENDBRANCH  19  27
ENDBRANCH  16  17
ENDBRANCH  15  16
ENDBRANCH   4  15
TORSDOF 7
ENDMDL
MODEL 5
REMARK VINA RESULT:      -8.2      1.615      1.904
REMARK  Name = 
REMARK  8 active torsions:
REMARK  status: ('A' for Active; 'I' for Inactive)
REMARK    1  A    between atoms: C_1  and  C_2
REMARK    2  A    between atoms: C_6  and  O_7
REMARK    3  A    between atoms: O_7  and  C_8
REMARK    4  A    between atoms: C_8  and  C_9
REMARK    5  A    between atoms: C_12  and  S_13
REMARK    6  A    between atoms: S_13  and  C_14
REMARK    7  A    between atoms: C_14  and  C_15
REMARK    8  A    between atoms: C_17  and  O_18
REMARK                            x       y       z     vdW  Elec       q    Type
REMARK                         _______ _______ _______ _____ _____    ______ ____
ROOT
ATOM      1  C   UNL     1       8.189   8.591  18.249  0.00  0.00    +0.000 A 
ATOM      2  N   UNL     1       7.412   8.585  17.185  0.00  0.00    +0.000 NA
ATOM      3  N   UNL     1       7.108   7.265  16.936  0.00  0.00    +0.000 NA
ATOM      4  C   UNL     1       7.712   6.547  17.862  0.00  0.00    +0.000 A 
ATOM      5  O   UNL     1       8.429   7.328  18.739  0.00  0.00    +0.000 OA
ENDROOT
BRANCH   1   6
ATOM      6  C   UNL     1       8.878   9.741  18.893  0.00  0.00    +0.000 C 
BRANCH   6   7
ATOM      7  O   UNL     1       9.697  10.360  17.903  0.00  0.00    +0.000 OA
BRANCH   7  13
ATOM      8  C   UNL     1       7.691  14.927  17.995  0.00  0.00    +0.000 C 
ATOM      9  C   UNL     1       8.869  13.997  17.943  0.00  0.00    +0.000 A 
ATOM     10  C   UNL     1      10.171  14.502  17.867  0.00  0.00    +0.000 A 
ATOM     11  C   UNL     1      11.259  13.631  17.816  0.00  0.00    +0.000 A 
ATOM     12  C   UNL     1      11.048  12.253  17.835  0.00  0.00    +0.000 A 
ATOM     13  C   UNL     1       9.754  11.728  17.905  0.00  0.00    +0.000 A 
ATOM     14  C   UNL     1       8.668  12.605  17.964  0.00  0.00    +0.000 A 
ENDBRANCH   7  13
ENDBRANCH   6   7
ENDBRANCH   1   6
BRANCH   4  15
ATOM     15  S   UNL     1       7.669   4.810  17.882  0.00  0.00    +0.000 S 
BRANCH  15  16
ATOM     16  C   UNL     1       6.111   4.453  17.025  0.00  0.00    +0.000 C 
BRANCH  16  17
ATOM     17  C   UNL     1       4.837   4.538  17.836  0.00  0.00    +0.000 A 
ATOM     18  N   UNL     1       4.002   5.570  17.636  0.00  0.00    +0.000 NA
ATOM     19  C   UNL     1       2.898   5.578  18.386  0.00  0.00    +0.000 A 
ATOM     20  C   UNL     1       2.553   4.620  19.320  0.00  0.00    +0.000 A 
ATOM     21  C   UNL     1       1.366   4.639  20.090  0.00  0.00    +0.000 A 
ATOM     22  C   UNL     1       1.108   3.617  20.993  0.00  0.00    +0.000 A 
ATOM     23  C   UNL     1       2.029   2.588  21.141  0.00  0.00    +0.000 A 
ATOM     24  C   UNL     1       3.206   2.586  20.378  0.00  0.00    +0.000 A 
ATOM     25  C   UNL     1       3.485   3.590  19.457  0.00  0.00    +0.000 A 
ATOM     26  N   UNL     1       4.616   3.550  18.729  0.00  0.00    +0.000 NA
BRANCH  19  27
ATOM     27  O   UNL     1       2.106   6.655  18.141  0.00  0.00    +0.000 OA
ATOM     28  H   UNL     1       1.679   6.763  19.012  0.00  0.00    +0.000 HD
ENDBRANCH  19  27
ENDBRANCH  16  17
ENDBRANCH  15  16
ENDBRANCH   4  15
TORSDOF 7
ENDMDL
MODEL 6
REMARK VINA RESULT:      -8.2      2.312      9.362
REMARK  Name = 
REMARK  8 active torsions:
REMARK  status: ('A' for Active; 'I' for Inactive)
REMARK    1  A    between atoms: C_1  and  C_2
REMARK    2  A    between atoms: C_6  and  O_7
REMARK    3  A    between atoms: O_7  and  C_8
REMARK    4  A    between atoms: C_8  and  C_9
REMARK    5  A    between atoms: C_12  and  S_13
REMARK    6  A    between atoms: S_13  and  C_14
REMARK    7  A    between atoms: C_14  and  C_15
REMARK    8  A    between atoms: C_17  and  O_18
REMARK                            x       y       z     vdW  Elec       q    Type
REMARK                         _______ _______ _______ _____ _____    ______ ____
ROOT
ATOM      1  C   UNL     1       5.759   5.193  16.354  0.00  0.00    +0.000 A 
ATOM      2  N   UNL     1       6.693   5.454  15.463  0.00  0.00    +0.000 NA
ATOM      3  N   UNL     1       7.659   6.187  16.116  0.00  0.00    +0.000 NA
ATOM      4  C   UNL     1       7.260   6.325  17.365  0.00  0.00    +0.000 A 
ATOM      5  O   UNL     1       6.048   5.718  17.593  0.00  0.00    +0.000 OA
ENDROOT
BRANCH   1   6
ATOM      6  C   UNL     1       4.452   4.513  16.162  0.00  0.00    +0.000 C 
BRANCH   6   7
ATOM      7  O   UNL     1       4.383   3.440  17.101  0.00  0.00    +0.000 OA
BRANCH   7  13
ATOM      8  C   UNL     1       1.630   5.429  20.755  0.00  0.00    +0.000 C 
ATOM      9  C   UNL     1       1.936   4.338  19.769  0.00  0.00    +0.000 A 
ATOM     10  C   UNL     1       1.141   3.189  19.709  0.00  0.00    +0.000 A 
ATOM     11  C   UNL     1       1.436   2.180  18.795  0.00  0.00    +0.000 A 
ATOM     12  C   UNL     1       2.529   2.313  17.939  0.00  0.00    +0.000 A 
ATOM     13  C   UNL     1       3.340   3.450  17.987  0.00  0.00    +0.000 A 
ATOM     14  C   UNL     1       3.036   4.463  18.900  0.00  0.00    +0.000 A 
ENDBRANCH   7  13
ENDBRANCH   6   7
ENDBRANCH   1   6
BRANCH   4  15
ATOM     15  S   UNL     1       8.141   7.260  18.535  0.00  0.00    +0.000 S 
BRANCH  15  16
ATOM     16  C   UNL     1       8.123   8.917  17.797  0.00  0.00    +0.000 C 
BRANCH  16  17
ATOM     17  C   UNL     1       8.943   9.990  18.478  0.00  0.00    +0.000 A 
ATOM     18  N   UNL     1       8.882  10.111  19.813  0.00  0.00    +0.000 NA
ATOM     19  C   UNL     1       9.634  11.079  20.344  0.00  0.00    +0.000 A 
ATOM     20  C   UNL     1      10.459  11.933  19.640  0.00  0.00    +0.000 A 
ATOM     21  C   UNL     1      11.263  12.939  20.227  0.00  0.00    +0.000 A 
ATOM     22  C   UNL     1      12.071  13.736  19.427  0.00  0.00    +0.000 A 
ATOM     23  C   UNL     1      12.071  13.546  18.051  0.00  0.00    +0.000 A 
ATOM     24  C   UNL     1      11.263  12.552  17.482  0.00  0.00    +0.000 A 
ATOM     25  C   UNL     1      10.453  11.729  18.259  0.00  0.00    +0.000 A 
ATOM     26  N   UNL     1       9.702  10.773  17.682  0.00  0.00    +0.000 NA
BRANCH  19  27
ATOM     27  O   UNL     1       9.513  11.153  21.696  0.00  0.00    +0.000 OA
ATOM     28  H   UNL     1      10.074  10.401  21.965  0.00  0.00    +0.000 HD
ENDBRANCH  19  27
ENDBRANCH  16  17
ENDBRANCH  15  16
ENDBRANCH   4  15
TORSDOF 7
ENDMDL
MODEL 7
REMARK VINA RESULT:      -8.1      1.610      2.073
REMARK  Name = 
REMARK  8 active torsions:
REMARK  status: ('A' for Active; 'I' for Inactive)
REMARK    1  A    between atoms: C_1  and  C_2
REMARK    2  A    between atoms: C_6  and  O_7
REMARK    3  A    between atoms: O_7  and  C_8
REMARK    4  A    between atoms: C_8  and  C_9
REMARK    5  A    between atoms: C_12  and  S_13
REMARK    6  A    between atoms: S_13  and  C_14
REMARK    7  A    between atoms: C_14  and  C_15
REMARK    8  A    between atoms: C_17  and  O_18
REMARK                            x       y       z     vdW  Elec       q    Type
REMARK                         _______ _______ _______ _____ _____    ______ ____
ROOT
ATOM      1  C   UNL     1       7.987   8.548  17.861  0.00  0.00    +0.000 A 
ATOM      2  N   UNL     1       6.934   8.513  17.071  0.00  0.00    +0.000 NA
ATOM      3  N   UNL     1       6.507   7.204  17.052  0.00  0.00    +0.000 NA
ATOM      4  C   UNL     1       7.320   6.521  17.834  0.00  0.00    +0.000 A 
ATOM      5  O   UNL     1       8.298   7.314  18.385  0.00  0.00    +0.000 OA
ENDROOT
BRANCH   1   6
ATOM      6  C   UNL     1       8.889   9.691  18.161  0.00  0.00    +0.000 C 
BRANCH   6   7
ATOM      7  O   UNL     1       8.837   9.921  19.568  0.00  0.00    +0.000 OA
BRANCH   7  13
ATOM      8  C   UNL     1      11.664  14.014  19.187  0.00  0.00    +0.000 C 
ATOM      9  C   UNL     1      10.722  13.118  19.940  0.00  0.00    +0.000 A 
ATOM     10  C   UNL     1      10.325  13.438  21.242  0.00  0.00    +0.000 A 
ATOM     11  C   UNL     1       9.453  12.599  21.934  0.00  0.00    +0.000 A 
ATOM     12  C   UNL     1       8.979  11.435  21.329  0.00  0.00    +0.000 A 
ATOM     13  C   UNL     1       9.369  11.096  20.030  0.00  0.00    +0.000 A 
ATOM     14  C   UNL     1      10.236  11.944  19.337  0.00  0.00    +0.000 A 
ENDBRANCH   7  13
ENDBRANCH   6   7
ENDBRANCH   1   6
BRANCH   4  15
ATOM     15  S   UNL     1       7.201   4.799  18.039  0.00  0.00    +0.000 S 
BRANCH  15  16
ATOM     16  C   UNL     1       5.747   4.391  17.034  0.00  0.00    +0.000 C 
BRANCH  16  17
ATOM     17  C   UNL     1       4.453   4.113  17.765  0.00  0.00    +0.000 A 
ATOM     18  N   UNL     1       3.287   4.344  17.142  0.00  0.00    +0.000 NA
ATOM     19  C   UNL     1       2.187   4.075  17.850  0.00  0.00    +0.000 A 
ATOM     20  C   UNL     1       2.161   3.576  19.137  0.00  0.00    +0.000 A 
ATOM     21  C   UNL     1       0.981   3.278  19.860  0.00  0.00    +0.000 A 
ATOM     22  C   UNL     1       1.067   2.765  21.147  0.00  0.00    +0.000 A 
ATOM     23  C   UNL     1       2.316   2.559  21.719  0.00  0.00    +0.000 A 
ATOM     24  C   UNL     1       3.476   2.867  20.995  0.00  0.00    +0.000 A 
ATOM     25  C   UNL     1       3.422   3.371  19.699  0.00  0.00    +0.000 A 
ATOM     26  N   UNL     1       4.556   3.640  19.026  0.00  0.00    +0.000 NA
BRANCH  19  27
ATOM     27  O   UNL     1       1.045   4.343  17.163  0.00  0.00    +0.000 OA
ATOM     28  H   UNL     1       1.414   4.589  16.294  0.00  0.00    +0.000 HD
ENDBRANCH  19  27
ENDBRANCH  16  17
ENDBRANCH  15  16
ENDBRANCH   4  15
TORSDOF 7
ENDMDL
MODEL 8
REMARK VINA RESULT:      -8.1      1.723      2.368
REMARK  Name = 
REMARK  8 active torsions:
REMARK  status: ('A' for Active; 'I' for Inactive)
REMARK    1  A    between atoms: C_1  and  C_2
REMARK    2  A    between atoms: C_6  and  O_7
REMARK    3  A    between atoms: O_7  and  C_8
REMARK    4  A    between atoms: C_8  and  C_9
REMARK    5  A    between atoms: C_12  and  S_13
REMARK    6  A    between atoms: S_13  and  C_14
REMARK    7  A    between atoms: C_14  and  C_15
REMARK    8  A    between atoms: C_17  and  O_18
REMARK                            x       y       z     vdW  Elec       q    Type
REMARK                         _______ _______ _______ _____ _____    ______ ____
ROOT
ATOM      1  C   UNL     1       7.847   7.976  17.870  0.00  0.00    +0.000 A 
ATOM      2  N   UNL     1       6.875   8.264  17.029  0.00  0.00    +0.000 NA
ATOM      3  N   UNL     1       6.473   7.068  16.477  0.00  0.00    +0.000 NA
ATOM      4  C   UNL     1       7.218   6.124  17.016  0.00  0.00    +0.000 A 
ATOM      5  O   UNL     1       8.126   6.629  17.917  0.00  0.00    +0.000 OA
ENDROOT
BRANCH   1   6
ATOM      6  C   UNL     1       8.697   8.901  18.665  0.00  0.00    +0.000 C 
BRANCH   6   7
ATOM      7  O   UNL     1       8.929  10.062  17.868  0.00  0.00    +0.000 OA
BRANCH   7  13
ATOM      8  C   UNL     1       9.479  14.989  18.425  0.00  0.00    +0.000 C 
ATOM      9  C   UNL     1       9.702  13.571  18.869  0.00  0.00    +0.000 A 
ATOM     10  C   UNL     1      10.443  13.295  20.022  0.00  0.00    +0.000 A 
ATOM     11  C   UNL     1      10.648  11.976  20.424  0.00  0.00    +0.000 A 
ATOM     12  C   UNL     1      10.117  10.929  19.671  0.00  0.00    +0.000 A 
ATOM     13  C   UNL     1       9.378  11.184  18.513  0.00  0.00    +0.000 A 
ATOM     14  C   UNL     1       9.168  12.508  18.118  0.00  0.00    +0.000 A 
ENDBRANCH   7  13
ENDBRANCH   6   7
ENDBRANCH   1   6
BRANCH   4  15
ATOM     15  S   UNL     1       7.108   4.455  16.544  0.00  0.00    +0.000 S 
BRANCH  15  16
ATOM     16  C   UNL     1       5.381   4.320  16.005  0.00  0.00    +0.000 C 
BRANCH  16  17
ATOM     17  C   UNL     1       4.346   4.010  17.064  0.00  0.00    +0.000 A 
ATOM     18  N   UNL     1       3.956   2.738  17.244  0.00  0.00    +0.000 NA
ATOM     19  C   UNL     1       3.041   2.540  18.196  0.00  0.00    +0.000 A 
ATOM     20  C   UNL     1       2.491   3.520  18.998  0.00  0.00    +0.000 A 
ATOM     21  C   UNL     1       1.537   3.284  20.016  0.00  0.00    +0.000 A 
ATOM     22  C   UNL     1       1.057   4.341  20.777  0.00  0.00    +0.000 A 
ATOM     23  C   UNL     1       1.512   5.628  20.522  0.00  0.00    +0.000 A 
ATOM     24  C   UNL     1       2.451   5.850  19.504  0.00  0.00    +0.000 A 
ATOM     25  C   UNL     1       2.959   4.809  18.734  0.00  0.00    +0.000 A 
ATOM     26  N   UNL     1       3.871   5.054  17.776  0.00  0.00    +0.000 NA
BRANCH  19  27
ATOM     27  O   UNL     1       2.683   1.234  18.315  0.00  0.00    +0.000 OA
ATOM     28  H   UNL     1       3.321   0.820  17.703  0.00  0.00    +0.000 HD
ENDBRANCH  19  27
ENDBRANCH  16  17
ENDBRANCH  15  16
ENDBRANCH   4  15
TORSDOF 7
ENDMDL
MODEL 9
REMARK VINA RESULT:      -8.0      0.994      1.553
REMARK  Name = 
REMARK  8 active torsions:
REMARK  status: ('A' for Active; 'I' for Inactive)
REMARK    1  A    between atoms: C_1  and  C_2
REMARK    2  A    between atoms: C_6  and  O_7
REMARK    3  A    between atoms: O_7  and  C_8
REMARK    4  A    between atoms: C_8  and  C_9
REMARK    5  A    between atoms: C_12  and  S_13
REMARK    6  A    between atoms: S_13  and  C_14
REMARK    7  A    between atoms: C_14  and  C_15
REMARK    8  A    between atoms: C_17  and  O_18
REMARK                            x       y       z     vdW  Elec       q    Type
REMARK                         _______ _______ _______ _____ _____    ______ ____
ROOT
ATOM      1  C   UNL     1       7.739   7.509  17.911  0.00  0.00    +0.000 A 
ATOM      2  N   UNL     1       8.034   6.353  18.468  0.00  0.00    +0.000 NA
ATOM      3  N   UNL     1       7.627   5.381  17.581  0.00  0.00    +0.000 NA
ATOM      4  C   UNL     1       7.114   6.000  16.536  0.00  0.00    +0.000 A 
ATOM      5  O   UNL     1       7.147   7.368  16.677  0.00  0.00    +0.000 OA
ENDROOT
BRANCH   1   6
ATOM      6  C   UNL     1       7.879   8.878  18.475  0.00  0.00    +0.000 C 
BRANCH   6   7
ATOM      7  O   UNL     1       8.841   9.572  17.682  0.00  0.00    +0.000 OA
BRANCH   7  13
ATOM      8  C   UNL     1      12.276  13.188  17.829  0.00  0.00    +0.000 C 
ATOM      9  C   UNL     1      11.282  12.275  18.489  0.00  0.00    +0.000 A 
ATOM     10  C   UNL     1      11.093  12.312  19.874  0.00  0.00    +0.000 A 
ATOM     11  C   UNL     1      10.171  11.459  20.478  0.00  0.00    +0.000 A 
ATOM     12  C   UNL     1       9.438  10.563  19.701  0.00  0.00    +0.000 A 
ATOM     13  C   UNL     1       9.616  10.507  18.316  0.00  0.00    +0.000 A 
ATOM     14  C   UNL     1      10.536  11.370  17.713  0.00  0.00    +0.000 A 
ENDBRANCH   7  13
ENDBRANCH   6   7
ENDBRANCH   1   6
BRANCH   4  15
ATOM     15  S   UNL     1       6.395   5.153  15.200  0.00  0.00    +0.000 S 
BRANCH  15  16
ATOM     16  C   UNL     1       5.568   3.765  16.024  0.00  0.00    +0.000 C 
BRANCH  16  17
ATOM     17  C   UNL     1       4.509   4.099  17.050  0.00  0.00    +0.000 A 
ATOM     18  N   UNL     1       4.056   5.360  17.137  0.00  0.00    +0.000 NA
ATOM     19  C   UNL     1       3.121   5.579  18.065  0.00  0.00    +0.000 A 
ATOM     20  C   UNL     1       2.589   4.626  18.910  0.00  0.00    +0.000 A 
ATOM     21  C   UNL     1       1.582   4.878  19.873  0.00  0.00    +0.000 A 
ATOM     22  C   UNL     1       1.105   3.842  20.665  0.00  0.00    +0.000 A 
ATOM     23  C   UNL     1       1.632   2.566  20.512  0.00  0.00    +0.000 A 
ATOM     24  C   UNL     1       2.635   2.333  19.561  0.00  0.00    +0.000 A 
ATOM     25  C   UNL     1       3.124   3.347  18.745  0.00  0.00    +0.000 A 
ATOM     26  N   UNL     1       4.076   3.085  17.830  0.00  0.00    +0.000 NA
BRANCH  19  27
ATOM     27  O   UNL     1       2.719   6.877  18.106  0.00  0.00    +0.000 OA
ATOM     28  H   UNL     1       2.039   6.874  17.406  0.00  0.00    +0.000 HD
ENDBRANCH  19  27
ENDBRANCH  16  17
ENDBRANCH  15  16
ENDBRANCH   4  15
TORSDOF 7
ENDMDL
