MODEL 1
REMARK VINA RESULT:      -7.8      0.000      0.000
REMARK  Name = 
REMARK  11 active torsions:
REMARK  status: ('A' for Active; 'I' for Inactive)
REMARK    1  A    between atoms: C_1  and  O_2
REMARK    2  A    between atoms: O_2  and  C_3
REMARK    3  A    between atoms: C_5  and  C_6
REMARK    4  A    between atoms: N_8  and  C_9
REMARK    5  A    between atoms: C_12  and  N_13
REMARK    6  A    between atoms: C_14  and  C_16
REMARK    7  A    between atoms: C_17  and  C_18
REMARK    8  A    between atoms: C_27  and  O_28
REMARK    9  A    between atoms: O_28  and  C_29
REMARK   10  A    between atoms: C_30  and  O_31
REMARK   11  A    between atoms: O_31  and  C_32
REMARK                            x       y       z     vdW  Elec       q    Type
REMARK                         _______ _______ _______ _____ _____    ______ ____
ROOT
ATOM      1  C   UNL     1       1.258   8.832  20.340  0.00  0.00    +0.000 A 
ATOM      2  C   UNL     1       1.103   8.740  21.714  0.00  0.00    +0.000 A 
ATOM      3  C   UNL     1       0.171   9.526  22.393  0.00  0.00    +0.000 A 
ATOM      4  C   UNL     1      -0.635  10.442  21.724  0.00  0.00    +0.000 A 
ATOM      5  C   UNL     1      -0.490  10.545  20.336  0.00  0.00    +0.000 A 
ATOM      6  C   UNL     1       0.458   9.753  19.649  0.00  0.00    +0.000 A 
ENDROOT
BRANCH   1   9
ATOM      7  C   UNL     1       2.291   6.655  19.729  0.00  0.00    +0.000 C 
ATOM      8  O   UNL     1       1.590   5.912  20.406  0.00  0.00    +0.000 OA
ATOM      9  N   UNL     1       2.185   8.037  19.625  0.00  0.00    +0.000 N 
ATOM     10  H   UNL     1       2.716   8.499  18.900  0.00  0.00    +0.000 HD
BRANCH   7  13
ATOM     11  C   UNL     1       4.028   3.939  17.799  0.00  0.00    +0.000 A 
ATOM     12  C   UNL     1       3.222   4.619  18.719  0.00  0.00    +0.000 A 
ATOM     13  C   UNL     1       3.280   6.008  18.836  0.00  0.00    +0.000 A 
ATOM     14  C   UNL     1       4.236   6.715  18.119  0.00  0.00    +0.000 A 
ATOM     15  C   UNL     1       5.123   6.040  17.261  0.00  0.00    +0.000 A 
ATOM     16  C   UNL     1       5.026   4.637  17.087  0.00  0.00    +0.000 A 
BRANCH  11  18
ATOM     17  C   UNL     1       2.515   2.115  17.788  0.00  0.00    +0.000 C 
ATOM     18  O   UNL     1       3.852   2.591  17.611  0.00  0.00    +0.000 OA
ENDBRANCH  11  18
BRANCH  15  19
ATOM     19  O   UNL     1       5.994   6.921  16.666  0.00  0.00    +0.000 OA
ATOM     20  C   UNL     1       7.209   7.256  17.319  0.00  0.00    +0.000 C 
ENDBRANCH  15  19
BRANCH  16  21
ATOM     21  O   UNL     1       5.932   4.076  16.227  0.00  0.00    +0.000 OA
ATOM     22  C   UNL     1       5.710   4.063  14.829  0.00  0.00    +0.000 C 
ENDBRANCH  16  21
ENDBRANCH   7  13
ENDBRANCH   1   9
BRANCH   4  23
ATOM     23  N   UNL     1      -1.578  11.266  22.397  0.00  0.00    +0.000 N 
ATOM     24  C   UNL     1      -1.301  12.498  22.957  0.00  0.00    +0.000 C 
ATOM     25  O   UNL     1      -0.212  13.071  22.967  0.00  0.00    +0.000 OA
ATOM     26  H   UNL     1      -2.528  10.918  22.439  0.00  0.00    +0.000 HD
BRANCH  24  27
ATOM     27  C   UNL     1      -2.471  13.167  23.594  0.00  0.00    +0.000 C 
ATOM     28  C   UNL     1      -3.671  12.965  23.023  0.00  0.00    +0.000 C 
BRANCH  28  29
ATOM     29  C   UNL     1      -4.965  13.503  23.455  0.00  0.00    +0.000 A 
ATOM     30  C   UNL     1      -5.243  14.868  23.498  0.00  0.00    +0.000 A 
ATOM     31  C   UNL     1      -6.518  15.268  23.862  0.00  0.00    +0.000 A 
ATOM     32  N   UNL     1      -7.518  14.418  24.178  0.00  0.00    +0.000 NA
ATOM     33  C   UNL     1      -7.234  13.102  24.113  0.00  0.00    +0.000 A 
ATOM     34  C   UNL     1      -5.991  12.602  23.758  0.00  0.00    +0.000 A 
ENDBRANCH  28  29
ENDBRANCH  24  27
ENDBRANCH   4  23
TORSDOF 8
ENDMDL
MODEL 2
REMARK VINA RESULT:      -7.6      0.541      2.612
REMARK  Name = 
REMARK  11 active torsions:
REMARK  status: ('A' for Active; 'I' for Inactive)
REMARK    1  A    between atoms: C_1  and  O_2
REMARK    2  A    between atoms: O_2  and  C_3
REMARK    3  A    between atoms: C_5  and  C_6
REMARK    4  A    between atoms: N_8  and  C_9
REMARK    5  A    between atoms: C_12  and  N_13
REMARK    6  A    between atoms: C_14  and  C_16
REMARK    7  A    between atoms: C_17  and  C_18
REMARK    8  A    between atoms: C_27  and  O_28
REMARK    9  A    between atoms: O_28  and  C_29
REMARK   10  A    between atoms: C_30  and  O_31
REMARK   11  A    between atoms: O_31  and  C_32
REMARK                            x       y       z     vdW  Elec       q    Type
REMARK                         _______ _______ _______ _____ _____    ______ ____
ROOT
ATOM      1  C   UNL     1       1.360   8.727  19.838  0.00  0.00    +0.000 A 
ATOM      2  C   UNL     1       0.510   9.606  19.184  0.00  0.00    +0.000 A 
ATOM      3  C   UNL     1      -0.378  10.417  19.891  0.00  0.00    +0.000 A 
ATOM      4  C   UNL     1      -0.457  10.374  21.280  0.00  0.00    +0.000 A 
ATOM      5  C   UNL     1       0.395   9.493  21.954  0.00  0.00    +0.000 A 
ATOM      6  C   UNL     1       1.290   8.667  21.238  0.00  0.00    +0.000 A 
ENDROOT
BRANCH   1   9
ATOM      7  C   UNL     1       2.413   6.532  19.338  0.00  0.00    +0.000 C 
ATOM      8  O   UNL     1       1.746   5.823  20.082  0.00  0.00    +0.000 OA
ATOM      9  N   UNL     1       2.279   7.903  19.148  0.00  0.00    +0.000 N 
ATOM     10  H   UNL     1       2.779   8.325  18.378  0.00  0.00    +0.000 HD
BRANCH   7  13
ATOM     11  C   UNL     1       5.363   6.062  17.059  0.00  0.00    +0.000 A 
ATOM     12  C   UNL     1       4.326   6.638  17.802  0.00  0.00    +0.000 A 
ATOM     13  C   UNL     1       3.386   5.844  18.458  0.00  0.00    +0.000 A 
ATOM     14  C   UNL     1       3.404   4.468  18.273  0.00  0.00    +0.000 A 
ATOM     15  C   UNL     1       4.379   3.875  17.450  0.00  0.00    +0.000 A 
ATOM     16  C   UNL     1       5.378   4.669  16.833  0.00  0.00    +0.000 A 
BRANCH  11  18
ATOM     17  C   UNL     1       7.415   7.187  17.434  0.00  0.00    +0.000 C 
ATOM     18  O   UNL     1       6.348   6.863  16.538  0.00  0.00    +0.000 OA
ENDBRANCH  11  18
BRANCH  15  19
ATOM     19  O   UNL     1       4.207   2.513  17.389  0.00  0.00    +0.000 OA
ATOM     20  C   UNL     1       3.506   1.847  18.428  0.00  0.00    +0.000 C 
ENDBRANCH  15  19
BRANCH  16  21
ATOM     21  O   UNL     1       6.282   3.997  16.056  0.00  0.00    +0.000 OA
ATOM     22  C   UNL     1       6.144   3.939  14.648  0.00  0.00    +0.000 C 
ENDBRANCH  16  21
ENDBRANCH   7  13
ENDBRANCH   1   9
BRANCH   4  23
ATOM     23  N   UNL     1      -1.367  11.179  22.019  0.00  0.00    +0.000 N 
ATOM     24  C   UNL     1      -1.095  12.441  22.509  0.00  0.00    +0.000 C 
ATOM     25  O   UNL     1      -0.038  13.062  22.392  0.00  0.00    +0.000 OA
ATOM     26  H   UNL     1      -2.291  10.791  22.168  0.00  0.00    +0.000 HD
BRANCH  24  27
ATOM     27  C   UNL     1      -2.226  13.081  23.240  0.00  0.00    +0.000 C 
ATOM     28  C   UNL     1      -3.395  13.176  22.584  0.00  0.00    +0.000 C 
BRANCH  28  29
ATOM     29  C   UNL     1      -4.649  13.755  23.078  0.00  0.00    +0.000 A 
ATOM     30  C   UNL     1      -5.727  12.981  23.501  0.00  0.00    +0.000 A 
ATOM     31  C   UNL     1      -6.842  13.628  24.009  0.00  0.00    +0.000 A 
ATOM     32  N   UNL     1      -6.953  14.967  24.125  0.00  0.00    +0.000 NA
ATOM     33  C   UNL     1      -5.893  15.697  23.727  0.00  0.00    +0.000 A 
ATOM     34  C   UNL     1      -4.733  15.145  23.208  0.00  0.00    +0.000 A 
ENDBRANCH  28  29
ENDBRANCH  24  27
ENDBRANCH   4  23
TORSDOF 8
ENDMDL
MODEL 3
REMARK VINA RESULT:      -7.6      0.555      2.341
REMARK  Name = 
REMARK  11 active torsions:
REMARK  status: ('A' for Active; 'I' for Inactive)
REMARK    1  A    between atoms: C_1  and  O_2
REMARK    2  A    between atoms: O_2  and  C_3
REMARK    3  A    between atoms: C_5  and  C_6
REMARK    4  A    between atoms: N_8  and  C_9
REMARK    5  A    between atoms: C_12  and  N_13
REMARK    6  A    between atoms: C_14  and  C_16
REMARK    7  A    between atoms: C_17  and  C_18
REMARK    8  A    between atoms: C_27  and  O_28
REMARK    9  A    between atoms: O_28  and  C_29
REMARK   10  A    between atoms: C_30  and  O_31
REMARK   11  A    between atoms: O_31  and  C_32
REMARK                            x       y       z     vdW  Elec       q    Type
REMARK                         _______ _______ _______ _____ _____    ______ ____
ROOT
ATOM      1  C   UNL     1       1.271   8.999  19.631  0.00  0.00    +0.000 A 
ATOM      2  C   UNL     1       1.056   8.942  20.999  0.00  0.00    +0.000 A 
ATOM      3  C   UNL     1       0.153   9.800  21.628  0.00  0.00    +0.000 A 
ATOM      4  C   UNL     1      -0.564  10.755  20.912  0.00  0.00    +0.000 A 
ATOM      5  C   UNL     1      -0.359  10.823  19.530  0.00  0.00    +0.000 A 
ATOM      6  C   UNL     1       0.560   9.958  18.894  0.00  0.00    +0.000 A 
ENDROOT
BRANCH   1   9
ATOM      7  C   UNL     1       2.401   6.807  19.317  0.00  0.00    +0.000 C 
ATOM      8  O   UNL     1       1.847   6.175  20.209  0.00  0.00    +0.000 OA
ATOM      9  N   UNL     1       2.170   8.132  18.966  0.00  0.00    +0.000 N 
ATOM     10  H   UNL     1       2.573   8.470  18.103  0.00  0.00    +0.000 HD
BRANCH   7  13
ATOM     11  C   UNL     1       5.306   6.139  17.031  0.00  0.00    +0.000 A 
ATOM     12  C   UNL     1       4.307   6.783  17.771  0.00  0.00    +0.000 A 
ATOM     13  C   UNL     1       3.328   6.053  18.443  0.00  0.00    +0.000 A 
ATOM     14  C   UNL     1       3.268   4.675  18.278  0.00  0.00    +0.000 A 
ATOM     15  C   UNL     1       4.203   4.017  17.459  0.00  0.00    +0.000 A 
ATOM     16  C   UNL     1       5.241   4.744  16.826  0.00  0.00    +0.000 A 
BRANCH  11  18
ATOM     17  C   UNL     1       7.397   7.195  17.393  0.00  0.00    +0.000 C 
ATOM     18  O   UNL     1       6.332   6.875  16.494  0.00  0.00    +0.000 OA
ENDBRANCH  11  18
BRANCH  15  19
ATOM     19  O   UNL     1       3.954   2.666  17.419  0.00  0.00    +0.000 OA
ATOM     20  C   UNL     1       3.181   2.064  18.447  0.00  0.00    +0.000 C 
ENDBRANCH  15  19
BRANCH  16  21
ATOM     21  O   UNL     1       6.102   4.011  16.054  0.00  0.00    +0.000 OA
ATOM     22  C   UNL     1       5.992   3.993  14.642  0.00  0.00    +0.000 C 
ENDBRANCH  16  21
ENDBRANCH   7  13
ENDBRANCH   1   9
BRANCH   4  23
ATOM     23  N   UNL     1      -1.476  11.651  21.535  0.00  0.00    +0.000 N 
ATOM     24  C   UNL     1      -1.122  12.798  22.219  0.00  0.00    +0.000 C 
ATOM     25  O   UNL     1       0.020  13.221  22.401  0.00  0.00    +0.000 OA
ATOM     26  H   UNL     1      -2.459  11.429  21.438  0.00  0.00    +0.000 HD
BRANCH  24  27
ATOM     27  C   UNL     1      -2.271  13.573  22.766  0.00  0.00    +0.000 C 
ATOM     28  C   UNL     1      -3.460  12.948  22.808  0.00  0.00    +0.000 C 
BRANCH  28  29
ATOM     29  C   UNL     1      -4.733  13.486  23.300  0.00  0.00    +0.000 A 
ATOM     30  C   UNL     1      -5.005  14.851  23.366  0.00  0.00    +0.000 A 
ATOM     31  C   UNL     1      -6.263  15.251  23.787  0.00  0.00    +0.000 A 
ATOM     32  N   UNL     1      -7.250  14.401  24.140  0.00  0.00    +0.000 NA
ATOM     33  C   UNL     1      -6.972  13.085  24.053  0.00  0.00    +0.000 A 
ATOM     34  C   UNL     1      -5.748  12.585  23.641  0.00  0.00    +0.000 A 
ENDBRANCH  28  29
ENDBRANCH  24  27
ENDBRANCH   4  23
TORSDOF 8
ENDMDL
MODEL 4
REMARK VINA RESULT:      -7.3      1.197      2.825
REMARK  Name = 
REMARK  11 active torsions:
REMARK  status: ('A' for Active; 'I' for Inactive)
REMARK    1  A    between atoms: C_1  and  O_2
REMARK    2  A    between atoms: O_2  and  C_3
REMARK    3  A    between atoms: C_5  and  C_6
REMARK    4  A    between atoms: N_8  and  C_9
REMARK    5  A    between atoms: C_12  and  N_13
REMARK    6  A    between atoms: C_14  and  C_16
REMARK    7  A    between atoms: C_17  and  C_18
REMARK    8  A    between atoms: C_27  and  O_28
REMARK    9  A    between atoms: O_28  and  C_29
REMARK   10  A    between atoms: C_30  and  O_31
REMARK   11  A    between atoms: O_31  and  C_32
REMARK                            x       y       z     vdW  Elec       q    Type
REMARK                         _______ _______ _______ _____ _____    ______ ____
ROOT
ATOM      1  C   UNL     1       1.286   8.814  20.293  0.00  0.00    +0.000 A 
ATOM      2  C   UNL     1       1.202   8.748  21.674  0.00  0.00    +0.000 A 
ATOM      3  C   UNL     1       0.339   9.579  22.390  0.00  0.00    +0.000 A 
ATOM      4  C   UNL     1      -0.468  10.516  21.750  0.00  0.00    +0.000 A 
ATOM      5  C   UNL     1      -0.395  10.593  20.354  0.00  0.00    +0.000 A 
ATOM      6  C   UNL     1       0.483   9.755  19.631  0.00  0.00    +0.000 A 
ENDROOT
BRANCH   1   9
ATOM      7  C   UNL     1       2.245   6.597  19.705  0.00  0.00    +0.000 C 
ATOM      8  O   UNL     1       1.597   5.897  20.474  0.00  0.00    +0.000 OA
ATOM      9  N   UNL     1       2.142   7.974  19.542  0.00  0.00    +0.000 N 
ATOM     10  H   UNL     1       2.613   8.393  18.753  0.00  0.00    +0.000 HD
BRANCH   7  13
ATOM     11  C   UNL     1       4.991   6.097  17.190  0.00  0.00    +0.000 A 
ATOM     12  C   UNL     1       4.013   6.681  18.004  0.00  0.00    +0.000 A 
ATOM     13  C   UNL     1       3.148   5.895  18.764  0.00  0.00    +0.000 A 
ATOM     14  C   UNL     1       3.174   4.514  18.621  0.00  0.00    +0.000 A 
ATOM     15  C   UNL     1       4.083   3.909  17.734  0.00  0.00    +0.000 A 
ATOM     16  C   UNL     1       5.010   4.698  17.007  0.00  0.00    +0.000 A 
BRANCH  11  18
ATOM     17  C   UNL     1       7.100   7.170  17.306  0.00  0.00    +0.000 C 
ATOM     18  O   UNL     1       5.912   6.894  16.560  0.00  0.00    +0.000 OA
ENDBRANCH  11  18
BRANCH  15  19
ATOM     19  O   UNL     1       3.930   2.544  17.731  0.00  0.00    +0.000 OA
ATOM     20  C   UNL     1       2.627   1.983  17.680  0.00  0.00    +0.000 C 
ENDBRANCH  15  19
BRANCH  16  21
ATOM     21  O   UNL     1       5.854   4.014  16.174  0.00  0.00    +0.000 OA
ATOM     22  C   UNL     1       5.764   4.142  14.767  0.00  0.00    +0.000 C 
ENDBRANCH  16  21
ENDBRANCH   7  13
ENDBRANCH   1   9
BRANCH   4  23
ATOM     23  N   UNL     1      -1.341  11.385  22.460  0.00  0.00    +0.000 N 
ATOM     24  C   UNL     1      -1.077  12.707  22.759  0.00  0.00    +0.000 C 
ATOM     25  O   UNL     1      -0.059  13.336  22.469  0.00  0.00    +0.000 OA
ATOM     26  H   UNL     1      -2.233  10.994  22.739  0.00  0.00    +0.000 HD
BRANCH  24  27
ATOM     27  C   UNL     1      -2.165  13.404  23.501  0.00  0.00    +0.000 C 
ATOM     28  C   UNL     1      -2.377  14.696  23.195  0.00  0.00    +0.000 C 
BRANCH  28  29
ATOM     29  C   UNL     1      -3.380  15.595  23.774  0.00  0.00    +0.000 A 
ATOM     30  C   UNL     1      -4.751  15.368  23.675  0.00  0.00    +0.000 A 
ATOM     31  C   UNL     1      -5.611  16.247  24.312  0.00  0.00    +0.000 A 
ATOM     32  N   UNL     1      -5.207  17.316  25.030  0.00  0.00    +0.000 NA
ATOM     33  C   UNL     1      -3.877  17.509  25.128  0.00  0.00    +0.000 A 
ATOM     34  C   UNL     1      -2.937  16.685  24.530  0.00  0.00    +0.000 A 
ENDBRANCH  28  29
ENDBRANCH  24  27
ENDBRANCH   4  23
TORSDOF 8
ENDMDL
MODEL 5
REMARK VINA RESULT:      -7.3      0.713      1.158
REMARK  Name = 
REMARK  11 active torsions:
REMARK  status: ('A' for Active; 'I' for Inactive)
REMARK    1  A    between atoms: C_1  and  O_2
REMARK    2  A    between atoms: O_2  and  C_3
REMARK    3  A    between atoms: C_5  and  C_6
REMARK    4  A    between atoms: N_8  and  C_9
REMARK    5  A    between atoms: C_12  and  N_13
REMARK    6  A    between atoms: C_14  and  C_16
REMARK    7  A    between atoms: C_17  and  C_18
REMARK    8  A    between atoms: C_27  and  O_28
REMARK    9  A    between atoms: O_28  and  C_29
REMARK   10  A    between atoms: C_30  and  O_31
REMARK   11  A    between atoms: O_31  and  C_32
REMARK                            x       y       z     vdW  Elec       q    Type
REMARK                         _______ _______ _______ _____ _____    ______ ____
ROOT
ATOM      1  C   UNL     1       1.210   9.175  19.238  0.00  0.00    +0.000 A 
ATOM      2  C   UNL     1       0.426  10.014  18.462  0.00  0.00    +0.000 A 
ATOM      3  C   UNL     1      -0.503  10.880  19.041  0.00  0.00    +0.000 A 
ATOM      4  C   UNL     1      -0.690  10.933  20.419  0.00  0.00    +0.000 A 
ATOM      5  C   UNL     1       0.096  10.092  21.215  0.00  0.00    +0.000 A 
ATOM      6  C   UNL     1       1.032   9.211  20.629  0.00  0.00    +0.000 A 
ENDROOT
BRANCH   1   9
ATOM      7  C   UNL     1       2.429   7.010  19.138  0.00  0.00    +0.000 C 
ATOM      8  O   UNL     1       1.858   6.425  20.050  0.00  0.00    +0.000 OA
ATOM      9  N   UNL     1       2.168   8.297  18.679  0.00  0.00    +0.000 N 
ATOM     10  H   UNL     1       2.597   8.585  17.811  0.00  0.00    +0.000 HD
BRANCH   7  13
ATOM     11  C   UNL     1       4.022   4.063  17.438  0.00  0.00    +0.000 A 
ATOM     12  C   UNL     1       3.211   4.855  18.260  0.00  0.00    +0.000 A 
ATOM     13  C   UNL     1       3.421   6.230  18.363  0.00  0.00    +0.000 A 
ATOM     14  C   UNL     1       4.522   6.803  17.740  0.00  0.00    +0.000 A 
ATOM     15  C   UNL     1       5.407   6.008  16.990  0.00  0.00    +0.000 A 
ATOM     16  C   UNL     1       5.163   4.621  16.825  0.00  0.00    +0.000 A 
BRANCH  11  18
ATOM     17  C   UNL     1       2.574   2.267  17.984  0.00  0.00    +0.000 C 
ATOM     18  O   UNL     1       3.708   2.740  17.252  0.00  0.00    +0.000 OA
ENDBRANCH  11  18
BRANCH  15  19
ATOM     19  O   UNL     1       6.432   6.766  16.477  0.00  0.00    +0.000 OA
ATOM     20  C   UNL     1       7.413   7.303  17.352  0.00  0.00    +0.000 C 
ENDBRANCH  15  19
BRANCH  16  21
ATOM     21  O   UNL     1       6.080   3.937  16.074  0.00  0.00    +0.000 OA
ATOM     22  C   UNL     1       6.008   3.922  14.660  0.00  0.00    +0.000 C 
ENDBRANCH  16  21
ENDBRANCH   7  13
ENDBRANCH   1   9
BRANCH   4  23
ATOM     23  N   UNL     1      -1.642  11.795  21.029  0.00  0.00    +0.000 N 
ATOM     24  C   UNL     1      -1.495  12.397  22.263  0.00  0.00    +0.000 C 
ATOM     25  O   UNL     1      -0.533  12.284  23.024  0.00  0.00    +0.000 OA
ATOM     26  H   UNL     1      -2.478  11.991  20.491  0.00  0.00    +0.000 HD
BRANCH  24  27
ATOM     27  C   UNL     1      -2.634  13.267  22.669  0.00  0.00    +0.000 C 
ATOM     28  C   UNL     1      -3.850  12.696  22.710  0.00  0.00    +0.000 C 
BRANCH  28  29
ATOM     29  C   UNL     1      -5.120  13.330  23.078  0.00  0.00    +0.000 A 
ATOM     30  C   UNL     1      -5.499  14.591  22.622  0.00  0.00    +0.000 A 
ATOM     31  C   UNL     1      -6.748  15.072  22.979  0.00  0.00    +0.000 A 
ATOM     32  N   UNL     1      -7.630  14.394  23.743  0.00  0.00    +0.000 NA
ATOM     33  C   UNL     1      -7.252  13.169  24.160  0.00  0.00    +0.000 A 
ATOM     34  C   UNL     1      -6.027  12.600  23.854  0.00  0.00    +0.000 A 
ENDBRANCH  28  29
ENDBRANCH  24  27
ENDBRANCH   4  23
TORSDOF 8
ENDMDL
MODEL 6
REMARK VINA RESULT:      -7.3      1.818      3.197
REMARK  Name = 
REMARK  11 active torsions:
REMARK  status: ('A' for Active; 'I' for Inactive)
REMARK    1  A    between atoms: C_1  and  O_2
REMARK    2  A    between atoms: O_2  and  C_3
REMARK    3  A    between atoms: C_5  and  C_6
REMARK    4  A    between atoms: N_8  and  C_9
REMARK    5  A    between atoms: C_12  and  N_13
REMARK    6  A    between atoms: C_14  and  C_16
REMARK    7  A    between atoms: C_17  and  C_18
REMARK    8  A    between atoms: C_27  and  O_28
REMARK    9  A    between atoms: O_28  and  C_29
REMARK   10  A    between atoms: C_30  and  O_31
REMARK   11  A    between atoms: O_31  and  C_32
REMARK                            x       y       z     vdW  Elec       q    Type
REMARK                         _______ _______ _______ _____ _____    ______ ____
ROOT
ATOM      1  C   UNL     1       1.195   8.769  20.347  0.00  0.00    +0.000 A 
ATOM      2  C   UNL     1       0.400   9.713  19.716  0.00  0.00    +0.000 A 
ATOM      3  C   UNL     1      -0.350  10.635  20.447  0.00  0.00    +0.000 A 
ATOM      4  C   UNL     1      -0.341  10.643  21.839  0.00  0.00    +0.000 A 
ATOM      5  C   UNL     1       0.458   9.696  22.490  0.00  0.00    +0.000 A 
ATOM      6  C   UNL     1       1.213   8.759  21.750  0.00  0.00    +0.000 A 
ENDROOT
BRANCH   1   9
ATOM      7  C   UNL     1       2.450   8.018  18.337  0.00  0.00    +0.000 C 
ATOM      8  O   UNL     1       2.310   9.015  17.639  0.00  0.00    +0.000 OA
ATOM      9  N   UNL     1       1.976   7.832  19.631  0.00  0.00    +0.000 N 
ATOM     10  H   UNL     1       2.313   7.031  20.147  0.00  0.00    +0.000 HD
BRANCH   7  13
ATOM     11  C   UNL     1       5.485   6.355  16.875  0.00  0.00    +0.000 A 
ATOM     12  C   UNL     1       4.553   7.317  17.282  0.00  0.00    +0.000 A 
ATOM     13  C   UNL     1       3.313   6.942  17.798  0.00  0.00    +0.000 A 
ATOM     14  C   UNL     1       2.948   5.602  17.795  0.00  0.00    +0.000 A 
ATOM     15  C   UNL     1       3.830   4.626  17.299  0.00  0.00    +0.000 A 
ATOM     16  C   UNL     1       5.118   4.993  16.834  0.00  0.00    +0.000 A 
BRANCH  11  18
ATOM     17  C   UNL     1       7.522   7.380  17.520  0.00  0.00    +0.000 C 
ATOM     18  O   UNL     1       6.744   6.749  16.499  0.00  0.00    +0.000 OA
ENDBRANCH  11  18
BRANCH  15  19
ATOM     19  O   UNL     1       3.269   3.375  17.371  0.00  0.00    +0.000 OA
ATOM     20  C   UNL     1       2.285   3.103  18.358  0.00  0.00    +0.000 C 
ENDBRANCH  15  19
BRANCH  16  21
ATOM     21  O   UNL     1       5.903   3.969  16.376  0.00  0.00    +0.000 OA
ATOM     22  C   UNL     1       6.124   3.773  14.991  0.00  0.00    +0.000 C 
ENDBRANCH  16  21
ENDBRANCH   7  13
ENDBRANCH   1   9
BRANCH   4  23
ATOM     23  N   UNL     1      -1.112  11.561  22.604  0.00  0.00    +0.000 N 
ATOM     24  C   UNL     1      -0.829  12.905  22.752  0.00  0.00    +0.000 C 
ATOM     25  O   UNL     1       0.120  13.514  22.259  0.00  0.00    +0.000 OA
ATOM     26  H   UNL     1      -1.943  11.189  23.047  0.00  0.00    +0.000 HD
BRANCH  24  27
ATOM     27  C   UNL     1      -1.804  13.654  23.595  0.00  0.00    +0.000 C 
ATOM     28  C   UNL     1      -1.854  14.986  23.427  0.00  0.00    +0.000 C 
BRANCH  28  29
ATOM     29  C   UNL     1      -2.720  15.941  24.126  0.00  0.00    +0.000 A 
ATOM     30  C   UNL     1      -2.246  17.120  24.696  0.00  0.00    +0.000 A 
ATOM     31  C   UNL     1      -3.160  17.983  25.279  0.00  0.00    +0.000 A 
ATOM     32  N   UNL     1      -4.490  17.757  25.330  0.00  0.00    +0.000 NA
ATOM     33  C   UNL     1      -4.930  16.618  24.758  0.00  0.00    +0.000 A 
ATOM     34  C   UNL     1      -4.097  15.694  24.148  0.00  0.00    +0.000 A 
ENDBRANCH  28  29
ENDBRANCH  24  27
ENDBRANCH   4  23
TORSDOF 8
ENDMDL
MODEL 7
REMARK VINA RESULT:      -7.3      1.014      1.108
REMARK  Name = 
REMARK  11 active torsions:
REMARK  status: ('A' for Active; 'I' for Inactive)
REMARK    1  A    between atoms: C_1  and  O_2
REMARK    2  A    between atoms: O_2  and  C_3
REMARK    3  A    between atoms: C_5  and  C_6
REMARK    4  A    between atoms: N_8  and  C_9
REMARK    5  A    between atoms: C_12  and  N_13
REMARK    6  A    between atoms: C_14  and  C_16
REMARK    7  A    between atoms: C_17  and  C_18
REMARK    8  A    between atoms: C_27  and  O_28
REMARK    9  A    between atoms: O_28  and  C_29
REMARK   10  A    between atoms: C_30  and  O_31
REMARK   11  A    between atoms: O_31  and  C_32
REMARK                            x       y       z     vdW  Elec       q    Type
REMARK                         _______ _______ _______ _____ _____    ______ ____
ROOT
ATOM      1  C   UNL     1       1.369   8.979  19.387  0.00  0.00    +0.000 A 
ATOM      2  C   UNL     1       1.085   8.953  20.744  0.00  0.00    +0.000 A 
ATOM      3  C   UNL     1       0.114   9.788  21.298  0.00  0.00    +0.000 A 
ATOM      4  C   UNL     1      -0.606  10.687  20.516  0.00  0.00    +0.000 A 
ATOM      5  C   UNL     1      -0.332  10.723  19.145  0.00  0.00    +0.000 A 
ATOM      6  C   UNL     1       0.657   9.882  18.585  0.00  0.00    +0.000 A 
ENDROOT
BRANCH   1   9
ATOM      7  C   UNL     1       2.563   6.810  19.158  0.00  0.00    +0.000 C 
ATOM      8  O   UNL     1       1.944   6.160  19.992  0.00  0.00    +0.000 OA
ATOM      9  N   UNL     1       2.339   8.135  18.798  0.00  0.00    +0.000 N 
ATOM     10  H   UNL     1       2.810   8.487  17.976  0.00  0.00    +0.000 HD
BRANCH   7  13
ATOM     11  C   UNL     1       4.255   3.952  17.404  0.00  0.00    +0.000 A 
ATOM     12  C   UNL     1       3.422   4.700  18.244  0.00  0.00    +0.000 A 
ATOM     13  C   UNL     1       3.577   6.081  18.363  0.00  0.00    +0.000 A 
ATOM     14  C   UNL     1       4.648   6.706  17.738  0.00  0.00    +0.000 A 
ATOM     15  C   UNL     1       5.557   5.957  16.968  0.00  0.00    +0.000 A 
ATOM     16  C   UNL     1       5.368   4.564  16.788  0.00  0.00    +0.000 A 
BRANCH  11  18
ATOM     17  C   UNL     1       3.438   1.926  18.323  0.00  0.00    +0.000 C 
ATOM     18  O   UNL     1       3.994   2.620  17.202  0.00  0.00    +0.000 OA
ENDBRANCH  11  18
BRANCH  15  19
ATOM     19  O   UNL     1       6.546   6.762  16.457  0.00  0.00    +0.000 OA
ATOM     20  C   UNL     1       7.474   7.378  17.336  0.00  0.00    +0.000 C 
ENDBRANCH  15  19
BRANCH  16  21
ATOM     21  O   UNL     1       6.304   3.927  16.018  0.00  0.00    +0.000 OA
ATOM     22  C   UNL     1       6.230   3.944  14.604  0.00  0.00    +0.000 C 
ENDBRANCH  16  21
ENDBRANCH   7  13
ENDBRANCH   1   9
BRANCH   4  23
ATOM     23  N   UNL     1      -1.588  11.559  21.062  0.00  0.00    +0.000 N 
ATOM     24  C   UNL     1      -1.503  12.182  22.292  0.00  0.00    +0.000 C 
ATOM     25  O   UNL     1      -0.582  12.082  23.103  0.00  0.00    +0.000 OA
ATOM     26  H   UNL     1      -2.395  11.747  20.479  0.00  0.00    +0.000 HD
BRANCH  24  27
ATOM     27  C   UNL     1      -2.661  13.059  22.624  0.00  0.00    +0.000 C 
ATOM     28  C   UNL     1      -3.863  12.681  22.157  0.00  0.00    +0.000 C 
BRANCH  28  29
ATOM     29  C   UNL     1      -5.147  13.363  22.346  0.00  0.00    +0.000 A 
ATOM     30  C   UNL     1      -6.083  13.515  21.325  0.00  0.00    +0.000 A 
ATOM     31  C   UNL     1      -7.292  14.121  21.627  0.00  0.00    +0.000 A 
ATOM     32  N   UNL     1      -7.627  14.576  22.852  0.00  0.00    +0.000 NA
ATOM     33  C   UNL     1      -6.715  14.403  23.830  0.00  0.00    +0.000 A 
ATOM     34  C   UNL     1      -5.480  13.808  23.630  0.00  0.00    +0.000 A 
ENDBRANCH  28  29
ENDBRANCH  24  27
ENDBRANCH   4  23
TORSDOF 8
ENDMDL
MODEL 8
REMARK VINA RESULT:      -7.2      1.970      3.157
REMARK  Name = 
REMARK  11 active torsions:
REMARK  status: ('A' for Active; 'I' for Inactive)
REMARK    1  A    between atoms: C_1  and  O_2
REMARK    2  A    between atoms: O_2  and  C_3
REMARK    3  A    between atoms: C_5  and  C_6
REMARK    4  A    between atoms: N_8  and  C_9
REMARK    5  A    between atoms: C_12  and  N_13
REMARK    6  A    between atoms: C_14  and  C_16
REMARK    7  A    between atoms: C_17  and  C_18
REMARK    8  A    between atoms: C_27  and  O_28
REMARK    9  A    between atoms: O_28  and  C_29
REMARK   10  A    between atoms: C_30  and  O_31
REMARK   11  A    between atoms: O_31  and  C_32
REMARK                            x       y       z     vdW  Elec       q    Type
REMARK                         _______ _______ _______ _____ _____    ______ ____
ROOT
ATOM      1  C   UNL     1       0.948   9.755  18.102  0.00  0.00    +0.000 A 
ATOM      2  C   UNL     1      -0.410   9.597  17.876  0.00  0.00    +0.000 A 
ATOM      3  C   UNL     1      -1.328  10.577  18.256  0.00  0.00    +0.000 A 
ATOM      4  C   UNL     1      -0.922  11.750  18.886  0.00  0.00    +0.000 A 
ATOM      5  C   UNL     1       0.446  11.924  19.120  0.00  0.00    +0.000 A 
ATOM      6  C   UNL     1       1.375  10.929  18.741  0.00  0.00    +0.000 A 
ENDROOT
BRANCH   1   9
ATOM      7  C   UNL     1       2.377   7.768  18.538  0.00  0.00    +0.000 C 
ATOM      8  O   UNL     1       2.028   7.527  19.687  0.00  0.00    +0.000 OA
ATOM      9  N   UNL     1       1.901   8.784  17.716  0.00  0.00    +0.000 N 
ATOM     10  H   UNL     1       2.153   8.757  16.738  0.00  0.00    +0.000 HD
BRANCH   7  13
ATOM     11  C   UNL     1       5.489   6.492  16.862  0.00  0.00    +0.000 A 
ATOM     12  C   UNL     1       4.484   7.334  17.354  0.00  0.00    +0.000 A 
ATOM     13  C   UNL     1       3.319   6.810  17.913  0.00  0.00    +0.000 A 
ATOM     14  C   UNL     1       3.095   5.440  17.871  0.00  0.00    +0.000 A 
ATOM     15  C   UNL     1       4.048   4.583  17.293  0.00  0.00    +0.000 A 
ATOM     16  C   UNL     1       5.265   5.101  16.782  0.00  0.00    +0.000 A 
BRANCH  11  18
ATOM     17  C   UNL     1       7.552   7.479  17.483  0.00  0.00    +0.000 C 
ATOM     18  O   UNL     1       6.679   7.031  16.443  0.00  0.00    +0.000 OA
ENDBRANCH  11  18
BRANCH  15  19
ATOM     19  O   UNL     1       3.625   3.277  17.339  0.00  0.00    +0.000 OA
ATOM     20  C   UNL     1       2.254   2.991  17.575  0.00  0.00    +0.000 C 
ENDBRANCH  15  19
BRANCH  16  21
ATOM     21  O   UNL     1       6.127   4.184  16.244  0.00  0.00    +0.000 OA
ATOM     22  C   UNL     1       6.195   3.969  14.846  0.00  0.00    +0.000 C 
ENDBRANCH  16  21
ENDBRANCH   7  13
ENDBRANCH   1   9
BRANCH   4  23
ATOM     23  N   UNL     1      -1.842  12.754  19.297  0.00  0.00    +0.000 N 
ATOM     24  C   UNL     1      -2.388  12.862  20.561  0.00  0.00    +0.000 C 
ATOM     25  O   UNL     1      -2.176  12.118  21.518  0.00  0.00    +0.000 OA
ATOM     26  H   UNL     1      -2.085  13.451  18.604  0.00  0.00    +0.000 HD
BRANCH  24  27
ATOM     27  C   UNL     1      -3.316  14.015  20.739  0.00  0.00    +0.000 C 
ATOM     28  C   UNL     1      -4.138  13.973  21.801  0.00  0.00    +0.000 C 
BRANCH  28  29
ATOM     29  C   UNL     1      -5.133  14.975  22.197  0.00  0.00    +0.000 A 
ATOM     30  C   UNL     1      -5.415  16.107  21.435  0.00  0.00    +0.000 A 
ATOM     31  C   UNL     1      -6.418  16.959  21.868  0.00  0.00    +0.000 A 
ATOM     32  N   UNL     1      -7.148  16.763  22.987  0.00  0.00    +0.000 NA
ATOM     33  C   UNL     1      -6.872  15.653  23.700  0.00  0.00    +0.000 A 
ATOM     34  C   UNL     1      -5.891  14.740  23.349  0.00  0.00    +0.000 A 
ENDBRANCH  28  29
ENDBRANCH  24  27
ENDBRANCH   4  23
TORSDOF 8
ENDMDL
MODEL 9
REMARK VINA RESULT:      -7.2      1.924      3.296
REMARK  Name = 
REMARK  11 active torsions:
REMARK  status: ('A' for Active; 'I' for Inactive)
REMARK    1  A    between atoms: C_1  and  O_2
REMARK    2  A    between atoms: O_2  and  C_3
REMARK    3  A    between atoms: C_5  and  C_6
REMARK    4  A    between atoms: N_8  and  C_9
REMARK    5  A    between atoms: C_12  and  N_13
REMARK    6  A    between atoms: C_14  and  C_16
REMARK    7  A    between atoms: C_17  and  C_18
REMARK    8  A    between atoms: C_27  and  O_28
REMARK    9  A    between atoms: O_28  and  C_29
REMARK   10  A    between atoms: C_30  and  O_31
REMARK   11  A    between atoms: O_31  and  C_32
REMARK                            x       y       z     vdW  Elec       q    Type
REMARK                         _______ _______ _______ _____ _____    ______ ____
ROOT
ATOM      1  C   UNL     1       0.286   9.098  21.539  0.00  0.00    +0.000 A 
ATOM      2  C   UNL     1      -0.112   9.227  22.861  0.00  0.00    +0.000 A 
ATOM      3  C   UNL     1      -0.711  10.398  23.327  0.00  0.00    +0.000 A 
ATOM      4  C   UNL     1      -0.928  11.489  22.490  0.00  0.00    +0.000 A 
ATOM      5  C   UNL     1      -0.532  11.373  21.153  0.00  0.00    +0.000 A 
ATOM      6  C   UNL     1       0.081  10.190  20.683  0.00  0.00    +0.000 A 
ENDROOT
BRANCH   1   9
ATOM      7  C   UNL     1       1.712   7.862  19.922  0.00  0.00    +0.000 C 
ATOM      8  O   UNL     1       2.085   8.804  19.233  0.00  0.00    +0.000 OA
ATOM      9  N   UNL     1       0.884   7.918  21.037  0.00  0.00    +0.000 N 
ATOM     10  H   UNL     1       0.801   7.088  21.607  0.00  0.00    +0.000 HD
BRANCH   7  13
ATOM     11  C   UNL     1       3.580   5.207  18.029  0.00  0.00    +0.000 A 
ATOM     12  C   UNL     1       2.889   6.380  18.357  0.00  0.00    +0.000 A 
ATOM     13  C   UNL     1       2.295   6.536  19.609  0.00  0.00    +0.000 A 
ATOM     14  C   UNL     1       2.280   5.469  20.497  0.00  0.00    +0.000 A 
ATOM     15  C   UNL     1       2.883   4.247  20.149  0.00  0.00    +0.000 A 
ATOM     16  C   UNL     1       3.547   4.102  18.906  0.00  0.00    +0.000 A 
BRANCH  11  18
ATOM     17  C   UNL     1       5.634   5.560  16.899  0.00  0.00    +0.000 C 
ATOM     18  O   UNL     1       4.269   5.136  16.844  0.00  0.00    +0.000 OA
ENDBRANCH  11  18
BRANCH  15  19
ATOM     19  O   UNL     1       2.740   3.325  21.158  0.00  0.00    +0.000 OA
ATOM     20  C   UNL     1       1.481   2.704  21.368  0.00  0.00    +0.000 C 
ENDBRANCH  15  19
BRANCH  16  21
ATOM     21  O   UNL     1       4.105   2.876  18.664  0.00  0.00    +0.000 OA
ATOM     22  C   UNL     1       3.372   1.847  18.024  0.00  0.00    +0.000 C 
ENDBRANCH  16  21
ENDBRANCH   7  13
ENDBRANCH   1   9
BRANCH   4  23
ATOM     23  N   UNL     1      -1.521  12.698  22.947  0.00  0.00    +0.000 N 
ATOM     24  C   UNL     1      -2.782  12.805  23.499  0.00  0.00    +0.000 C 
ATOM     25  O   UNL     1      -3.586  11.890  23.678  0.00  0.00    +0.000 OA
ATOM     26  H   UNL     1      -0.950  13.532  22.878  0.00  0.00    +0.000 HD
BRANCH  24  27
ATOM     27  C   UNL     1      -3.163  14.186  23.913  0.00  0.00    +0.000 C 
ATOM     28  C   UNL     1      -4.388  14.609  23.559  0.00  0.00    +0.000 C 
BRANCH  28  29
ATOM     29  C   UNL     1      -4.997  15.912  23.845  0.00  0.00    +0.000 A 
ATOM     30  C   UNL     1      -6.131  16.381  23.184  0.00  0.00    +0.000 A 
ATOM     31  C   UNL     1      -6.663  17.600  23.574  0.00  0.00    +0.000 A 
ATOM     32  N   UNL     1      -6.153  18.368  24.560  0.00  0.00    +0.000 NA
ATOM     33  C   UNL     1      -5.067  17.888  25.198  0.00  0.00    +0.000 A 
ATOM     34  C   UNL     1      -4.464  16.681  24.884  0.00  0.00    +0.000 A 
ENDBRANCH  28  29
ENDBRANCH  24  27
ENDBRANCH   4  23
TORSDOF 8
ENDMDL
