MODEL 1
REMARK VINA RESULT:      -7.6      0.000      0.000
REMARK  Name = 
REMARK  4 active torsions:
REMARK  status: ('A' for Active; 'I' for Inactive)
REMARK    1  A    between atoms: S_2  and  N_4
REMARK    2  A    between atoms: S_2  and  C_12
REMARK    3  A    between atoms: N_4  and  C_5
REMARK    4  A    between atoms: C_5  and  C_6
REMARK                            x       y       z     vdW  Elec       q    Type
REMARK                         _______ _______ _______ _____ _____    ______ ____
ROOT
ATOM      1  O   UNL     1       7.547   6.724  16.526  0.00  0.00    +0.000 OA
ATOM      2  S   UNL     1       7.149   5.332  16.499  0.00  0.00    +0.000 S 
ATOM      3  O   UNL     1       7.940   4.305  17.149  0.00  0.00    +0.000 OA
ENDROOT
BRANCH   2   4
ATOM      4  C   UNL     1       7.002   4.887  14.774  0.00  0.00    +0.000 A 
ATOM      5  C   UNL     1       6.072   3.928  14.401  0.00  0.00    +0.000 A 
ATOM      6  C   UNL     1       6.033   3.566  13.059  0.00  0.00    +0.000 A 
ATOM      7  C   UNL     1       6.911   4.173  12.162  0.00  0.00    +0.000 A 
ATOM      8  C   UNL     1       7.800   5.129  12.641  0.00  0.00    +0.000 A 
ATOM      9  N   UNL     1       7.876   5.510  13.935  0.00  0.00    +0.000 NA
ENDBRANCH   2   4
BRANCH   2  10
ATOM     10  N   UNL     1       5.566   5.254  17.104  0.00  0.00    +0.000 NA
ATOM     11  H   UNL     1       4.926   5.008  16.337  0.00  0.00    +0.000 HD
BRANCH  10  12
ATOM     12  C   UNL     1       5.369   4.279  18.200  0.00  0.00    +0.000 C 
BRANCH  12  13
ATOM     13  C   UNL     1       3.939   3.772  18.259  0.00  0.00    +0.000 A 
ATOM     14  C   UNL     1       2.893   4.556  17.772  0.00  0.00    +0.000 A 
ATOM     15  C   UNL     1       1.589   4.077  17.859  0.00  0.00    +0.000 A 
ATOM     16  C   UNL     1       1.362   2.828  18.423  0.00  0.00    +0.000 A 
ATOM     17  C   UNL     1       2.454   2.107  18.877  0.00  0.00    +0.000 A 
ATOM     18  N   UNL     1       3.732   2.548  18.813  0.00  0.00    +0.000 NA
ENDBRANCH  12  13
ENDBRANCH  10  12
ENDBRANCH   2  10
TORSDOF 4
ENDMDL
MODEL 2
REMARK VINA RESULT:      -7.3      0.953      1.120
REMARK  Name = 
REMARK  4 active torsions:
REMARK  status: ('A' for Active; 'I' for Inactive)
REMARK    1  A    between atoms: S_2  and  N_4
REMARK    2  A    between atoms: S_2  and  C_12
REMARK    3  A    between atoms: N_4  and  C_5
REMARK    4  A    between atoms: C_5  and  C_6
REMARK                            x       y       z     vdW  Elec       q    Type
REMARK                         _______ _______ _______ _____ _____    ______ ____
ROOT
ATOM      1  O   UNL     1       6.134   6.075  16.685  0.00  0.00    +0.000 OA
ATOM      2  S   UNL     1       6.702   4.773  16.411  0.00  0.00    +0.000 S 
ATOM      3  O   UNL     1       7.963   4.357  16.994  0.00  0.00    +0.000 OA
ENDROOT
BRANCH   2   4
ATOM      4  C   UNL     1       6.869   4.664  14.634  0.00  0.00    +0.000 A 
ATOM      5  C   UNL     1       6.093   3.750  13.937  0.00  0.00    +0.000 A 
ATOM      6  C   UNL     1       6.298   3.654  12.565  0.00  0.00    +0.000 A 
ATOM      7  C   UNL     1       7.256   4.465  11.960  0.00  0.00    +0.000 A 
ATOM      8  C   UNL     1       7.976   5.354  12.751  0.00  0.00    +0.000 A 
ATOM      9  N   UNL     1       7.812   5.480  14.087  0.00  0.00    +0.000 NA
ENDBRANCH   2   4
BRANCH   2  10
ATOM     10  N   UNL     1       5.522   3.620  16.807  0.00  0.00    +0.000 NA
ATOM     11  H   UNL     1       5.731   3.232  17.736  0.00  0.00    +0.000 HD
BRANCH  10  12
ATOM     12  C   UNL     1       4.134   4.135  16.825  0.00  0.00    +0.000 C 
BRANCH  12  13
ATOM     13  C   UNL     1       3.340   3.587  17.997  0.00  0.00    +0.000 A 
ATOM     14  C   UNL     1       1.945   3.625  17.982  0.00  0.00    +0.000 A 
ATOM     15  C   UNL     1       1.242   3.137  19.080  0.00  0.00    +0.000 A 
ATOM     16  C   UNL     1       1.945   2.619  20.159  0.00  0.00    +0.000 A 
ATOM     17  C   UNL     1       3.329   2.610  20.095  0.00  0.00    +0.000 A 
ATOM     18  N   UNL     1       4.041   3.082  19.046  0.00  0.00    +0.000 NA
ENDBRANCH  12  13
ENDBRANCH  10  12
ENDBRANCH   2  10
TORSDOF 4
ENDMDL
MODEL 3
REMARK VINA RESULT:      -7.2      0.973      1.158
REMARK  Name = 
REMARK  4 active torsions:
REMARK  status: ('A' for Active; 'I' for Inactive)
REMARK    1  A    between atoms: S_2  and  N_4
REMARK    2  A    between atoms: S_2  and  C_12
REMARK    3  A    between atoms: N_4  and  C_5
REMARK    4  A    between atoms: C_5  and  C_6
REMARK                            x       y       z     vdW  Elec       q    Type
REMARK                         _______ _______ _______ _____ _____    ______ ____
ROOT
ATOM      1  O   UNL     1       6.498   6.259  16.815  0.00  0.00    +0.000 OA
ATOM      2  S   UNL     1       6.837   4.874  16.565  0.00  0.00    +0.000 S 
ATOM      3  O   UNL     1       8.044   4.279  17.104  0.00  0.00    +0.000 OA
ENDROOT
BRANCH   2   4
ATOM      4  C   UNL     1       6.890   4.683  14.788  0.00  0.00    +0.000 A 
ATOM      5  C   UNL     1       6.022   3.790  14.178  0.00  0.00    +0.000 A 
ATOM      6  C   UNL     1       6.139   3.627  12.802  0.00  0.00    +0.000 A 
ATOM      7  C   UNL     1       7.103   4.356  12.108  0.00  0.00    +0.000 A 
ATOM      8  C   UNL     1       7.919   5.231  12.816  0.00  0.00    +0.000 A 
ATOM      9  N   UNL     1       7.843   5.420  14.152  0.00  0.00    +0.000 NA
ENDBRANCH   2   4
BRANCH   2  10
ATOM     10  N   UNL     1       5.510   3.939  17.062  0.00  0.00    +0.000 NA
ATOM     11  H   UNL     1       5.697   2.951  16.845  0.00  0.00    +0.000 HD
BRANCH  10  12
ATOM     12  C   UNL     1       5.185   4.041  18.502  0.00  0.00    +0.000 C 
BRANCH  12  13
ATOM     13  C   UNL     1       3.737   3.681  18.784  0.00  0.00    +0.000 A 
ATOM     14  C   UNL     1       3.125   2.633  18.095  0.00  0.00    +0.000 A 
ATOM     15  C   UNL     1       1.790   2.339  18.357  0.00  0.00    +0.000 A 
ATOM     16  C   UNL     1       1.103   3.089  19.301  0.00  0.00    +0.000 A 
ATOM     17  C   UNL     1       1.783   4.108  19.948  0.00  0.00    +0.000 A 
ATOM     18  N   UNL     1       3.077   4.423  19.711  0.00  0.00    +0.000 NA
ENDBRANCH  12  13
ENDBRANCH  10  12
ENDBRANCH   2  10
TORSDOF 4
ENDMDL
MODEL 4
REMARK VINA RESULT:      -7.2      1.335      5.966
REMARK  Name = 
REMARK  4 active torsions:
REMARK  status: ('A' for Active; 'I' for Inactive)
REMARK    1  A    between atoms: S_2  and  N_4
REMARK    2  A    between atoms: S_2  and  C_12
REMARK    3  A    between atoms: N_4  and  C_5
REMARK    4  A    between atoms: C_5  and  C_6
REMARK                            x       y       z     vdW  Elec       q    Type
REMARK                         _______ _______ _______ _____ _____    ______ ____
ROOT
ATOM      1  O   UNL     1       5.914   4.821  19.636  0.00  0.00    +0.000 OA
ATOM      2  S   UNL     1       5.336   5.018  18.324  0.00  0.00    +0.000 S 
ATOM      3  O   UNL     1       5.031   6.342  17.820  0.00  0.00    +0.000 OA
ENDROOT
BRANCH   2   4
ATOM      4  C   UNL     1       3.821   4.069  18.296  0.00  0.00    +0.000 A 
ATOM      5  C   UNL     1       2.646   4.684  17.892  0.00  0.00    +0.000 A 
ATOM      6  C   UNL     1       1.480   3.929  17.944  0.00  0.00    +0.000 A 
ATOM      7  C   UNL     1       1.541   2.609  18.390  0.00  0.00    +0.000 A 
ATOM      8  C   UNL     1       2.773   2.087  18.766  0.00  0.00    +0.000 A 
ATOM      9  N   UNL     1       3.931   2.784  18.734  0.00  0.00    +0.000 NA
ENDBRANCH   2   4
BRANCH   2  10
ATOM     10  N   UNL     1       6.354   4.242  17.209  0.00  0.00    +0.000 NA
ATOM     11  H   UNL     1       5.785   3.645  16.595  0.00  0.00    +0.000 HD
BRANCH  10  12
ATOM     12  C   UNL     1       7.151   5.154  16.358  0.00  0.00    +0.000 C 
BRANCH  12  13
ATOM     13  C   UNL     1       7.021   4.814  14.884  0.00  0.00    +0.000 A 
ATOM     14  C   UNL     1       6.054   3.905  14.454  0.00  0.00    +0.000 A 
ATOM     15  C   UNL     1       5.972   3.593  13.100  0.00  0.00    +0.000 A 
ATOM     16  C   UNL     1       6.850   4.200  12.210  0.00  0.00    +0.000 A 
ATOM     17  C   UNL     1       7.777   5.097  12.715  0.00  0.00    +0.000 A 
ATOM     18  N   UNL     1       7.886   5.415  14.025  0.00  0.00    +0.000 NA
ENDBRANCH  12  13
ENDBRANCH  10  12
ENDBRANCH   2  10
TORSDOF 4
ENDMDL
MODEL 5
REMARK VINA RESULT:      -7.1      1.470      1.607
REMARK  Name = 
REMARK  4 active torsions:
REMARK  status: ('A' for Active; 'I' for Inactive)
REMARK    1  A    between atoms: S_2  and  N_4
REMARK    2  A    between atoms: S_2  and  C_12
REMARK    3  A    between atoms: N_4  and  C_5
REMARK    4  A    between atoms: C_5  and  C_6
REMARK                            x       y       z     vdW  Elec       q    Type
REMARK                         _______ _______ _______ _____ _____    ______ ____
ROOT
ATOM      1  O   UNL     1       6.771   6.353  18.075  0.00  0.00    +0.000 OA
ATOM      2  S   UNL     1       6.970   4.938  17.846  0.00  0.00    +0.000 S 
ATOM      3  O   UNL     1       8.218   4.282  18.187  0.00  0.00    +0.000 OA
ENDROOT
BRANCH   2   4
ATOM      4  C   UNL     1       6.680   4.667  16.102  0.00  0.00    +0.000 A 
ATOM      5  C   UNL     1       5.632   3.848  15.711  0.00  0.00    +0.000 A 
ATOM      6  C   UNL     1       5.479   3.614  14.349  0.00  0.00    +0.000 A 
ATOM      7  C   UNL     1       6.368   4.204  13.452  0.00  0.00    +0.000 A 
ATOM      8  C   UNL     1       7.381   5.015  13.950  0.00  0.00    +0.000 A 
ATOM      9  N   UNL     1       7.569   5.269  15.264  0.00  0.00    +0.000 NA
ENDBRANCH   2   4
BRANCH   2  10
ATOM     10  N   UNL     1       5.704   4.123  18.628  0.00  0.00    +0.000 NA
ATOM     11  H   UNL     1       6.087   3.591  19.421  0.00  0.00    +0.000 HD
BRANCH  10  12
ATOM     12  C   UNL     1       4.625   4.998  19.138  0.00  0.00    +0.000 C 
BRANCH  12  13
ATOM     13  C   UNL     1       3.308   4.256  19.273  0.00  0.00    +0.000 A 
ATOM     14  C   UNL     1       2.533   4.401  20.425  0.00  0.00    +0.000 A 
ATOM     15  C   UNL     1       1.340   3.691  20.533  0.00  0.00    +0.000 A 
ATOM     16  C   UNL     1       0.948   2.863  19.490  0.00  0.00    +0.000 A 
ATOM     17  C   UNL     1       1.768   2.779  18.376  0.00  0.00    +0.000 A 
ATOM     18  N   UNL     1       2.935   3.450  18.244  0.00  0.00    +0.000 NA
ENDBRANCH  12  13
ENDBRANCH  10  12
ENDBRANCH   2  10
TORSDOF 4
ENDMDL
MODEL 6
REMARK VINA RESULT:      -7.1      0.944      1.074
REMARK  Name = 
REMARK  4 active torsions:
REMARK  status: ('A' for Active; 'I' for Inactive)
REMARK    1  A    between atoms: S_2  and  N_4
REMARK    2  A    between atoms: S_2  and  C_12
REMARK    3  A    between atoms: N_4  and  C_5
REMARK    4  A    between atoms: C_5  and  C_6
REMARK                            x       y       z     vdW  Elec       q    Type
REMARK                         _______ _______ _______ _____ _____    ______ ____
ROOT
ATOM      1  O   UNL     1       4.965   6.152  16.180  0.00  0.00    +0.000 OA
ATOM      2  S   UNL     1       6.286   5.560  16.172  0.00  0.00    +0.000 S 
ATOM      3  O   UNL     1       7.459   6.318  16.561  0.00  0.00    +0.000 OA
ENDROOT
BRANCH   2   4
ATOM      4  C   UNL     1       6.558   4.966  14.507  0.00  0.00    +0.000 A 
ATOM      5  C   UNL     1       5.713   3.995  13.990  0.00  0.00    +0.000 A 
ATOM      6  C   UNL     1       5.997   3.516  12.715  0.00  0.00    +0.000 A 
ATOM      7  C   UNL     1       7.096   4.025  12.025  0.00  0.00    +0.000 A 
ATOM      8  C   UNL     1       7.874   5.003  12.633  0.00  0.00    +0.000 A 
ATOM      9  N   UNL     1       7.639   5.496  13.869  0.00  0.00    +0.000 NA
ENDBRANCH   2   4
BRANCH   2  10
ATOM     10  N   UNL     1       6.211   4.158  17.125  0.00  0.00    +0.000 NA
ATOM     11  H   UNL     1       7.167   3.827  17.309  0.00  0.00    +0.000 HD
BRANCH  10  12
ATOM     12  C   UNL     1       5.525   4.330  18.425  0.00  0.00    +0.000 C 
BRANCH  12  13
ATOM     13  C   UNL     1       4.075   3.883  18.366  0.00  0.00    +0.000 A 
ATOM     14  C   UNL     1       3.062   4.713  18.847  0.00  0.00    +0.000 A 
ATOM     15  C   UNL     1       1.744   4.270  18.801  0.00  0.00    +0.000 A 
ATOM     16  C   UNL     1       1.468   3.016  18.271  0.00  0.00    +0.000 A 
ATOM     17  C   UNL     1       2.528   2.255  17.806  0.00  0.00    +0.000 A 
ATOM     18  N   UNL     1       3.820   2.655  17.843  0.00  0.00    +0.000 NA
ENDBRANCH  12  13
ENDBRANCH  10  12
ENDBRANCH   2  10
TORSDOF 4
ENDMDL
MODEL 7
REMARK VINA RESULT:      -7.0      1.362      1.396
REMARK  Name = 
REMARK  4 active torsions:
REMARK  status: ('A' for Active; 'I' for Inactive)
REMARK    1  A    between atoms: S_2  and  N_4
REMARK    2  A    between atoms: S_2  and  C_12
REMARK    3  A    between atoms: N_4  and  C_5
REMARK    4  A    between atoms: C_5  and  C_6
REMARK                            x       y       z     vdW  Elec       q    Type
REMARK                         _______ _______ _______ _____ _____    ______ ____
ROOT
ATOM      1  O   UNL     1       6.473   6.626  16.586  0.00  0.00    +0.000 OA
ATOM      2  S   UNL     1       6.725   5.204  16.490  0.00  0.00    +0.000 S 
ATOM      3  O   UNL     1       7.877   4.593  17.124  0.00  0.00    +0.000 OA
ENDROOT
BRANCH   2   4
ATOM      4  C   UNL     1       6.811   4.828  14.743  0.00  0.00    +0.000 A 
ATOM      5  C   UNL     1       5.949   3.879  14.214  0.00  0.00    +0.000 A 
ATOM      6  C   UNL     1       6.090   3.573  12.865  0.00  0.00    +0.000 A 
ATOM      7  C   UNL     1       7.072   4.220  12.117  0.00  0.00    +0.000 A 
ATOM      8  C   UNL     1       7.879   5.162  12.746  0.00  0.00    +0.000 A 
ATOM      9  N   UNL     1       7.780   5.490  14.053  0.00  0.00    +0.000 NA
ENDBRANCH   2   4
BRANCH   2  10
ATOM     10  N   UNL     1       5.328   4.411  17.036  0.00  0.00    +0.000 NA
ATOM     11  H   UNL     1       5.554   3.886  17.891  0.00  0.00    +0.000 HD
BRANCH  10  12
ATOM     12  C   UNL     1       4.185   5.304  17.331  0.00  0.00    +0.000 C 
BRANCH  12  13
ATOM     13  C   UNL     1       3.461   4.899  18.603  0.00  0.00    +0.000 A 
ATOM     14  C   UNL     1       2.630   5.807  19.259  0.00  0.00    +0.000 A 
ATOM     15  C   UNL     1       1.997   5.417  20.436  0.00  0.00    +0.000 A 
ATOM     16  C   UNL     1       2.201   4.133  20.923  0.00  0.00    +0.000 A 
ATOM     17  C   UNL     1       3.035   3.287  20.208  0.00  0.00    +0.000 A 
ATOM     18  N   UNL     1       3.670   3.638  19.067  0.00  0.00    +0.000 NA
ENDBRANCH  12  13
ENDBRANCH  10  12
ENDBRANCH   2  10
TORSDOF 4
ENDMDL
MODEL 8
REMARK VINA RESULT:      -7.0      0.957      1.335
REMARK  Name = 
REMARK  4 active torsions:
REMARK  status: ('A' for Active; 'I' for Inactive)
REMARK    1  A    between atoms: S_2  and  N_4
REMARK    2  A    between atoms: S_2  and  C_12
REMARK    3  A    between atoms: N_4  and  C_5
REMARK    4  A    between atoms: C_5  and  C_6
REMARK                            x       y       z     vdW  Elec       q    Type
REMARK                         _______ _______ _______ _____ _____    ______ ____
ROOT
ATOM      1  O   UNL     1       7.780   6.916  16.641  0.00  0.00    +0.000 OA
ATOM      2  S   UNL     1       7.090   5.648  16.745  0.00  0.00    +0.000 S 
ATOM      3  O   UNL     1       7.622   4.557  17.538  0.00  0.00    +0.000 OA
ENDROOT
BRANCH   2   4
ATOM      4  C   UNL     1       6.889   5.048  15.072  0.00  0.00    +0.000 A 
ATOM      5  C   UNL     1       5.871   4.148  14.795  0.00  0.00    +0.000 A 
ATOM      6  C   UNL     1       5.788   3.660  13.496  0.00  0.00    +0.000 A 
ATOM      7  C   UNL     1       6.714   4.089  12.545  0.00  0.00    +0.000 A 
ATOM      8  C   UNL     1       7.691   5.001  12.928  0.00  0.00    +0.000 A 
ATOM      9  N   UNL     1       7.811   5.500  14.178  0.00  0.00    +0.000 NA
ENDBRANCH   2   4
BRANCH   2  10
ATOM     10  N   UNL     1       5.513   5.980  17.279  0.00  0.00    +0.000 NA
ATOM     11  H   UNL     1       4.843   5.645  16.574  0.00  0.00    +0.000 HD
BRANCH  10  12
ATOM     12  C   UNL     1       5.158   5.369  18.580  0.00  0.00    +0.000 C 
BRANCH  12  13
ATOM     13  C   UNL     1       4.211   4.194  18.416  0.00  0.00    +0.000 A 
ATOM     14  C   UNL     1       4.327   3.075  19.242  0.00  0.00    +0.000 A 
ATOM     15  C   UNL     1       3.460   2.002  19.055  0.00  0.00    +0.000 A 
ATOM     16  C   UNL     1       2.498   2.074  18.057  0.00  0.00    +0.000 A 
ATOM     17  C   UNL     1       2.441   3.223  17.283  0.00  0.00    +0.000 A 
ATOM     18  N   UNL     1       3.273   4.278  17.436  0.00  0.00    +0.000 NA
ENDBRANCH  12  13
ENDBRANCH  10  12
ENDBRANCH   2  10
TORSDOF 4
ENDMDL
MODEL 9
REMARK VINA RESULT:      -6.9      3.140      3.845
REMARK  Name = 
REMARK  4 active torsions:
REMARK  status: ('A' for Active; 'I' for Inactive)
REMARK    1  A    between atoms: S_2  and  N_4
REMARK    2  A    between atoms: S_2  and  C_12
REMARK    3  A    between atoms: N_4  and  C_5
REMARK    4  A    between atoms: C_5  and  C_6
REMARK                            x       y       z     vdW  Elec       q    Type
REMARK                         _______ _______ _______ _____ _____    ______ ____
ROOT
ATOM      1  O   UNL     1       5.101   4.648  15.551  0.00  0.00    +0.000 OA
ATOM      2  S   UNL     1       4.826   4.927  16.945  0.00  0.00    +0.000 S 
ATOM      3  O   UNL     1       3.620   5.619  17.356  0.00  0.00    +0.000 OA
ENDROOT
BRANCH   2   4
ATOM      4  C   UNL     1       6.220   5.869  17.551  0.00  0.00    +0.000 A 
ATOM      5  C   UNL     1       6.929   5.397  18.645  0.00  0.00    +0.000 A 
ATOM      6  C   UNL     1       7.967   6.190  19.122  0.00  0.00    +0.000 A 
ATOM      7  C   UNL     1       8.245   7.402  18.492  0.00  0.00    +0.000 A 
ATOM      8  C   UNL     1       7.475   7.778  17.396  0.00  0.00    +0.000 A 
ATOM      9  N   UNL     1       6.457   7.041  16.900  0.00  0.00    +0.000 NA
ENDBRANCH   2   4
BRANCH   2  10
ATOM     10  N   UNL     1       4.907   3.449  17.775  0.00  0.00    +0.000 NA
ATOM     11  H   UNL     1       5.105   3.633  18.768  0.00  0.00    +0.000 HD
BRANCH  10  12
ATOM     12  C   UNL     1       3.680   2.626  17.696  0.00  0.00    +0.000 C 
BRANCH  12  13
ATOM     13  C   UNL     1       2.842   2.731  18.957  0.00  0.00    +0.000 A 
ATOM     14  C   UNL     1       1.470   2.969  18.873  0.00  0.00    +0.000 A 
ATOM     15  C   UNL     1       0.729   3.084  20.047  0.00  0.00    +0.000 A 
ATOM     16  C   UNL     1       1.372   2.951  21.270  0.00  0.00    +0.000 A 
ATOM     17  C   UNL     1       2.736   2.707  21.269  0.00  0.00    +0.000 A 
ATOM     18  N   UNL     1       3.484   2.597  20.148  0.00  0.00    +0.000 NA
ENDBRANCH  12  13
ENDBRANCH  10  12
ENDBRANCH   2  10
TORSDOF 4
ENDMDL
