MODEL 1
REMARK VINA RESULT:      -7.5      0.000      0.000
REMARK  Name = 
REMARK  8 active torsions:
REMARK  status: ('A' for Active; 'I' for Inactive)
REMARK    1  A    between atoms: N_5  and  C_6
REMARK    2  A    between atoms: C_8  and  C_9
REMARK    3  A    between atoms: C_9  and  O_10
REMARK    4  A    between atoms: O_10  and  P_11
REMARK    5  A    between atoms: P_11  and  O_14
REMARK    6  A    between atoms: O_14  and  P_15
REMARK    7  A    between atoms: C_19  and  O_20
REMARK    8  A    between atoms: C_21  and  O_22
REMARK                            x       y       z     vdW  Elec       q    Type
REMARK                         _______ _______ _______ _____ _____    ______ ____
ROOT
ATOM      1  C   UNL     1       2.769   5.421  19.961  0.00  0.00    +0.000 C 
ATOM      2  O   UNL     1       4.186   5.250  19.908  0.00  0.00    +0.000 OA
ATOM      3  C   UNL     1       4.474   3.894  19.457  0.00  0.00    +0.000 C 
ATOM      4  C   UNL     1       3.129   3.162  19.467  0.00  0.00    +0.000 C 
ATOM      5  C   UNL     1       2.151   4.279  19.144  0.00  0.00    +0.000 C 
ENDROOT
BRANCH   1  10
ATOM      6  O   UNL     1       0.625   9.870  17.960  0.00  0.00    +0.000 OA
ATOM      7  C   UNL     1       1.418   9.085  18.458  0.00  0.00    +0.000 A 
ATOM      8  C   UNL     1       2.369   8.292  17.657  0.00  0.00    +0.000 A 
ATOM      9  C   UNL     1       2.825   7.161  18.218  0.00  0.00    +0.000 A 
ATOM     10  N   UNL     1       2.413   6.755  19.475  0.00  0.00    +0.000 N 
ATOM     11  C   UNL     1       1.675   7.581  20.296  0.00  0.00    +0.000 A 
ATOM     12  O   UNL     1       1.159   7.301  21.369  0.00  0.00    +0.000 OA
ATOM     13  N   UNL     1       1.452   8.841  19.793  0.00  0.00    +0.000 N 
ATOM     14  H   UNL     1       0.839   9.365  20.392  0.00  0.00    +0.000 HD
ENDBRANCH   1  10
BRANCH   4  15
ATOM     15  O   UNL     1       2.770   2.692  20.787  0.00  0.00    +0.000 OA
ATOM     16  H   UNL     1       3.236   1.845  20.926  0.00  0.00    +0.000 HD
ENDBRANCH   4  15
BRANCH   5  17
ATOM     17  O   UNL     1       0.810   3.970  19.537  0.00  0.00    +0.000 OA
ATOM     18  H   UNL     1       0.798   4.164  20.502  0.00  0.00    +0.000 HD
ENDBRANCH   5  17
BRANCH   3  19
ATOM     19  C   UNL     1       5.125   3.911  18.063  0.00  0.00    +0.000 C 
BRANCH  19  20
ATOM     20  O   UNL     1       5.684   5.189  17.881  0.00  0.00    +0.000 OA
BRANCH  20  21
ATOM     21  P   UNL     1       7.300   5.389  17.685  0.00  0.00    +0.000 P 
ATOM     22  O   UNL     1       7.519   6.916  17.671  0.00  0.00    +0.000 OA
ATOM     23  O   UNL     1       7.899   4.650  18.847  0.00  0.00    +0.000 OA
BRANCH  21  24
ATOM     24  O   UNL     1       7.422   4.793  16.222  0.00  0.00    +0.000 OA
BRANCH  24  25
ATOM     25  P   UNL     1       6.794   5.023  14.738  0.00  0.00    +0.000 P 
ATOM     26  O   UNL     1       6.298   3.627  14.348  0.00  0.00    +0.000 OA
ATOM     27  O   UNL     1       5.660   6.025  14.879  0.00  0.00    +0.000 OA
ATOM     28  O   UNL     1       7.966   5.485  13.870  0.00  0.00    +0.000 OA
ENDBRANCH  24  25
ENDBRANCH  21  24
ENDBRANCH  20  21
ENDBRANCH  19  20
ENDBRANCH   3  19
TORSDOF 8
ENDMDL
MODEL 2
REMARK VINA RESULT:      -7.5      1.509      2.787
REMARK  Name = 
REMARK  8 active torsions:
REMARK  status: ('A' for Active; 'I' for Inactive)
REMARK    1  A    between atoms: N_5  and  C_6
REMARK    2  A    between atoms: C_8  and  C_9
REMARK    3  A    between atoms: C_9  and  O_10
REMARK    4  A    between atoms: O_10  and  P_11
REMARK    5  A    between atoms: P_11  and  O_14
REMARK    6  A    between atoms: O_14  and  P_15
REMARK    7  A    between atoms: C_19  and  O_20
REMARK    8  A    between atoms: C_21  and  O_22
REMARK                            x       y       z     vdW  Elec       q    Type
REMARK                         _______ _______ _______ _____ _____    ______ ____
ROOT
ATOM      1  C   UNL     1       2.856   4.274  18.814  0.00  0.00    +0.000 C 
ATOM      2  O   UNL     1       4.215   4.086  18.420  0.00  0.00    +0.000 OA
ATOM      3  C   UNL     1       4.256   3.109  17.339  0.00  0.00    +0.000 C 
ATOM      4  C   UNL     1       2.842   2.526  17.257  0.00  0.00    +0.000 C 
ATOM      5  C   UNL     1       1.982   3.703  17.688  0.00  0.00    +0.000 C 
ENDROOT
BRANCH   1  10
ATOM      6  O   UNL     1       1.049   9.227  19.582  0.00  0.00    +0.000 OA
ATOM      7  C   UNL     1       1.795   8.264  19.495  0.00  0.00    +0.000 A 
ATOM      8  C   UNL     1       2.515   7.918  18.255  0.00  0.00    +0.000 A 
ATOM      9  C   UNL     1       2.894   6.638  18.122  0.00  0.00    +0.000 A 
ATOM     10  N   UNL     1       2.611   5.690  19.090  0.00  0.00    +0.000 N 
ATOM     11  C   UNL     1       2.106   6.044  20.323  0.00  0.00    +0.000 A 
ATOM     12  O   UNL     1       1.712   5.301  21.210  0.00  0.00    +0.000 OA
ATOM     13  N   UNL     1       1.980   7.399  20.525  0.00  0.00    +0.000 N 
ATOM     14  H   UNL     1       1.529   7.592  21.401  0.00  0.00    +0.000 HD
ENDBRANCH   1  10
BRANCH   4  15
ATOM     15  O   UNL     1       2.618   1.491  18.241  0.00  0.00    +0.000 OA
ATOM     16  H   UNL     1       1.665   1.280  18.223  0.00  0.00    +0.000 HD
ENDBRANCH   4  15
BRANCH   5  17
ATOM     17  O   UNL     1       0.683   3.302  18.135  0.00  0.00    +0.000 OA
ATOM     18  H   UNL     1       0.649   3.614  19.068  0.00  0.00    +0.000 HD
ENDBRANCH   5  17
BRANCH   3  19
ATOM     19  C   UNL     1       4.697   3.772  16.023  0.00  0.00    +0.000 C 
BRANCH  19  20
ATOM     20  O   UNL     1       6.098   3.887  16.064  0.00  0.00    +0.000 OA
BRANCH  20  21
ATOM     21  P   UNL     1       6.834   5.351  15.978  0.00  0.00    +0.000 P 
ATOM     22  O   UNL     1       7.759   5.266  14.746  0.00  0.00    +0.000 OA
ATOM     23  O   UNL     1       5.693   6.323  15.878  0.00  0.00    +0.000 OA
BRANCH  21  24
ATOM     24  O   UNL     1       7.675   5.255  17.318  0.00  0.00    +0.000 OA
BRANCH  24  25
ATOM     25  P   UNL     1       7.696   5.900  18.811  0.00  0.00    +0.000 P 
ATOM     26  O   UNL     1       6.218   5.895  19.215  0.00  0.00    +0.000 OA
ATOM     27  O   UNL     1       8.540   4.987  19.685  0.00  0.00    +0.000 OA
ATOM     28  O   UNL     1       8.242   7.318  18.633  0.00  0.00    +0.000 OA
ENDBRANCH  24  25
ENDBRANCH  21  24
ENDBRANCH  20  21
ENDBRANCH  19  20
ENDBRANCH   3  19
TORSDOF 8
ENDMDL
MODEL 3
REMARK VINA RESULT:      -7.3      1.042      2.442
REMARK  Name = 
REMARK  8 active torsions:
REMARK  status: ('A' for Active; 'I' for Inactive)
REMARK    1  A    between atoms: N_5  and  C_6
REMARK    2  A    between atoms: C_8  and  C_9
REMARK    3  A    between atoms: C_9  and  O_10
REMARK    4  A    between atoms: O_10  and  P_11
REMARK    5  A    between atoms: P_11  and  O_14
REMARK    6  A    between atoms: O_14  and  P_15
REMARK    7  A    between atoms: C_19  and  O_20
REMARK    8  A    between atoms: C_21  and  O_22
REMARK                            x       y       z     vdW  Elec       q    Type
REMARK                         _______ _______ _______ _____ _____    ______ ____
ROOT
ATOM      1  C   UNL     1       2.691   5.507  19.964  0.00  0.00    +0.000 C 
ATOM      2  O   UNL     1       3.953   5.138  19.408  0.00  0.00    +0.000 OA
ATOM      3  C   UNL     1       3.889   3.743  18.990  0.00  0.00    +0.000 C 
ATOM      4  C   UNL     1       2.569   3.207  19.551  0.00  0.00    +0.000 C 
ATOM      5  C   UNL     1       1.681   4.439  19.523  0.00  0.00    +0.000 C 
ENDROOT
BRANCH   1  10
ATOM      6  O   UNL     1       0.566  10.051  18.168  0.00  0.00    +0.000 OA
ATOM      7  C   UNL     1       1.355   9.241  18.631  0.00  0.00    +0.000 A 
ATOM      8  C   UNL     1       2.307   8.485  17.797  0.00  0.00    +0.000 A 
ATOM      9  C   UNL     1       2.758   7.327  18.305  0.00  0.00    +0.000 A 
ATOM     10  N   UNL     1       2.340   6.863  19.541  0.00  0.00    +0.000 N 
ATOM     11  C   UNL     1       1.600   7.651  20.397  0.00  0.00    +0.000 A 
ATOM     12  O   UNL     1       1.079   7.321  21.453  0.00  0.00    +0.000 OA
ATOM     13  N   UNL     1       1.382   8.934  19.953  0.00  0.00    +0.000 N 
ATOM     14  H   UNL     1       0.768   9.431  20.574  0.00  0.00    +0.000 HD
ENDBRANCH   1  10
BRANCH   4  15
ATOM     15  O   UNL     1       2.677   2.829  20.942  0.00  0.00    +0.000 OA
ATOM     16  H   UNL     1       3.238   3.499  21.379  0.00  0.00    +0.000 HD
ENDBRANCH   4  15
BRANCH   5  17
ATOM     17  O   UNL     1       0.559   4.331  20.404  0.00  0.00    +0.000 OA
ATOM     18  H   UNL     1      -0.031   5.068  20.125  0.00  0.00    +0.000 HD
ENDBRANCH   5  17
BRANCH   3  19
ATOM     19  C   UNL     1       3.968   3.631  17.458  0.00  0.00    +0.000 C 
BRANCH  19  20
ATOM     20  O   UNL     1       4.221   4.921  16.958  0.00  0.00    +0.000 OA
BRANCH  20  21
ATOM     21  P   UNL     1       5.671   5.308  16.298  0.00  0.00    +0.000 P 
ATOM     22  O   UNL     1       6.332   3.956  15.956  0.00  0.00    +0.000 OA
ATOM     23  O   UNL     1       5.315   6.180  15.128  0.00  0.00    +0.000 OA
BRANCH  21  24
ATOM     24  O   UNL     1       6.338   5.946  17.586  0.00  0.00    +0.000 OA
BRANCH  24  25
ATOM     25  P   UNL     1       7.535   5.631  18.642  0.00  0.00    +0.000 P 
ATOM     26  O   UNL     1       8.332   6.939  18.669  0.00  0.00    +0.000 OA
ATOM     27  O   UNL     1       6.884   5.319  19.980  0.00  0.00    +0.000 OA
ATOM     28  O   UNL     1       8.330   4.480  18.022  0.00  0.00    +0.000 OA
ENDBRANCH  24  25
ENDBRANCH  21  24
ENDBRANCH  20  21
ENDBRANCH  19  20
ENDBRANCH   3  19
TORSDOF 8
ENDMDL
MODEL 4
REMARK VINA RESULT:      -7.2      0.886      1.266
REMARK  Name = 
REMARK  8 active torsions:
REMARK  status: ('A' for Active; 'I' for Inactive)
REMARK    1  A    between atoms: N_5  and  C_6
REMARK    2  A    between atoms: C_8  and  C_9
REMARK    3  A    between atoms: C_9  and  O_10
REMARK    4  A    between atoms: O_10  and  P_11
REMARK    5  A    between atoms: P_11  and  O_14
REMARK    6  A    between atoms: O_14  and  P_15
REMARK    7  A    between atoms: C_19  and  O_20
REMARK    8  A    between atoms: C_21  and  O_22
REMARK                            x       y       z     vdW  Elec       q    Type
REMARK                         _______ _______ _______ _____ _____    ______ ____
ROOT
ATOM      1  C   UNL     1       2.661   5.232  19.307  0.00  0.00    +0.000 C 
ATOM      2  O   UNL     1       3.974   5.035  19.832  0.00  0.00    +0.000 OA
ATOM      3  C   UNL     1       4.560   3.862  19.194  0.00  0.00    +0.000 C 
ATOM      4  C   UNL     1       3.419   3.208  18.410  0.00  0.00    +0.000 C 
ATOM      5  C   UNL     1       2.567   4.404  18.018  0.00  0.00    +0.000 C 
ENDROOT
BRANCH   1  10
ATOM      6  O   UNL     1       0.886  10.157  18.312  0.00  0.00    +0.000 OA
ATOM      7  C   UNL     1       1.615   9.224  18.613  0.00  0.00    +0.000 A 
ATOM      8  C   UNL     1       2.472   8.530  17.634  0.00  0.00    +0.000 A 
ATOM      9  C   UNL     1       2.836   7.275  17.942  0.00  0.00    +0.000 A 
ATOM     10  N   UNL     1       2.416   6.661  19.109  0.00  0.00    +0.000 N 
ATOM     11  C   UNL     1       1.774   7.365  20.105  0.00  0.00    +0.000 A 
ATOM     12  O   UNL     1       1.258   6.920  21.121  0.00  0.00    +0.000 OA
ATOM     13  N   UNL     1       1.655   8.715  19.871  0.00  0.00    +0.000 N 
ATOM     14  H   UNL     1       1.105   9.158  20.585  0.00  0.00    +0.000 HD
ENDBRANCH   1  10
BRANCH   4  15
ATOM     15  O   UNL     1       2.579   2.383  19.250  0.00  0.00    +0.000 OA
ATOM     16  H   UNL     1       3.080   2.204  20.069  0.00  0.00    +0.000 HD
ENDBRANCH   4  15
BRANCH   5  17
ATOM     17  O   UNL     1       1.225   4.039  17.683  0.00  0.00    +0.000 OA
ATOM     18  H   UNL     1       1.119   4.360  16.758  0.00  0.00    +0.000 HD
ENDBRANCH   5  17
BRANCH   3  19
ATOM     19  C   UNL     1       5.738   4.267  18.292  0.00  0.00    +0.000 C 
BRANCH  19  20
ATOM     20  O   UNL     1       6.049   5.607  18.588  0.00  0.00    +0.000 OA
BRANCH  20  21
ATOM     21  P   UNL     1       7.151   6.439  17.704  0.00  0.00    +0.000 P 
ATOM     22  O   UNL     1       6.402   7.691  17.202  0.00  0.00    +0.000 OA
ATOM     23  O   UNL     1       8.274   6.688  18.670  0.00  0.00    +0.000 OA
BRANCH  21  24
ATOM     24  O   UNL     1       7.335   5.389  16.532  0.00  0.00    +0.000 OA
BRANCH  24  25
ATOM     25  P   UNL     1       6.780   5.106  15.029  0.00  0.00    +0.000 P 
ATOM     26  O   UNL     1       7.938   5.566  14.136  0.00  0.00    +0.000 OA
ATOM     27  O   UNL     1       6.519   3.613  14.918  0.00  0.00    +0.000 OA
ATOM     28  O   UNL     1       5.545   5.996  14.879  0.00  0.00    +0.000 OA
ENDBRANCH  24  25
ENDBRANCH  21  24
ENDBRANCH  20  21
ENDBRANCH  19  20
ENDBRANCH   3  19
TORSDOF 8
ENDMDL
MODEL 5
REMARK VINA RESULT:      -7.0      1.069      1.399
REMARK  Name = 
REMARK  8 active torsions:
REMARK  status: ('A' for Active; 'I' for Inactive)
REMARK    1  A    between atoms: N_5  and  C_6
REMARK    2  A    between atoms: C_8  and  C_9
REMARK    3  A    between atoms: C_9  and  O_10
REMARK    4  A    between atoms: O_10  and  P_11
REMARK    5  A    between atoms: P_11  and  O_14
REMARK    6  A    between atoms: O_14  and  P_15
REMARK    7  A    between atoms: C_19  and  O_20
REMARK    8  A    between atoms: C_21  and  O_22
REMARK                            x       y       z     vdW  Elec       q    Type
REMARK                         _______ _______ _______ _____ _____    ______ ____
ROOT
ATOM      1  C   UNL     1       2.346   4.637  19.140  0.00  0.00    +0.000 C 
ATOM      2  O   UNL     1       3.630   4.200  19.586  0.00  0.00    +0.000 OA
ATOM      3  C   UNL     1       4.038   3.055  18.780  0.00  0.00    +0.000 C 
ATOM      4  C   UNL     1       2.803   2.667  17.963  0.00  0.00    +0.000 C 
ATOM      5  C   UNL     1       2.114   4.006  17.760  0.00  0.00    +0.000 C 
ENDROOT
BRANCH   1  10
ATOM      6  O   UNL     1       1.236   9.841  18.859  0.00  0.00    +0.000 OA
ATOM      7  C   UNL     1       1.838   8.788  19.007  0.00  0.00    +0.000 A 
ATOM      8  C   UNL     1       2.566   8.123  17.910  0.00  0.00    +0.000 A 
ATOM      9  C   UNL     1       2.763   6.801  18.039  0.00  0.00    +0.000 A 
ATOM     10  N   UNL     1       2.294   6.099  19.137  0.00  0.00    +0.000 N 
ATOM     11  C   UNL     1       1.781   6.744  20.242  0.00  0.00    +0.000 A 
ATOM     12  O   UNL     1       1.237   6.241  21.214  0.00  0.00    +0.000 OA
ATOM     13  N   UNL     1       1.842   8.117  20.187  0.00  0.00    +0.000 N 
ATOM     14  H   UNL     1       1.378   8.530  20.975  0.00  0.00    +0.000 HD
ENDBRANCH   1  10
BRANCH   4  15
ATOM     15  O   UNL     1       1.876   1.856  18.721  0.00  0.00    +0.000 OA
ATOM     16  H   UNL     1       1.710   2.322  19.563  0.00  0.00    +0.000 HD
ENDBRANCH   4  15
BRANCH   5  17
ATOM     17  O   UNL     1       0.729   3.870  17.431  0.00  0.00    +0.000 OA
ATOM     18  H   UNL     1       0.404   3.186  18.060  0.00  0.00    +0.000 HD
ENDBRANCH   5  17
BRANCH   3  19
ATOM     19  C   UNL     1       5.242   3.416  17.894  0.00  0.00    +0.000 C 
BRANCH  19  20
ATOM     20  O   UNL     1       6.150   4.131  18.695  0.00  0.00    +0.000 OA
BRANCH  20  21
ATOM     21  P   UNL     1       7.149   5.259  18.049  0.00  0.00    +0.000 P 
ATOM     22  O   UNL     1       6.318   6.558  18.008  0.00  0.00    +0.000 OA
ATOM     23  O   UNL     1       8.333   5.265  18.973  0.00  0.00    +0.000 OA
BRANCH  21  24
ATOM     24  O   UNL     1       7.282   4.634  16.599  0.00  0.00    +0.000 OA
BRANCH  24  25
ATOM     25  P   UNL     1       6.828   4.954  15.070  0.00  0.00    +0.000 P 
ATOM     26  O   UNL     1       5.705   5.983  15.246  0.00  0.00    +0.000 OA
ATOM     27  O   UNL     1       8.037   5.532  14.352  0.00  0.00    +0.000 OA
ATOM     28  O   UNL     1       6.314   3.626  14.513  0.00  0.00    +0.000 OA
ENDBRANCH  24  25
ENDBRANCH  21  24
ENDBRANCH  20  21
ENDBRANCH  19  20
ENDBRANCH   3  19
TORSDOF 8
ENDMDL
MODEL 6
REMARK VINA RESULT:      -6.9      1.085      1.422
REMARK  Name = 
REMARK  8 active torsions:
REMARK  status: ('A' for Active; 'I' for Inactive)
REMARK    1  A    between atoms: N_5  and  C_6
REMARK    2  A    between atoms: C_8  and  C_9
REMARK    3  A    between atoms: C_9  and  O_10
REMARK    4  A    between atoms: O_10  and  P_11
REMARK    5  A    between atoms: P_11  and  O_14
REMARK    6  A    between atoms: O_14  and  P_15
REMARK    7  A    between atoms: C_19  and  O_20
REMARK    8  A    between atoms: C_21  and  O_22
REMARK                            x       y       z     vdW  Elec       q    Type
REMARK                         _______ _______ _______ _____ _____    ______ ____
ROOT
ATOM      1  C   UNL     1       2.360   6.012  19.423  0.00  0.00    +0.000 C 
ATOM      2  O   UNL     1       3.521   5.889  20.243  0.00  0.00    +0.000 OA
ATOM      3  C   UNL     1       4.362   4.826  19.705  0.00  0.00    +0.000 C 
ATOM      4  C   UNL     1       3.516   4.139  18.629  0.00  0.00    +0.000 C 
ATOM      5  C   UNL     1       2.664   5.283  18.106  0.00  0.00    +0.000 C 
ENDROOT
BRANCH   1  10
ATOM      6  O   UNL     1       0.250  10.831  18.574  0.00  0.00    +0.000 OA
ATOM      7  C   UNL     1       1.048   9.940  18.823  0.00  0.00    +0.000 A 
ATOM      8  C   UNL     1       1.880   9.299  17.787  0.00  0.00    +0.000 A 
ATOM      9  C   UNL     1       2.333   8.066  18.063  0.00  0.00    +0.000 A 
ATOM     10  N   UNL     1       2.023   7.426  19.250  0.00  0.00    +0.000 N 
ATOM     11  C   UNL     1       1.406   8.088  20.289  0.00  0.00    +0.000 A 
ATOM     12  O   UNL     1       0.981   7.611  21.332  0.00  0.00    +0.000 OA
ATOM     13  N   UNL     1       1.196   9.430  20.072  0.00  0.00    +0.000 N 
ATOM     14  H   UNL     1       0.668   9.839  20.822  0.00  0.00    +0.000 HD
ENDBRANCH   1  10
BRANCH   4  15
ATOM     15  O   UNL     1       2.590   3.180  19.189  0.00  0.00    +0.000 OA
ATOM     16  H   UNL     1       2.013   3.666  19.809  0.00  0.00    +0.000 HD
ENDBRANCH   4  15
BRANCH   5  17
ATOM     17  O   UNL     1       1.487   4.831  17.431  0.00  0.00    +0.000 OA
ATOM     18  H   UNL     1       1.234   5.594  16.863  0.00  0.00    +0.000 HD
ENDBRANCH   5  17
BRANCH   3  19
ATOM     19  C   UNL     1       5.673   5.402  19.145  0.00  0.00    +0.000 C 
BRANCH  19  20
ATOM     20  O   UNL     1       6.276   4.391  18.373  0.00  0.00    +0.000 OA
BRANCH  20  21
ATOM     21  P   UNL     1       7.545   4.717  17.388  0.00  0.00    +0.000 P 
ATOM     22  O   UNL     1       7.688   6.253  17.409  0.00  0.00    +0.000 OA
ATOM     23  O   UNL     1       8.681   3.943  17.993  0.00  0.00    +0.000 OA
BRANCH  21  24
ATOM     24  O   UNL     1       6.898   4.234  16.024  0.00  0.00    +0.000 OA
BRANCH  24  25
ATOM     25  P   UNL     1       6.479   4.839  14.573  0.00  0.00    +0.000 P 
ATOM     26  O   UNL     1       7.792   5.431  14.049  0.00  0.00    +0.000 OA
ATOM     27  O   UNL     1       5.986   3.678  13.726  0.00  0.00    +0.000 OA
ATOM     28  O   UNL     1       5.435   5.917  14.870  0.00  0.00    +0.000 OA
ENDBRANCH  24  25
ENDBRANCH  21  24
ENDBRANCH  20  21
ENDBRANCH  19  20
ENDBRANCH   3  19
TORSDOF 8
ENDMDL
MODEL 7
REMARK VINA RESULT:      -6.9      1.004      1.044
REMARK  Name = 
REMARK  8 active torsions:
REMARK  status: ('A' for Active; 'I' for Inactive)
REMARK    1  A    between atoms: N_5  and  C_6
REMARK    2  A    between atoms: C_8  and  C_9
REMARK    3  A    between atoms: C_9  and  O_10
REMARK    4  A    between atoms: O_10  and  P_11
REMARK    5  A    between atoms: P_11  and  O_14
REMARK    6  A    between atoms: O_14  and  P_15
REMARK    7  A    between atoms: C_19  and  O_20
REMARK    8  A    between atoms: C_21  and  O_22
REMARK                            x       y       z     vdW  Elec       q    Type
REMARK                         _______ _______ _______ _____ _____    ______ ____
ROOT
ATOM      1  C   UNL     1       2.389   4.875  19.447  0.00  0.00    +0.000 C 
ATOM      2  O   UNL     1       3.587   4.505  20.132  0.00  0.00    +0.000 OA
ATOM      3  C   UNL     1       3.963   3.159  19.719  0.00  0.00    +0.000 C 
ATOM      4  C   UNL     1       2.776   2.631  18.909  0.00  0.00    +0.000 C 
ATOM      5  C   UNL     1       2.227   3.898  18.275  0.00  0.00    +0.000 C 
ENDROOT
BRANCH   1  10
ATOM      6  O   UNL     1       1.781   9.836  17.600  0.00  0.00    +0.000 OA
ATOM      7  C   UNL     1       2.265   8.840  18.117  0.00  0.00    +0.000 A 
ATOM      8  C   UNL     1       3.072   7.861  17.367  0.00  0.00    +0.000 A 
ATOM      9  C   UNL     1       3.135   6.621  17.878  0.00  0.00    +0.000 A 
ATOM     10  N   UNL     1       2.465   6.278  19.040  0.00  0.00    +0.000 N 
ATOM     11  C   UNL     1       1.867   7.230  19.837  0.00  0.00    +0.000 A 
ATOM     12  O   UNL     1       1.156   7.046  20.815  0.00  0.00    +0.000 OA
ATOM     13  N   UNL     1       2.053   8.528  19.421  0.00  0.00    +0.000 N 
ATOM     14  H   UNL     1       1.525   9.167  19.988  0.00  0.00    +0.000 HD
ENDBRANCH   1  10
BRANCH   4  15
ATOM     15  O   UNL     1       1.719   2.121  19.754  0.00  0.00    +0.000 OA
ATOM     16  H   UNL     1       1.125   2.870  19.954  0.00  0.00    +0.000 HD
ENDBRANCH   4  15
BRANCH   5  17
ATOM     17  O   UNL     1       0.868   3.757  17.847  0.00  0.00    +0.000 OA
ATOM     18  H   UNL     1       0.531   4.681  17.828  0.00  0.00    +0.000 HD
ENDBRANCH   5  17
BRANCH   3  19
ATOM     19  C   UNL     1       5.267   3.185  18.904  0.00  0.00    +0.000 C 
BRANCH  19  20
ATOM     20  O   UNL     1       5.915   4.400  19.194  0.00  0.00    +0.000 OA
BRANCH  20  21
ATOM     21  P   UNL     1       6.933   5.099  18.115  0.00  0.00    +0.000 P 
ATOM     22  O   UNL     1       7.112   6.549  18.611  0.00  0.00    +0.000 OA
ATOM     23  O   UNL     1       8.159   4.232  18.162  0.00  0.00    +0.000 OA
BRANCH  21  24
ATOM     24  O   UNL     1       5.982   5.053  16.849  0.00  0.00    +0.000 OA
BRANCH  24  25
ATOM     25  P   UNL     1       6.043   5.335  15.248  0.00  0.00    +0.000 P 
ATOM     26  O   UNL     1       5.395   4.083  14.647  0.00  0.00    +0.000 OA
ATOM     27  O   UNL     1       5.234   6.593  14.980  0.00  0.00    +0.000 OA
ATOM     28  O   UNL     1       7.532   5.435  14.910  0.00  0.00    +0.000 OA
ENDBRANCH  24  25
ENDBRANCH  21  24
ENDBRANCH  20  21
ENDBRANCH  19  20
ENDBRANCH   3  19
TORSDOF 8
ENDMDL
MODEL 8
REMARK VINA RESULT:      -6.9      0.751      1.149
REMARK  Name = 
REMARK  8 active torsions:
REMARK  status: ('A' for Active; 'I' for Inactive)
REMARK    1  A    between atoms: N_5  and  C_6
REMARK    2  A    between atoms: C_8  and  C_9
REMARK    3  A    between atoms: C_9  and  O_10
REMARK    4  A    between atoms: O_10  and  P_11
REMARK    5  A    between atoms: P_11  and  O_14
REMARK    6  A    between atoms: O_14  and  P_15
REMARK    7  A    between atoms: C_19  and  O_20
REMARK    8  A    between atoms: C_21  and  O_22
REMARK                            x       y       z     vdW  Elec       q    Type
REMARK                         _______ _______ _______ _____ _____    ______ ____
ROOT
ATOM      1  C   UNL     1       2.605   5.884  20.164  0.00  0.00    +0.000 C 
ATOM      2  O   UNL     1       4.011   5.714  19.986  0.00  0.00    +0.000 OA
ATOM      3  C   UNL     1       4.268   4.332  19.597  0.00  0.00    +0.000 C 
ATOM      4  C   UNL     1       2.936   3.599  19.783  0.00  0.00    +0.000 C 
ATOM      5  C   UNL     1       1.921   4.690  19.483  0.00  0.00    +0.000 C 
ENDROOT
BRANCH   1  10
ATOM      6  O   UNL     1       0.235  10.194  18.113  0.00  0.00    +0.000 OA
ATOM      7  C   UNL     1       1.081   9.442  18.572  0.00  0.00    +0.000 A 
ATOM      8  C   UNL     1       1.939   8.591  17.726  0.00  0.00    +0.000 A 
ATOM      9  C   UNL     1       2.459   7.499  18.309  0.00  0.00    +0.000 A 
ATOM     10  N   UNL     1       2.192   7.183  19.630  0.00  0.00    +0.000 N 
ATOM     11  C   UNL     1       1.547   8.066  20.469  0.00  0.00    +0.000 A 
ATOM     12  O   UNL     1       1.155   7.863  21.609  0.00  0.00    +0.000 OA
ATOM     13  N   UNL     1       1.265   9.290  19.908  0.00  0.00    +0.000 N 
ATOM     14  H   UNL     1       0.721   9.856  20.534  0.00  0.00    +0.000 HD
ENDBRANCH   1  10
BRANCH   4  15
ATOM     15  O   UNL     1       2.709   3.214  21.158  0.00  0.00    +0.000 OA
ATOM     16  H   UNL     1       3.114   3.903  21.719  0.00  0.00    +0.000 HD
ENDBRANCH   4  15
BRANCH   5  17
ATOM     17  O   UNL     1       0.627   4.402  20.022  0.00  0.00    +0.000 OA
ATOM     18  H   UNL     1       0.732   3.508  20.419  0.00  0.00    +0.000 HD
ENDBRANCH   5  17
BRANCH   3  19
ATOM     19  C   UNL     1       4.782   4.262  18.150  0.00  0.00    +0.000 C 
BRANCH  19  20
ATOM     20  O   UNL     1       6.129   3.858  18.206  0.00  0.00    +0.000 OA
BRANCH  20  21
ATOM     21  P   UNL     1       7.347   4.921  17.936  0.00  0.00    +0.000 P 
ATOM     22  O   UNL     1       7.259   5.937  19.094  0.00  0.00    +0.000 OA
ATOM     23  O   UNL     1       8.578   4.061  17.909  0.00  0.00    +0.000 OA
BRANCH  21  24
ATOM     24  O   UNL     1       6.796   5.555  16.592  0.00  0.00    +0.000 OA
BRANCH  24  25
ATOM     25  P   UNL     1       6.511   5.123  15.050  0.00  0.00    +0.000 P 
ATOM     26  O   UNL     1       7.803   5.521  14.330  0.00  0.00    +0.000 OA
ATOM     27  O   UNL     1       6.278   3.621  15.038  0.00  0.00    +0.000 OA
ATOM     28  O   UNL     1       5.316   5.969  14.607  0.00  0.00    +0.000 OA
ENDBRANCH  24  25
ENDBRANCH  21  24
ENDBRANCH  20  21
ENDBRANCH  19  20
ENDBRANCH   3  19
TORSDOF 8
ENDMDL
MODEL 9
REMARK VINA RESULT:      -6.9      1.715      2.498
REMARK  Name = 
REMARK  8 active torsions:
REMARK  status: ('A' for Active; 'I' for Inactive)
REMARK    1  A    between atoms: N_5  and  C_6
REMARK    2  A    between atoms: C_8  and  C_9
REMARK    3  A    between atoms: C_9  and  O_10
REMARK    4  A    between atoms: O_10  and  P_11
REMARK    5  A    between atoms: P_11  and  O_14
REMARK    6  A    between atoms: O_14  and  P_15
REMARK    7  A    between atoms: C_19  and  O_20
REMARK    8  A    between atoms: C_21  and  O_22
REMARK                            x       y       z     vdW  Elec       q    Type
REMARK                         _______ _______ _______ _____ _____    ______ ____
ROOT
ATOM      1  C   UNL     1       3.193   4.797  18.899  0.00  0.00    +0.000 C 
ATOM      2  O   UNL     1       4.570   4.670  19.258  0.00  0.00    +0.000 OA
ATOM      3  C   UNL     1       5.226   3.801  18.289  0.00  0.00    +0.000 C 
ATOM      4  C   UNL     1       4.098   3.205  17.442  0.00  0.00    +0.000 C 
ATOM      5  C   UNL     1       3.066   4.320  17.446  0.00  0.00    +0.000 C 
ENDROOT
BRANCH   1  10
ATOM      6  O   UNL     1       0.722   9.494  19.367  0.00  0.00    +0.000 OA
ATOM      7  C   UNL     1       1.588   8.633  19.367  0.00  0.00    +0.000 A 
ATOM      8  C   UNL     1       2.437   8.352  18.194  0.00  0.00    +0.000 A 
ATOM      9  C   UNL     1       2.984   7.128  18.131  0.00  0.00    +0.000 A 
ATOM     10  N   UNL     1       2.752   6.176  19.109  0.00  0.00    +0.000 N 
ATOM     11  C   UNL     1       2.116   6.493  20.290  0.00  0.00    +0.000 A 
ATOM     12  O   UNL     1       1.753   5.728  21.172  0.00  0.00    +0.000 OA
ATOM     13  N   UNL     1       1.805   7.825  20.436  0.00  0.00    +0.000 N 
ATOM     14  H   UNL     1       1.269   7.980  21.271  0.00  0.00    +0.000 HD
ENDBRANCH   1  10
BRANCH   4  15
ATOM     15  O   UNL     1       3.464   2.077  18.088  0.00  0.00    +0.000 OA
ATOM     16  H   UNL     1       4.023   1.295  17.915  0.00  0.00    +0.000 HD
ENDBRANCH   4  15
BRANCH   5  17
ATOM     17  O   UNL     1       1.752   3.857  17.121  0.00  0.00    +0.000 OA
ATOM     18  H   UNL     1       1.893   3.282  16.335  0.00  0.00    +0.000 HD
ENDBRANCH   5  17
BRANCH   3  19
ATOM     19  C   UNL     1       6.240   4.593  17.447  0.00  0.00    +0.000 C 
BRANCH  19  20
ATOM     20  O   UNL     1       6.339   3.949  16.200  0.00  0.00    +0.000 OA
BRANCH  20  21
ATOM     21  P   UNL     1       6.440   4.806  14.806  0.00  0.00    +0.000 P 
ATOM     22  O   UNL     1       5.336   5.879  14.911  0.00  0.00    +0.000 OA
ATOM     23  O   UNL     1       7.853   5.316  14.798  0.00  0.00    +0.000 OA
BRANCH  21  24
ATOM     24  O   UNL     1       6.010   3.656  13.805  0.00  0.00    +0.000 OA
BRANCH  24  25
ATOM     25  P   UNL     1       6.004   3.348  12.208  0.00  0.00    +0.000 P 
ATOM     26  O   UNL     1       7.165   4.199  11.683  0.00  0.00    +0.000 OA
ATOM     27  O   UNL     1       6.252   1.858  12.036  0.00  0.00    +0.000 OA
ATOM     28  O   UNL     1       4.648   3.844  11.703  0.00  0.00    +0.000 OA
ENDBRANCH  24  25
ENDBRANCH  21  24
ENDBRANCH  20  21
ENDBRANCH  19  20
ENDBRANCH   3  19
TORSDOF 8
ENDMDL
