MODEL 1
REMARK VINA RESULT:      -8.2      0.000      0.000
REMARK  Name = 
REMARK  4 active torsions:
REMARK  status: ('A' for Active; 'I' for Inactive)
REMARK    1  A    between atoms: C_1  and  C_2
REMARK    2  A    between atoms: C_5  and  N_6
REMARK    3  A    between atoms: C_7  and  C_8
REMARK    4  A    between atoms: C_11  and  C_12
REMARK                            x       y       z     vdW  Elec       q    Type
REMARK                         _______ _______ _______ _____ _____    ______ ____
ROOT
ATOM      1  N   UNL     1       1.767   8.178  19.352  0.00  0.00    +0.000 N 
ATOM      2  C   UNL     1       2.536   8.281  18.221  0.00  0.00    +0.000 A 
ATOM      3  C   UNL     1       2.643   9.569  17.429  0.00  0.00    +0.000 C 
ATOM      4  N   UNL     1       3.270   7.315  17.793  0.00  0.00    +0.000 NA
ATOM      5  C   UNL     1       3.356   6.106  18.496  0.00  0.00    +0.000 A 
ATOM      6  C   UNL     1       4.205   5.088  18.034  0.00  0.00    +0.000 A 
ATOM      7  N   UNL     1       4.276   3.879  18.651  0.00  0.00    +0.000 NA
ATOM      8  C   UNL     1       3.528   3.647  19.742  0.00  0.00    +0.000 A 
ATOM      9  C   UNL     1       3.623   2.387  20.325  0.00  0.00    +0.000 A 
ATOM     10  C   UNL     1       2.888   2.027  21.457  0.00  0.00    +0.000 A 
ATOM     11  C   UNL     1       2.032   2.945  22.030  0.00  0.00    +0.000 A 
ATOM     12  C   UNL     1       1.921   4.218  21.464  0.00  0.00    +0.000 A 
ATOM     13  C   UNL     1       2.664   4.606  20.310  0.00  0.00    +0.000 A 
ATOM     14  C   UNL     1       2.612   5.871  19.652  0.00  0.00    +0.000 A 
ATOM     15  C   UNL     1       1.778   7.012  20.134  0.00  0.00    +0.000 A 
ATOM     16  O   UNL     1       1.127   6.901  21.169  0.00  0.00    +0.000 OA
ENDROOT
BRANCH   1  21
ATOM     17  C   UNL     1      -1.635  12.445  21.093  0.00  0.00    +0.000 C 
ATOM     18  C   UNL     1      -0.740  11.334  20.628  0.00  0.00    +0.000 A 
ATOM     19  C   UNL     1      -0.984  10.683  19.416  0.00  0.00    +0.000 A 
ATOM     20  C   UNL     1      -0.146   9.652  18.992  0.00  0.00    +0.000 A 
ATOM     21  C   UNL     1       0.931   9.245  19.785  0.00  0.00    +0.000 A 
ATOM     22  C   UNL     1       1.187   9.905  20.993  0.00  0.00    +0.000 A 
ATOM     23  C   UNL     1       0.355  10.946  21.410  0.00  0.00    +0.000 A 
ENDBRANCH   1  21
BRANCH   6  24
ATOM     24  C   UNL     1       5.041   5.230  16.808  0.00  0.00    +0.000 A 
ATOM     25  C   UNL     1       4.726   4.567  15.603  0.00  0.00    +0.000 A 
ATOM     26  C   UNL     1       5.605   4.544  14.517  0.00  0.00    +0.000 A 
ATOM     27  C   UNL     1       6.801   5.246  14.591  0.00  0.00    +0.000 A 
ATOM     28 CL   UNL     1       7.915   5.171  13.284  0.00  0.00    +0.000 Cl
ATOM     29  C   UNL     1       7.100   5.995  15.725  0.00  0.00    +0.000 A 
ATOM     30  C   UNL     1       6.226   5.989  16.821  0.00  0.00    +0.000 A 
ENDBRANCH   6  24
TORSDOF 2
ENDMDL
MODEL 2
REMARK VINA RESULT:      -7.0      7.377      9.482
REMARK  Name = 
REMARK  4 active torsions:
REMARK  status: ('A' for Active; 'I' for Inactive)
REMARK    1  A    between atoms: C_1  and  C_2
REMARK    2  A    between atoms: C_5  and  N_6
REMARK    3  A    between atoms: C_7  and  C_8
REMARK    4  A    between atoms: C_11  and  C_12
REMARK                            x       y       z     vdW  Elec       q    Type
REMARK                         _______ _______ _______ _____ _____    ______ ____
ROOT
ATOM      1  N   UNL     1       1.404  14.146  20.492  0.00  0.00    +0.000 N 
ATOM      2  C   UNL     1       1.080  13.489  19.333  0.00  0.00    +0.000 A 
ATOM      3  C   UNL     1       2.069  13.308  18.200  0.00  0.00    +0.000 C 
ATOM      4  N   UNL     1      -0.063  12.923  19.155  0.00  0.00    +0.000 NA
ATOM      5  C   UNL     1      -1.029  12.913  20.169  0.00  0.00    +0.000 A 
ATOM      6  C   UNL     1      -2.247  12.243  19.968  0.00  0.00    +0.000 A 
ATOM      7  N   UNL     1      -3.235  12.256  20.900  0.00  0.00    +0.000 NA
ATOM      8  C   UNL     1      -3.047  12.912  22.056  0.00  0.00    +0.000 A 
ATOM      9  C   UNL     1      -4.097  12.912  22.969  0.00  0.00    +0.000 A 
ATOM     10  C   UNL     1      -4.021  13.567  24.200  0.00  0.00    +0.000 A 
ATOM     11  C   UNL     1      -2.867  14.244  24.538  0.00  0.00    +0.000 A 
ATOM     12  C   UNL     1      -1.798  14.257  23.639  0.00  0.00    +0.000 A 
ATOM     13  C   UNL     1      -1.854  13.593  22.377  0.00  0.00    +0.000 A 
ATOM     14  C   UNL     1      -0.827  13.559  21.388  0.00  0.00    +0.000 A 
ATOM     15  C   UNL     1       0.510  14.196  21.573  0.00  0.00    +0.000 A 
ATOM     16  O   UNL     1       0.785  14.748  22.635  0.00  0.00    +0.000 OA
ENDROOT
BRANCH   1  21
ATOM     17  C   UNL     1       6.473  16.743  21.105  0.00  0.00    +0.000 C 
ATOM     18  C   UNL     1       5.144  16.063  20.957  0.00  0.00    +0.000 A 
ATOM     19  C   UNL     1       4.959  14.754  21.408  0.00  0.00    +0.000 A 
ATOM     20  C   UNL     1       3.720  14.130  21.266  0.00  0.00    +0.000 A 
ATOM     21  C   UNL     1       2.658  14.800  20.651  0.00  0.00    +0.000 A 
ATOM     22  C   UNL     1       2.836  16.117  20.210  0.00  0.00    +0.000 A 
ATOM     23  C   UNL     1       4.073  16.745  20.365  0.00  0.00    +0.000 A 
ENDBRANCH   1  21
BRANCH   6  24
ATOM     24  C   UNL     1      -2.571  11.523  18.702  0.00  0.00    +0.000 A 
ATOM     25  C   UNL     1      -1.717  10.541  18.157  0.00  0.00    +0.000 A 
ATOM     26  C   UNL     1      -1.918  10.006  16.882  0.00  0.00    +0.000 A 
ATOM     27  C   UNL     1      -3.027  10.399  16.145  0.00  0.00    +0.000 A 
ATOM     28 CL   UNL     1      -3.249   9.793  14.551  0.00  0.00    +0.000 Cl
ATOM     29  C   UNL     1      -3.947  11.290  16.690  0.00  0.00    +0.000 A 
ATOM     30  C   UNL     1      -3.721  11.843  17.958  0.00  0.00    +0.000 A 
ENDBRANCH   6  24
TORSDOF 2
ENDMDL
MODEL 3
REMARK VINA RESULT:      -6.9      4.763     10.406
REMARK  Name = 
REMARK  4 active torsions:
REMARK  status: ('A' for Active; 'I' for Inactive)
REMARK    1  A    between atoms: C_1  and  C_2
REMARK    2  A    between atoms: C_5  and  N_6
REMARK    3  A    between atoms: C_7  and  C_8
REMARK    4  A    between atoms: C_11  and  C_12
REMARK                            x       y       z     vdW  Elec       q    Type
REMARK                         _______ _______ _______ _____ _____    ______ ____
ROOT
ATOM      1  N   UNL     1       0.035  10.272  19.624  0.00  0.00    +0.000 N 
ATOM      2  C   UNL     1       0.205  10.984  20.783  0.00  0.00    +0.000 A 
ATOM      3  C   UNL     1       1.482  10.914  21.597  0.00  0.00    +0.000 C 
ATOM      4  N   UNL     1      -0.678  11.810  21.225  0.00  0.00    +0.000 NA
ATOM      5  C   UNL     1      -1.856  12.058  20.508  0.00  0.00    +0.000 A 
ATOM      6  C   UNL     1      -2.779  13.003  20.985  0.00  0.00    +0.000 A 
ATOM      7  N   UNL     1      -3.959  13.234  20.354  0.00  0.00    +0.000 NA
ATOM      8  C   UNL     1      -4.255  12.556  19.233  0.00  0.00    +0.000 A 
ATOM      9  C   UNL     1      -5.485  12.816  18.636  0.00  0.00    +0.000 A 
ATOM     10  C   UNL     1      -5.906  12.167  17.473  0.00  0.00    +0.000 A 
ATOM     11  C   UNL     1      -5.082  11.231  16.883  0.00  0.00    +0.000 A 
ATOM     12  C   UNL     1      -3.841  10.955  17.462  0.00  0.00    +0.000 A 
ATOM     13  C   UNL     1      -3.391  11.608  18.648  0.00  0.00    +0.000 A 
ATOM     14  C   UNL     1      -2.153  11.387  19.322  0.00  0.00    +0.000 A 
ATOM     15  C   UNL     1      -1.107  10.445  18.826  0.00  0.00    +0.000 A 
ATOM     16  O   UNL     1      -1.272   9.848  17.766  0.00  0.00    +0.000 OA
ENDROOT
BRANCH   1  21
ATOM     17  C   UNL     1       3.916   6.463  17.822  0.00  0.00    +0.000 C 
ATOM     18  C   UNL     1       2.907   7.463  18.303  0.00  0.00    +0.000 A 
ATOM     19  C   UNL     1       2.240   7.277  19.517  0.00  0.00    +0.000 A 
ATOM     20  C   UNL     1       1.304   8.212  19.956  0.00  0.00    +0.000 A 
ATOM     21  C   UNL     1       1.008   9.334  19.176  0.00  0.00    +0.000 A 
ATOM     22  C   UNL     1       1.684   9.532  17.966  0.00  0.00    +0.000 A 
ATOM     23  C   UNL     1       2.631   8.602  17.535  0.00  0.00    +0.000 A 
ENDBRANCH   1  21
BRANCH   6  24
ATOM     24  C   UNL     1      -2.564  13.774  22.244  0.00  0.00    +0.000 A 
ATOM     25  C   UNL     1      -1.555  14.754  22.361  0.00  0.00    +0.000 A 
ATOM     26  C   UNL     1      -1.227  15.338  23.587  0.00  0.00    +0.000 A 
ATOM     27  C   UNL     1      -1.952  14.998  24.721  0.00  0.00    +0.000 A 
ATOM     28 CL   UNL     1      -1.513  15.665  26.244  0.00  0.00    +0.000 Cl
ATOM     29  C   UNL     1      -3.020  14.111  24.626  0.00  0.00    +0.000 A 
ATOM     30  C   UNL     1      -3.324  13.508  23.398  0.00  0.00    +0.000 A 
ENDBRANCH   6  24
TORSDOF 2
ENDMDL
MODEL 4
REMARK VINA RESULT:      -6.9      4.561     10.104
REMARK  Name = 
REMARK  4 active torsions:
REMARK  status: ('A' for Active; 'I' for Inactive)
REMARK    1  A    between atoms: C_1  and  C_2
REMARK    2  A    between atoms: C_5  and  N_6
REMARK    3  A    between atoms: C_7  and  C_8
REMARK    4  A    between atoms: C_11  and  C_12
REMARK                            x       y       z     vdW  Elec       q    Type
REMARK                         _______ _______ _______ _____ _____    ______ ____
ROOT
ATOM      1  N   UNL     1       0.447   9.738  19.510  0.00  0.00    +0.000 N 
ATOM      2  C   UNL     1       0.544  10.359  20.729  0.00  0.00    +0.000 A 
ATOM      3  C   UNL     1       1.753  10.192  21.628  0.00  0.00    +0.000 C 
ATOM      4  N   UNL     1      -0.351  11.176  21.163  0.00  0.00    +0.000 NA
ATOM      5  C   UNL     1      -1.463  11.511  20.381  0.00  0.00    +0.000 A 
ATOM      6  C   UNL     1      -2.397  12.445  20.857  0.00  0.00    +0.000 A 
ATOM      7  N   UNL     1      -3.520  12.756  20.159  0.00  0.00    +0.000 NA
ATOM      8  C   UNL     1      -3.746  12.171  18.971  0.00  0.00    +0.000 A 
ATOM      9  C   UNL     1      -4.919  12.509  18.305  0.00  0.00    +0.000 A 
ATOM     10  C   UNL     1      -5.266  11.959  17.069  0.00  0.00    +0.000 A 
ATOM     11  C   UNL     1      -4.421  11.045  16.473  0.00  0.00    +0.000 A 
ATOM     12  C   UNL     1      -3.235  10.691  17.121  0.00  0.00    +0.000 A 
ATOM     13  C   UNL     1      -2.862  11.242  18.383  0.00  0.00    +0.000 A 
ATOM     14  C   UNL     1      -1.685  10.937  19.129  0.00  0.00    +0.000 A 
ATOM     15  C   UNL     1      -0.627  10.003  18.644  0.00  0.00    +0.000 A 
ATOM     16  O   UNL     1      -0.724   9.489  17.533  0.00  0.00    +0.000 OA
ENDROOT
BRANCH   1  21
ATOM     17  C   UNL     1       4.361   5.957  17.723  0.00  0.00    +0.000 C 
ATOM     18  C   UNL     1       3.343   6.950  18.201  0.00  0.00    +0.000 A 
ATOM     19  C   UNL     1       2.582   6.696  19.345  0.00  0.00    +0.000 A 
ATOM     20  C   UNL     1       1.638   7.624  19.782  0.00  0.00    +0.000 A 
ATOM     21  C   UNL     1       1.428   8.807  19.067  0.00  0.00    +0.000 A 
ATOM     22  C   UNL     1       2.198   9.072  17.928  0.00  0.00    +0.000 A 
ATOM     23  C   UNL     1       3.153   8.147  17.500  0.00  0.00    +0.000 A 
ENDBRANCH   1  21
BRANCH   6  24
ATOM     24  C   UNL     1      -2.261  13.116  22.183  0.00  0.00    +0.000 A 
ATOM     25  C   UNL     1      -3.215  12.952  23.209  0.00  0.00    +0.000 A 
ATOM     26  C   UNL     1      -3.193  13.724  24.373  0.00  0.00    +0.000 A 
ATOM     27  C   UNL     1      -2.167  14.639  24.566  0.00  0.00    +0.000 A 
ATOM     28 CL   UNL     1      -2.168  15.637  25.966  0.00  0.00    +0.000 Cl
ATOM     29  C   UNL     1      -1.151  14.757  23.622  0.00  0.00    +0.000 A 
ATOM     30  C   UNL     1      -1.197  13.999  22.444  0.00  0.00    +0.000 A 
ENDBRANCH   6  24
TORSDOF 2
ENDMDL
MODEL 5
REMARK VINA RESULT:      -6.9      5.189     10.878
REMARK  Name = 
REMARK  4 active torsions:
REMARK  status: ('A' for Active; 'I' for Inactive)
REMARK    1  A    between atoms: C_1  and  C_2
REMARK    2  A    between atoms: C_5  and  N_6
REMARK    3  A    between atoms: C_7  and  C_8
REMARK    4  A    between atoms: C_11  and  C_12
REMARK                            x       y       z     vdW  Elec       q    Type
REMARK                         _______ _______ _______ _____ _____    ______ ____
ROOT
ATOM      1  N   UNL     1      -0.390  11.030  19.659  0.00  0.00    +0.000 N 
ATOM      2  C   UNL     1      -0.037  12.042  20.515  0.00  0.00    +0.000 A 
ATOM      3  C   UNL     1       1.386  12.230  21.003  0.00  0.00    +0.000 C 
ATOM      4  N   UNL     1      -0.872  12.939  20.908  0.00  0.00    +0.000 NA
ATOM      5  C   UNL     1      -2.192  12.952  20.439  0.00  0.00    +0.000 A 
ATOM      6  C   UNL     1      -3.067  13.973  20.844  0.00  0.00    +0.000 A 
ATOM      7  N   UNL     1      -4.370  13.994  20.461  0.00  0.00    +0.000 NA
ATOM      8  C   UNL     1      -4.841  13.023  19.661  0.00  0.00    +0.000 A 
ATOM      9  C   UNL     1      -6.187  13.079  19.313  0.00  0.00    +0.000 A 
ATOM     10  C   UNL     1      -6.792  12.122  18.495  0.00  0.00    +0.000 A 
ATOM     11  C   UNL     1      -6.037  11.076  18.005  0.00  0.00    +0.000 A 
ATOM     12  C   UNL     1      -4.683  10.999  18.338  0.00  0.00    +0.000 A 
ATOM     13  C   UNL     1      -4.046  11.967  19.170  0.00  0.00    +0.000 A 
ATOM     14  C   UNL     1      -2.678  11.970  19.577  0.00  0.00    +0.000 A 
ATOM     15  C   UNL     1      -1.687  10.949  19.127  0.00  0.00    +0.000 A 
ATOM     16  O   UNL     1      -2.024  10.075  18.333  0.00  0.00    +0.000 OA
ENDROOT
BRANCH   1  21
ATOM     17  C   UNL     1       3.316   6.951  18.097  0.00  0.00    +0.000 C 
ATOM     18  C   UNL     1       2.354   8.023  18.515  0.00  0.00    +0.000 A 
ATOM     19  C   UNL     1       1.753   7.991  19.777  0.00  0.00    +0.000 A 
ATOM     20  C   UNL     1       0.860   8.992  20.156  0.00  0.00    +0.000 A 
ATOM     21  C   UNL     1       0.539  10.025  19.270  0.00  0.00    +0.000 A 
ATOM     22  C   UNL     1       1.149  10.069  18.010  0.00  0.00    +0.000 A 
ATOM     23  C   UNL     1       2.054   9.073  17.637  0.00  0.00    +0.000 A 
ENDBRANCH   1  21
BRANCH   6  24
ATOM     24  C   UNL     1      -2.653  15.071  21.766  0.00  0.00    +0.000 A 
ATOM     25  C   UNL     1      -2.781  14.962  23.166  0.00  0.00    +0.000 A 
ATOM     26  C   UNL     1      -2.577  16.052  24.017  0.00  0.00    +0.000 A 
ATOM     27  C   UNL     1      -2.173  17.269  23.482  0.00  0.00    +0.000 A 
ATOM     28 CL   UNL     1      -1.981  18.630  24.515  0.00  0.00    +0.000 Cl
ATOM     29  C   UNL     1      -1.938  17.386  22.116  0.00  0.00    +0.000 A 
ATOM     30  C   UNL     1      -2.173  16.296  21.267  0.00  0.00    +0.000 A 
ENDBRANCH   6  24
TORSDOF 2
ENDMDL
MODEL 6
REMARK VINA RESULT:      -6.8      5.100     10.771
REMARK  Name = 
REMARK  4 active torsions:
REMARK  status: ('A' for Active; 'I' for Inactive)
REMARK    1  A    between atoms: C_1  and  C_2
REMARK    2  A    between atoms: C_5  and  N_6
REMARK    3  A    between atoms: C_7  and  C_8
REMARK    4  A    between atoms: C_11  and  C_12
REMARK                            x       y       z     vdW  Elec       q    Type
REMARK                         _______ _______ _______ _____ _____    ______ ____
ROOT
ATOM      1  N   UNL     1      -0.420  11.067  19.675  0.00  0.00    +0.000 N 
ATOM      2  C   UNL     1      -0.056  12.106  20.493  0.00  0.00    +0.000 A 
ATOM      3  C   UNL     1       1.373  12.308  20.958  0.00  0.00    +0.000 C 
ATOM      4  N   UNL     1      -0.885  13.017  20.866  0.00  0.00    +0.000 NA
ATOM      5  C   UNL     1      -2.211  13.016  20.413  0.00  0.00    +0.000 A 
ATOM      6  C   UNL     1      -3.080  14.051  20.794  0.00  0.00    +0.000 A 
ATOM      7  N   UNL     1      -4.388  14.060  20.426  0.00  0.00    +0.000 NA
ATOM      8  C   UNL     1      -4.869  13.065  19.664  0.00  0.00    +0.000 A 
ATOM      9  C   UNL     1      -6.219  13.111  19.331  0.00  0.00    +0.000 A 
ATOM     10  C   UNL     1      -6.834  12.128  18.552  0.00  0.00    +0.000 A 
ATOM     11  C   UNL     1      -6.086  11.066  18.087  0.00  0.00    +0.000 A 
ATOM     12  C   UNL     1      -4.728  10.998  18.407  0.00  0.00    +0.000 A 
ATOM     13  C   UNL     1      -4.081  11.992  19.199  0.00  0.00    +0.000 A 
ATOM     14  C   UNL     1      -2.708  12.007  19.590  0.00  0.00    +0.000 A 
ATOM     15  C   UNL     1      -1.724  10.970  19.162  0.00  0.00    +0.000 A 
ATOM     16  O   UNL     1      -2.071  10.071  18.400  0.00  0.00    +0.000 OA
ENDROOT
BRANCH   1  21
ATOM     17  C   UNL     1       3.331   7.001  18.190  0.00  0.00    +0.000 C 
ATOM     18  C   UNL     1       2.341   8.061  18.571  0.00  0.00    +0.000 A 
ATOM     19  C   UNL     1       1.997   9.072  17.669  0.00  0.00    +0.000 A 
ATOM     20  C   UNL     1       1.075  10.053  18.032  0.00  0.00    +0.000 A 
ATOM     21  C   UNL     1       0.503  10.048  19.308  0.00  0.00    +0.000 A 
ATOM     22  C   UNL     1       0.835   9.030  20.209  0.00  0.00    +0.000 A 
ATOM     23  C   UNL     1       1.748   8.040  19.839  0.00  0.00    +0.000 A 
ENDBRANCH   1  21
BRANCH   6  24
ATOM     24  C   UNL     1      -2.655  15.177  21.674  0.00  0.00    +0.000 A 
ATOM     25  C   UNL     1      -2.046  16.342  21.162  0.00  0.00    +0.000 A 
ATOM     26  C   UNL     1      -1.475  17.309  21.993  0.00  0.00    +0.000 A 
ATOM     27  C   UNL     1      -1.560  17.160  23.371  0.00  0.00    +0.000 A 
ATOM     28 CL   UNL     1      -0.806  18.313  24.400  0.00  0.00    +0.000 Cl
ATOM     29  C   UNL     1      -2.242  16.075  23.915  0.00  0.00    +0.000 A 
ATOM     30  C   UNL     1      -2.786  15.096  23.073  0.00  0.00    +0.000 A 
ENDBRANCH   6  24
TORSDOF 2
ENDMDL
MODEL 7
REMARK VINA RESULT:      -6.7      9.042     11.414
REMARK  Name = 
REMARK  4 active torsions:
REMARK  status: ('A' for Active; 'I' for Inactive)
REMARK    1  A    between atoms: C_1  and  C_2
REMARK    2  A    between atoms: C_5  and  N_6
REMARK    3  A    between atoms: C_7  and  C_8
REMARK    4  A    between atoms: C_11  and  C_12
REMARK                            x       y       z     vdW  Elec       q    Type
REMARK                         _______ _______ _______ _____ _____    ______ ____
ROOT
ATOM      1  N   UNL     1       7.956  14.159  20.073  0.00  0.00    +0.000 N 
ATOM      2  C   UNL     1       6.826  14.832  19.686  0.00  0.00    +0.000 A 
ATOM      3  C   UNL     1       6.614  15.309  18.263  0.00  0.00    +0.000 C 
ATOM      4  N   UNL     1       5.840  15.046  20.486  0.00  0.00    +0.000 NA
ATOM      5  C   UNL     1       5.855  14.556  21.798  0.00  0.00    +0.000 A 
ATOM      6  C   UNL     1       4.744  14.759  22.633  0.00  0.00    +0.000 A 
ATOM      7  N   UNL     1       4.737  14.352  23.929  0.00  0.00    +0.000 NA
ATOM      8  C   UNL     1       5.812  13.724  24.432  0.00  0.00    +0.000 A 
ATOM      9  C   UNL     1       5.763  13.344  25.769  0.00  0.00    +0.000 A 
ATOM     10  C   UNL     1       6.822  12.693  26.405  0.00  0.00    +0.000 A 
ATOM     11  C   UNL     1       7.968  12.408  25.691  0.00  0.00    +0.000 A 
ATOM     12  C   UNL     1       8.041  12.777  24.345  0.00  0.00    +0.000 A 
ATOM     13  C   UNL     1       6.970  13.440  23.677  0.00  0.00    +0.000 A 
ATOM     14  C   UNL     1       6.952  13.868  22.317  0.00  0.00    +0.000 A 
ATOM     15  C   UNL     1       8.076  13.623  21.366  0.00  0.00    +0.000 A 
ATOM     16  O   UNL     1       9.060  12.986  21.731  0.00  0.00    +0.000 OA
ENDROOT
BRANCH   1  21
ATOM     17  C   UNL     1      12.333  13.394  16.458  0.00  0.00    +0.000 C 
ATOM     18  C   UNL     1      11.191  13.584  17.411  0.00  0.00    +0.000 A 
ATOM     19  C   UNL     1      10.179  12.625  17.514  0.00  0.00    +0.000 A 
ATOM     20  C   UNL     1       9.122  12.812  18.403  0.00  0.00    +0.000 A 
ATOM     21  C   UNL     1       9.051  13.969  19.184  0.00  0.00    +0.000 A 
ATOM     22  C   UNL     1      10.069  14.926  19.095  0.00  0.00    +0.000 A 
ATOM     23  C   UNL     1      11.135  14.731  18.214  0.00  0.00    +0.000 A 
ENDBRANCH   1  21
BRANCH   6  24
ATOM     24  C   UNL     1       3.520  15.484  22.183  0.00  0.00    +0.000 A 
ATOM     25  C   UNL     1       2.459  14.828  21.525  0.00  0.00    +0.000 A 
ATOM     26  C   UNL     1       1.405  15.531  20.935  0.00  0.00    +0.000 A 
ATOM     27  C   UNL     1       1.357  16.914  21.049  0.00  0.00    +0.000 A 
ATOM     28 CL   UNL     1       0.098  17.790  20.272  0.00  0.00    +0.000 Cl
ATOM     29  C   UNL     1       2.333  17.587  21.778  0.00  0.00    +0.000 A 
ATOM     30  C   UNL     1       3.402  16.877  22.342  0.00  0.00    +0.000 A 
ENDBRANCH   6  24
TORSDOF 2
ENDMDL
MODEL 8
REMARK VINA RESULT:      -6.7      4.855     10.528
REMARK  Name = 
REMARK  4 active torsions:
REMARK  status: ('A' for Active; 'I' for Inactive)
REMARK    1  A    between atoms: C_1  and  C_2
REMARK    2  A    between atoms: C_5  and  N_6
REMARK    3  A    between atoms: C_7  and  C_8
REMARK    4  A    between atoms: C_11  and  C_12
REMARK                            x       y       z     vdW  Elec       q    Type
REMARK                         _______ _______ _______ _____ _____    ______ ____
ROOT
ATOM      1  N   UNL     1       0.769  10.335  19.699  0.00  0.00    +0.000 N 
ATOM      2  C   UNL     1      -0.361  10.244  20.471  0.00  0.00    +0.000 A 
ATOM      3  C   UNL     1      -0.879   8.920  20.997  0.00  0.00    +0.000 C 
ATOM      4  N   UNL     1      -1.020  11.280  20.858  0.00  0.00    +0.000 NA
ATOM      5  C   UNL     1      -0.584  12.573  20.542  0.00  0.00    +0.000 A 
ATOM      6  C   UNL     1      -1.293  13.687  21.020  0.00  0.00    +0.000 A 
ATOM      7  N   UNL     1      -0.940  14.957  20.691  0.00  0.00    +0.000 NA
ATOM      8  C   UNL     1       0.123  15.165  19.898  0.00  0.00    +0.000 A 
ATOM      9  C   UNL     1       0.431  16.483  19.574  0.00  0.00    +0.000 A 
ATOM     10  C   UNL     1       1.507  16.822  18.751  0.00  0.00    +0.000 A 
ATOM     11  C   UNL     1       2.305  15.822  18.233  0.00  0.00    +0.000 A 
ATOM     12  C   UNL     1       2.018  14.492  18.545  0.00  0.00    +0.000 A 
ATOM     13  C   UNL     1       0.925  14.124  19.385  0.00  0.00    +0.000 A 
ATOM     14  C   UNL     1       0.542  12.799  19.750  0.00  0.00    +0.000 A 
ATOM     15  C   UNL     1       1.295  11.582  19.326  0.00  0.00    +0.000 A 
ATOM     16  O   UNL     1       2.323  11.697  18.664  0.00  0.00    +0.000 OA
ENDROOT
BRANCH   1  21
ATOM     17  C   UNL     1       3.581   5.692  17.872  0.00  0.00    +0.000 C 
ATOM     18  C   UNL     1       2.835   6.904  18.344  0.00  0.00    +0.000 A 
ATOM     19  C   UNL     1       2.463   7.908  17.445  0.00  0.00    +0.000 A 
ATOM     20  C   UNL     1       1.769   9.030  17.894  0.00  0.00    +0.000 A 
ATOM     21  C   UNL     1       1.459   9.175  19.249  0.00  0.00    +0.000 A 
ATOM     22  C   UNL     1       1.817   8.165  20.151  0.00  0.00    +0.000 A 
ATOM     23  C   UNL     1       2.500   7.034  19.698  0.00  0.00    +0.000 A 
ENDBRANCH   1  21
BRANCH   6  24
ATOM     24  C   UNL     1      -2.512  13.561  21.870  0.00  0.00    +0.000 A 
ATOM     25  C   UNL     1      -2.438  13.382  23.267  0.00  0.00    +0.000 A 
ATOM     26  C   UNL     1      -3.563  13.073  24.037  0.00  0.00    +0.000 A 
ATOM     27  C   UNL     1      -4.808  13.000  23.427  0.00  0.00    +0.000 A 
ATOM     28 CL   UNL     1      -6.187  12.559  24.355  0.00  0.00    +0.000 Cl
ATOM     29  C   UNL     1      -4.935  13.271  22.067  0.00  0.00    +0.000 A 
ATOM     30  C   UNL     1      -3.798  13.551  21.298  0.00  0.00    +0.000 A 
ENDBRANCH   6  24
TORSDOF 2
ENDMDL
MODEL 9
REMARK VINA RESULT:      -6.6      5.555     11.344
REMARK  Name = 
REMARK  4 active torsions:
REMARK  status: ('A' for Active; 'I' for Inactive)
REMARK    1  A    between atoms: C_1  and  C_2
REMARK    2  A    between atoms: C_5  and  N_6
REMARK    3  A    between atoms: C_7  and  C_8
REMARK    4  A    between atoms: C_11  and  C_12
REMARK                            x       y       z     vdW  Elec       q    Type
REMARK                         _______ _______ _______ _____ _____    ______ ____
ROOT
ATOM      1  N   UNL     1      -1.092  11.363  19.938  0.00  0.00    +0.000 N 
ATOM      2  C   UNL     1      -0.842  12.261  20.942  0.00  0.00    +0.000 A 
ATOM      3  C   UNL     1       0.528  12.414  21.571  0.00  0.00    +0.000 C 
ATOM      4  N   UNL     1      -1.735  13.083  21.374  0.00  0.00    +0.000 NA
ATOM      5  C   UNL     1      -3.011  13.130  20.799  0.00  0.00    +0.000 A 
ATOM      6  C   UNL     1      -3.949  14.071  21.254  0.00  0.00    +0.000 A 
ATOM      7  N   UNL     1      -5.216  14.114  20.767  0.00  0.00    +0.000 NA
ATOM      8  C   UNL     1      -5.589  13.246  19.812  0.00  0.00    +0.000 A 
ATOM      9  C   UNL     1      -6.903  13.319  19.360  0.00  0.00    +0.000 A 
ATOM     10  C   UNL     1      -7.407  12.464  18.378  0.00  0.00    +0.000 A 
ATOM     11  C   UNL     1      -6.582  11.506  17.825  0.00  0.00    +0.000 A 
ATOM     12  C   UNL     1      -5.258  11.414  18.260  0.00  0.00    +0.000 A 
ATOM     13  C   UNL     1      -4.723  12.279  19.261  0.00  0.00    +0.000 A 
ATOM     14  C   UNL     1      -3.394  12.257  19.781  0.00  0.00    +0.000 A 
ATOM     15  C   UNL     1      -2.338  11.324  19.291  0.00  0.00    +0.000 A 
ATOM     16  O   UNL     1      -2.580  10.554  18.365  0.00  0.00    +0.000 OA
ENDROOT
BRANCH   1  21
ATOM     17  C   UNL     1       2.922   7.669  18.191  0.00  0.00    +0.000 C 
ATOM     18  C   UNL     1       1.863   8.632  18.639  0.00  0.00    +0.000 A 
ATOM     19  C   UNL     1       1.481   9.701  17.825  0.00  0.00    +0.000 A 
ATOM     20  C   UNL     1       0.495  10.591  18.250  0.00  0.00    +0.000 A 
ATOM     21  C   UNL     1      -0.103  10.436  19.504  0.00  0.00    +0.000 A 
ATOM     22  C   UNL     1       0.268   9.358  20.318  0.00  0.00    +0.000 A 
ATOM     23  C   UNL     1       1.245   8.460  19.884  0.00  0.00    +0.000 A 
ENDBRANCH   1  21
BRANCH   6  24
ATOM     24  C   UNL     1      -3.648  15.048  22.341  0.00  0.00    +0.000 A 
ATOM     25  C   UNL     1      -3.037  16.293  22.083  0.00  0.00    +0.000 A 
ATOM     26  C   UNL     1      -2.581  17.123  23.110  0.00  0.00    +0.000 A 
ATOM     27  C   UNL     1      -2.787  16.750  24.431  0.00  0.00    +0.000 A 
ATOM     28 CL   UNL     1      -2.173  17.735  25.700  0.00  0.00    +0.000 Cl
ATOM     29  C   UNL     1      -3.476  15.577  24.725  0.00  0.00    +0.000 A 
ATOM     30  C   UNL     1      -3.904  14.736  23.689  0.00  0.00    +0.000 A 
ENDBRANCH   6  24
TORSDOF 2
ENDMDL
