MODEL 1
REMARK VINA RESULT:      -6.3      0.000      0.000
REMARK  Name = 
REMARK  9 active torsions:
REMARK  status: ('A' for Active; 'I' for Inactive)
REMARK    1  A    between atoms: C_1  and  N_2
REMARK    2  A    between atoms: N_2  and  C_8
REMARK    3  A    between atoms: C_3  and  C_5
REMARK    4  A    between atoms: C_5  and  C_6
REMARK    5  A    between atoms: C_6  and  S_7
REMARK    6  A    between atoms: C_8  and  C_9
REMARK    7  A    between atoms: C_8  and  C_16
REMARK    8  A    between atoms: C_9  and  C_10
REMARK    9  A    between atoms: C_16  and  O_18
REMARK                            x       y       z     vdW  Elec       q    Type
REMARK                         _______ _______ _______ _____ _____    ______ ____
ROOT
ATOM      1  C   UNL     1       6.126   4.764  16.973  0.00  0.00    +0.000 C 
ENDROOT
BRANCH   1   3
ATOM      2  C   UNL     1       4.592   6.785  17.327  0.00  0.00    +0.000 C 
ATOM      3  N   UNL     1       4.789   5.332  17.379  0.00  0.00    +0.000 N 
ATOM      4  C   UNL     1       3.770   4.421  17.681  0.00  0.00    +0.000 C 
ATOM      5  O   UNL     1       3.968   3.207  17.652  0.00  0.00    +0.000 OA
BRANCH   4   6
ATOM      6  C   UNL     1       2.394   4.960  18.050  0.00  0.00    +0.000 C 
BRANCH   6   7
ATOM      7  C   UNL     1       1.426   3.809  18.312  0.00  0.00    +0.000 C 
BRANCH   7   8
ATOM      8  S   UNL     1       1.098   3.632  20.094  0.00  0.00    +0.000 S 
ATOM      9  H   UNL     1      -0.237   3.732  20.027  0.00  0.00    +0.000 HD
ENDBRANCH   7   8
ENDBRANCH   6   7
ENDBRANCH   4   6
ENDBRANCH   1   3
BRANCH   1  10
ATOM     10  C   UNL     1       7.157   4.653  18.121  0.00  0.00    +0.000 C 
ATOM     11  O   UNL     1       6.975   5.084  19.246  0.00  0.00    +0.000 OA
BRANCH  10  12
ATOM     12  O   UNL     1       8.311   4.044  17.772  0.00  0.00    +0.000 OA
ATOM     13  H   UNL     1       8.707   3.591  18.538  0.00  0.00    +0.000 HD
ENDBRANCH  10  12
ENDBRANCH   1  10
BRANCH   1  14
ATOM     14  C   UNL     1       6.805   5.492  15.795  0.00  0.00    +0.000 C 
BRANCH  14  15
ATOM     15  C   UNL     1       6.680   4.801  14.457  0.00  0.00    +0.000 A 
ATOM     16  C   UNL     1       5.574   3.988  14.177  0.00  0.00    +0.000 A 
ATOM     17  C   UNL     1       5.420   3.410  12.916  0.00  0.00    +0.000 A 
ATOM     18  C   UNL     1       6.366   3.644  11.920  0.00  0.00    +0.000 A 
ATOM     19  C   UNL     1       7.468   4.452  12.185  0.00  0.00    +0.000 A 
ATOM     20  C   UNL     1       7.626   5.027  13.447  0.00  0.00    +0.000 A 
ENDBRANCH  14  15
ENDBRANCH   1  14
TORSDOF 8
ENDMDL
MODEL 2
REMARK VINA RESULT:      -6.3      0.387      1.209
REMARK  Name = 
REMARK  9 active torsions:
REMARK  status: ('A' for Active; 'I' for Inactive)
REMARK    1  A    between atoms: C_1  and  N_2
REMARK    2  A    between atoms: N_2  and  C_8
REMARK    3  A    between atoms: C_3  and  C_5
REMARK    4  A    between atoms: C_5  and  C_6
REMARK    5  A    between atoms: C_6  and  S_7
REMARK    6  A    between atoms: C_8  and  C_9
REMARK    7  A    between atoms: C_8  and  C_16
REMARK    8  A    between atoms: C_9  and  C_10
REMARK    9  A    between atoms: C_16  and  O_18
REMARK                            x       y       z     vdW  Elec       q    Type
REMARK                         _______ _______ _______ _____ _____    ______ ____
ROOT
ATOM      1  C   UNL     1       6.047   4.718  16.886  0.00  0.00    +0.000 C 
ENDROOT
BRANCH   1   3
ATOM      2  C   UNL     1       4.459   6.685  17.300  0.00  0.00    +0.000 C 
ATOM      3  N   UNL     1       4.687   5.237  17.283  0.00  0.00    +0.000 N 
ATOM      4  C   UNL     1       3.680   4.290  17.508  0.00  0.00    +0.000 C 
ATOM      5  O   UNL     1       3.906   3.083  17.422  0.00  0.00    +0.000 OA
BRANCH   4   6
ATOM      6  C   UNL     1       2.283   4.780  17.865  0.00  0.00    +0.000 C 
BRANCH   6   7
ATOM      7  C   UNL     1       2.061   4.697  19.373  0.00  0.00    +0.000 C 
BRANCH   7   8
ATOM      8  S   UNL     1       1.083   3.223  19.803  0.00  0.00    +0.000 S 
ATOM      9  H   UNL     1       1.736   2.357  19.015  0.00  0.00    +0.000 HD
ENDBRANCH   7   8
ENDBRANCH   6   7
ENDBRANCH   4   6
ENDBRANCH   1   3
BRANCH   1  10
ATOM     10  C   UNL     1       7.051   4.578  18.054  0.00  0.00    +0.000 C 
ATOM     11  O   UNL     1       6.815   4.912  19.202  0.00  0.00    +0.000 OA
BRANCH  10  12
ATOM     12  O   UNL     1       8.247   4.061  17.697  0.00  0.00    +0.000 OA
ATOM     13  H   UNL     1       8.940   4.325  18.330  0.00  0.00    +0.000 HD
ENDBRANCH  10  12
ENDBRANCH   1  10
BRANCH   1  14
ATOM     14  C   UNL     1       6.738   5.515  15.760  0.00  0.00    +0.000 C 
BRANCH  14  15
ATOM     15  C   UNL     1       6.643   4.896  14.386  0.00  0.00    +0.000 A 
ATOM     16  C   UNL     1       7.618   5.163  13.416  0.00  0.00    +0.000 A 
ATOM     17  C   UNL     1       7.572   4.532  12.172  0.00  0.00    +0.000 A 
ATOM     18  C   UNL     1       6.554   3.625  11.885  0.00  0.00    +0.000 A 
ATOM     19  C   UNL     1       5.580   3.350  12.842  0.00  0.00    +0.000 A 
ATOM     20  C   UNL     1       5.623   3.982  14.085  0.00  0.00    +0.000 A 
ENDBRANCH  14  15
ENDBRANCH   1  14
TORSDOF 8
ENDMDL
MODEL 3
REMARK VINA RESULT:      -6.2      2.720      5.142
REMARK  Name = 
REMARK  9 active torsions:
REMARK  status: ('A' for Active; 'I' for Inactive)
REMARK    1  A    between atoms: C_1  and  N_2
REMARK    2  A    between atoms: N_2  and  C_8
REMARK    3  A    between atoms: C_3  and  C_5
REMARK    4  A    between atoms: C_5  and  C_6
REMARK    5  A    between atoms: C_6  and  S_7
REMARK    6  A    between atoms: C_8  and  C_9
REMARK    7  A    between atoms: C_8  and  C_16
REMARK    8  A    between atoms: C_9  and  C_10
REMARK    9  A    between atoms: C_16  and  O_18
REMARK                            x       y       z     vdW  Elec       q    Type
REMARK                         _______ _______ _______ _____ _____    ______ ____
ROOT
ATOM      1  C   UNL     1       6.210   5.877  18.243  0.00  0.00    +0.000 C 
ENDROOT
BRANCH   1   3
ATOM      2  C   UNL     1       5.136   6.657  16.051  0.00  0.00    +0.000 C 
ATOM      3  N   UNL     1       6.105   5.798  16.740  0.00  0.00    +0.000 N 
ATOM      4  C   UNL     1       7.025   4.977  16.075  0.00  0.00    +0.000 C 
ATOM      5  O   UNL     1       7.860   4.320  16.695  0.00  0.00    +0.000 OA
BRANCH   4   6
ATOM      6  C   UNL     1       6.977   4.910  14.554  0.00  0.00    +0.000 C 
BRANCH   6   7
ATOM      7  C   UNL     1       6.066   3.771  14.102  0.00  0.00    +0.000 C 
BRANCH   7   8
ATOM      8  S   UNL     1       6.269   3.448  12.322  0.00  0.00    +0.000 S 
ATOM      9  H   UNL     1       5.788   4.620  11.886  0.00  0.00    +0.000 HD
ENDBRANCH   7   8
ENDBRANCH   6   7
ENDBRANCH   4   6
ENDBRANCH   1   3
BRANCH   1  10
ATOM     10  C   UNL     1       7.633   6.162  18.776  0.00  0.00    +0.000 C 
ATOM     11  O   UNL     1       8.245   7.196  18.574  0.00  0.00    +0.000 OA
BRANCH  10  12
ATOM     12  O   UNL     1       8.171   5.147  19.487  0.00  0.00    +0.000 OA
ATOM     13  H   UNL     1       8.358   4.383  18.912  0.00  0.00    +0.000 HD
ENDBRANCH  10  12
ENDBRANCH   1  10
BRANCH   1  14
ATOM     14  C   UNL     1       5.659   4.647  18.993  0.00  0.00    +0.000 C 
BRANCH  14  15
ATOM     15  C   UNL     1       4.232   4.280  18.662  0.00  0.00    +0.000 A 
ATOM     16  C   UNL     1       3.177   5.127  19.026  0.00  0.00    +0.000 A 
ATOM     17  C   UNL     1       1.865   4.826  18.654  0.00  0.00    +0.000 A 
ATOM     18  C   UNL     1       1.595   3.680  17.909  0.00  0.00    +0.000 A 
ATOM     19  C   UNL     1       2.636   2.832  17.539  0.00  0.00    +0.000 A 
ATOM     20  C   UNL     1       3.947   3.129  17.913  0.00  0.00    +0.000 A 
ENDBRANCH  14  15
ENDBRANCH   1  14
TORSDOF 8
ENDMDL
MODEL 4
REMARK VINA RESULT:      -6.2      2.720      5.176
REMARK  Name = 
REMARK  9 active torsions:
REMARK  status: ('A' for Active; 'I' for Inactive)
REMARK    1  A    between atoms: C_1  and  N_2
REMARK    2  A    between atoms: N_2  and  C_8
REMARK    3  A    between atoms: C_3  and  C_5
REMARK    4  A    between atoms: C_5  and  C_6
REMARK    5  A    between atoms: C_6  and  S_7
REMARK    6  A    between atoms: C_8  and  C_9
REMARK    7  A    between atoms: C_8  and  C_16
REMARK    8  A    between atoms: C_9  and  C_10
REMARK    9  A    between atoms: C_16  and  O_18
REMARK                            x       y       z     vdW  Elec       q    Type
REMARK                         _______ _______ _______ _____ _____    ______ ____
ROOT
ATOM      1  C   UNL     1       6.201   5.889  18.270  0.00  0.00    +0.000 C 
ENDROOT
BRANCH   1   3
ATOM      2  C   UNL     1       5.147   6.668  16.069  0.00  0.00    +0.000 C 
ATOM      3  N   UNL     1       6.106   5.806  16.766  0.00  0.00    +0.000 N 
ATOM      4  C   UNL     1       7.028   4.980  16.110  0.00  0.00    +0.000 C 
ATOM      5  O   UNL     1       7.855   4.321  16.738  0.00  0.00    +0.000 OA
BRANCH   4   6
ATOM      6  C   UNL     1       6.991   4.909  14.590  0.00  0.00    +0.000 C 
BRANCH   6   7
ATOM      7  C   UNL     1       6.087   3.765  14.134  0.00  0.00    +0.000 C 
BRANCH   7   8
ATOM      8  S   UNL     1       6.257   3.481  12.344  0.00  0.00    +0.000 S 
ATOM      9  H   UNL     1       7.206   4.400  12.120  0.00  0.00    +0.000 HD
ENDBRANCH   7   8
ENDBRANCH   6   7
ENDBRANCH   4   6
ENDBRANCH   1   3
BRANCH   1  10
ATOM     10  C   UNL     1       7.622   6.163  18.814  0.00  0.00    +0.000 C 
ATOM     11  O   UNL     1       8.249   7.187  18.603  0.00  0.00    +0.000 OA
BRANCH  10  12
ATOM     12  O   UNL     1       8.141   5.152  19.543  0.00  0.00    +0.000 OA
ATOM     13  H   UNL     1       8.779   5.490  20.197  0.00  0.00    +0.000 HD
ENDBRANCH  10  12
ENDBRANCH   1  10
BRANCH   1  14
ATOM     14  C   UNL     1       5.634   4.666  19.020  0.00  0.00    +0.000 C 
BRANCH  14  15
ATOM     15  C   UNL     1       4.225   4.277  18.639  0.00  0.00    +0.000 A 
ATOM     16  C   UNL     1       3.983   3.110  17.904  0.00  0.00    +0.000 A 
ATOM     17  C   UNL     1       2.677   2.711  17.616  0.00  0.00    +0.000 A 
ATOM     18  C   UNL     1       1.599   3.470  18.067  0.00  0.00    +0.000 A 
ATOM     19  C   UNL     1       1.827   4.631  18.801  0.00  0.00    +0.000 A 
ATOM     20  C   UNL     1       3.132   5.034  19.086  0.00  0.00    +0.000 A 
ENDBRANCH  14  15
ENDBRANCH   1  14
TORSDOF 8
ENDMDL
MODEL 5
REMARK VINA RESULT:      -6.1      3.371      6.285
REMARK  Name = 
REMARK  9 active torsions:
REMARK  status: ('A' for Active; 'I' for Inactive)
REMARK    1  A    between atoms: C_1  and  N_2
REMARK    2  A    between atoms: N_2  and  C_8
REMARK    3  A    between atoms: C_3  and  C_5
REMARK    4  A    between atoms: C_5  and  C_6
REMARK    5  A    between atoms: C_6  and  S_7
REMARK    6  A    between atoms: C_8  and  C_9
REMARK    7  A    between atoms: C_8  and  C_16
REMARK    8  A    between atoms: C_9  and  C_10
REMARK    9  A    between atoms: C_16  and  O_18
REMARK                            x       y       z     vdW  Elec       q    Type
REMARK                         _______ _______ _______ _____ _____    ______ ____
ROOT
ATOM      1  C   UNL     1       4.057   3.873  19.035  0.00  0.00    +0.000 C 
ENDROOT
BRANCH   1   3
ATOM      2  C   UNL     1       5.037   4.191  16.690  0.00  0.00    +0.000 C 
ATOM      3  N   UNL     1       5.178   4.342  18.141  0.00  0.00    +0.000 N 
ATOM      4  C   UNL     1       6.252   5.002  18.753  0.00  0.00    +0.000 C 
ATOM      5  O   UNL     1       6.296   5.158  19.972  0.00  0.00    +0.000 OA
BRANCH   4   6
ATOM      6  C   UNL     1       7.379   5.530  17.875  0.00  0.00    +0.000 C 
BRANCH   6   7
ATOM      7  C   UNL     1       8.066   6.715  18.550  0.00  0.00    +0.000 C 
BRANCH   7   8
ATOM      8  S   UNL     1       7.750   8.254  17.631  0.00  0.00    +0.000 S 
ATOM      9  H   UNL     1       8.409   9.078  18.458  0.00  0.00    +0.000 HD
ENDBRANCH   7   8
ENDBRANCH   6   7
ENDBRANCH   4   6
ENDBRANCH   1   3
BRANCH   1  10
ATOM     10  C   UNL     1       3.960   2.339  19.199  0.00  0.00    +0.000 C 
ATOM     11  O   UNL     1       3.031   1.665  18.790  0.00  0.00    +0.000 OA
BRANCH  10  12
ATOM     12  O   UNL     1       4.999   1.786  19.862  0.00  0.00    +0.000 OA
ATOM     13  H   UNL     1       5.454   2.453  20.408  0.00  0.00    +0.000 HD
ENDBRANCH  10  12
ENDBRANCH   1  10
BRANCH   1  14
ATOM     14  C   UNL     1       2.659   4.397  18.645  0.00  0.00    +0.000 C 
BRANCH  14  15
ATOM     15  C   UNL     1       2.403   5.848  18.978  0.00  0.00    +0.000 A 
ATOM     16  C   UNL     1       2.504   6.834  17.988  0.00  0.00    +0.000 A 
ATOM     17  C   UNL     1       2.194   8.164  18.277  0.00  0.00    +0.000 A 
ATOM     18  C   UNL     1       1.775   8.522  19.557  0.00  0.00    +0.000 A 
ATOM     19  C   UNL     1       1.669   7.551  20.549  0.00  0.00    +0.000 A 
ATOM     20  C   UNL     1       1.982   6.221  20.263  0.00  0.00    +0.000 A 
ENDBRANCH  14  15
ENDBRANCH   1  14
TORSDOF 8
ENDMDL
MODEL 6
REMARK VINA RESULT:      -6.0      1.251      1.274
REMARK  Name = 
REMARK  9 active torsions:
REMARK  status: ('A' for Active; 'I' for Inactive)
REMARK    1  A    between atoms: C_1  and  N_2
REMARK    2  A    between atoms: N_2  and  C_8
REMARK    3  A    between atoms: C_3  and  C_5
REMARK    4  A    between atoms: C_5  and  C_6
REMARK    5  A    between atoms: C_6  and  S_7
REMARK    6  A    between atoms: C_8  and  C_9
REMARK    7  A    between atoms: C_8  and  C_16
REMARK    8  A    between atoms: C_9  and  C_10
REMARK    9  A    between atoms: C_16  and  O_18
REMARK                            x       y       z     vdW  Elec       q    Type
REMARK                         _______ _______ _______ _____ _____    ______ ____
ROOT
ATOM      1  C   UNL     1       5.954   4.524  16.969  0.00  0.00    +0.000 C 
ENDROOT
BRANCH   1   3
ATOM      2  C   UNL     1       5.237   5.383  19.274  0.00  0.00    +0.000 C 
ATOM      3  N   UNL     1       4.951   4.557  18.097  0.00  0.00    +0.000 N 
ATOM      4  C   UNL     1       3.744   3.874  17.901  0.00  0.00    +0.000 C 
ATOM      5  O   UNL     1       3.527   3.243  16.868  0.00  0.00    +0.000 OA
BRANCH   4   6
ATOM      6  C   UNL     1       2.691   3.925  19.000  0.00  0.00    +0.000 C 
BRANCH   6   7
ATOM      7  C   UNL     1       2.641   2.596  19.749  0.00  0.00    +0.000 C 
BRANCH   7   8
ATOM      8  S   UNL     1       2.039   2.834  21.450  0.00  0.00    +0.000 S 
ATOM      9  H   UNL     1       1.825   4.154  21.366  0.00  0.00    +0.000 HD
ENDBRANCH   7   8
ENDBRANCH   6   7
ENDBRANCH   4   6
ENDBRANCH   1   3
BRANCH   1  10
ATOM     10  C   UNL     1       7.376   4.991  17.356  0.00  0.00    +0.000 C 
ATOM     11  O   UNL     1       7.745   6.152  17.332  0.00  0.00    +0.000 OA
BRANCH  10  12
ATOM     12  O   UNL     1       8.210   3.990  17.714  0.00  0.00    +0.000 OA
ATOM     13  H   UNL     1       8.545   4.126  18.618  0.00  0.00    +0.000 HD
ENDBRANCH  10  12
ENDBRANCH   1  10
BRANCH   1  14
ATOM     14  C   UNL     1       5.527   5.299  15.705  0.00  0.00    +0.000 C 
BRANCH  14  15
ATOM     15  C   UNL     1       6.080   4.760  14.407  0.00  0.00    +0.000 A 
ATOM     16  C   UNL     1       5.375   3.791  13.681  0.00  0.00    +0.000 A 
ATOM     17  C   UNL     1       5.848   3.348  12.445  0.00  0.00    +0.000 A 
ATOM     18  C   UNL     1       7.026   3.873  11.918  0.00  0.00    +0.000 A 
ATOM     19  C   UNL     1       7.734   4.838  12.628  0.00  0.00    +0.000 A 
ATOM     20  C   UNL     1       7.265   5.280  13.867  0.00  0.00    +0.000 A 
ENDBRANCH  14  15
ENDBRANCH   1  14
TORSDOF 8
ENDMDL
MODEL 7
REMARK VINA RESULT:      -6.0      3.126      6.230
REMARK  Name = 
REMARK  9 active torsions:
REMARK  status: ('A' for Active; 'I' for Inactive)
REMARK    1  A    between atoms: C_1  and  N_2
REMARK    2  A    between atoms: N_2  and  C_8
REMARK    3  A    between atoms: C_3  and  C_5
REMARK    4  A    between atoms: C_5  and  C_6
REMARK    5  A    between atoms: C_6  and  S_7
REMARK    6  A    between atoms: C_8  and  C_9
REMARK    7  A    between atoms: C_8  and  C_16
REMARK    8  A    between atoms: C_9  and  C_10
REMARK    9  A    between atoms: C_16  and  O_18
REMARK                            x       y       z     vdW  Elec       q    Type
REMARK                         _______ _______ _______ _____ _____    ______ ____
ROOT
ATOM      1  C   UNL     1       3.799   3.715  18.226  0.00  0.00    +0.000 C 
ENDROOT
BRANCH   1   3
ATOM      2  C   UNL     1       5.373   3.974  16.221  0.00  0.00    +0.000 C 
ATOM      3  N   UNL     1       5.148   4.091  17.665  0.00  0.00    +0.000 N 
ATOM      4  C   UNL     1       6.081   4.640  18.554  0.00  0.00    +0.000 C 
ATOM      5  O   UNL     1       5.823   4.774  19.749  0.00  0.00    +0.000 OA
BRANCH   4   6
ATOM      6  C   UNL     1       7.437   5.075  18.013  0.00  0.00    +0.000 C 
BRANCH   6   7
ATOM      7  C   UNL     1       7.875   6.382  18.667  0.00  0.00    +0.000 C 
BRANCH   7   8
ATOM      8  S   UNL     1       7.634   7.786  17.534  0.00  0.00    +0.000 S 
ATOM      9  H   UNL     1       8.782   8.421  17.811  0.00  0.00    +0.000 HD
ENDBRANCH   7   8
ENDBRANCH   6   7
ENDBRANCH   4   6
ENDBRANCH   1   3
BRANCH   1  10
ATOM     10  C   UNL     1       3.412   2.229  18.037  0.00  0.00    +0.000 C 
ATOM     11  O   UNL     1       2.378   1.853  17.515  0.00  0.00    +0.000 OA
BRANCH  10  12
ATOM     12  O   UNL     1       4.321   1.355  18.522  0.00  0.00    +0.000 OA
ATOM     13  H   UNL     1       3.989   0.927  19.332  0.00  0.00    +0.000 HD
ENDBRANCH  10  12
ENDBRANCH   1  10
BRANCH   1  14
ATOM     14  C   UNL     1       2.626   4.578  17.718  0.00  0.00    +0.000 C 
BRANCH  14  15
ATOM     15  C   UNL     1       2.280   5.764  18.587  0.00  0.00    +0.000 A 
ATOM     16  C   UNL     1       1.955   5.585  19.938  0.00  0.00    +0.000 A 
ATOM     17  C   UNL     1       1.709   6.686  20.760  0.00  0.00    +0.000 A 
ATOM     18  C   UNL     1       1.790   7.977  20.243  0.00  0.00    +0.000 A 
ATOM     19  C   UNL     1       2.114   8.168  18.902  0.00  0.00    +0.000 A 
ATOM     20  C   UNL     1       2.357   7.068  18.077  0.00  0.00    +0.000 A 
ENDBRANCH  14  15
ENDBRANCH   1  14
TORSDOF 8
ENDMDL
MODEL 8
REMARK VINA RESULT:      -6.0      1.063      1.639
REMARK  Name = 
REMARK  9 active torsions:
REMARK  status: ('A' for Active; 'I' for Inactive)
REMARK    1  A    between atoms: C_1  and  N_2
REMARK    2  A    between atoms: N_2  and  C_8
REMARK    3  A    between atoms: C_3  and  C_5
REMARK    4  A    between atoms: C_5  and  C_6
REMARK    5  A    between atoms: C_6  and  S_7
REMARK    6  A    between atoms: C_8  and  C_9
REMARK    7  A    between atoms: C_8  and  C_16
REMARK    8  A    between atoms: C_9  and  C_10
REMARK    9  A    between atoms: C_16  and  O_18
REMARK                            x       y       z     vdW  Elec       q    Type
REMARK                         _______ _______ _______ _____ _____    ______ ____
ROOT
ATOM      1  C   UNL     1       5.122   4.412  17.141  0.00  0.00    +0.000 C 
ENDROOT
BRANCH   1   3
ATOM      2  C   UNL     1       3.057   5.769  17.820  0.00  0.00    +0.000 C 
ATOM      3  N   UNL     1       3.709   4.464  17.668  0.00  0.00    +0.000 N 
ATOM      4  C   UNL     1       3.058   3.242  17.879  0.00  0.00    +0.000 C 
ATOM      5  O   UNL     1       3.629   2.171  17.679  0.00  0.00    +0.000 OA
BRANCH   4   6
ATOM      6  C   UNL     1       1.616   3.258  18.367  0.00  0.00    +0.000 C 
BRANCH   6   7
ATOM      7  C   UNL     1       1.508   2.578  19.730  0.00  0.00    +0.000 C 
BRANCH   7   8
ATOM      8  S   UNL     1       2.133   3.667  21.047  0.00  0.00    +0.000 S 
ATOM      9  H   UNL     1       0.951   4.184  21.409  0.00  0.00    +0.000 HD
ENDBRANCH   7   8
ENDBRANCH   6   7
ENDBRANCH   4   6
ENDBRANCH   1   3
BRANCH   1  10
ATOM     10  C   UNL     1       6.219   4.447  18.230  0.00  0.00    +0.000 C 
ATOM     11  O   UNL     1       6.010   4.701  19.403  0.00  0.00    +0.000 OA
BRANCH  10  12
ATOM     12  O   UNL     1       7.463   4.187  17.771  0.00  0.00    +0.000 OA
ATOM     13  H   UNL     1       7.976   5.010  17.679  0.00  0.00    +0.000 HD
ENDBRANCH  10  12
ENDBRANCH   1  10
BRANCH   1  14
ATOM     14  C   UNL     1       5.459   5.494  16.093  0.00  0.00    +0.000 C 
BRANCH  14  15
ATOM     15  C   UNL     1       5.923   4.967  14.756  0.00  0.00    +0.000 A 
ATOM     16  C   UNL     1       7.181   5.320  14.250  0.00  0.00    +0.000 A 
ATOM     17  C   UNL     1       7.641   4.775  13.050  0.00  0.00    +0.000 A 
ATOM     18  C   UNL     1       6.852   3.867  12.347  0.00  0.00    +0.000 A 
ATOM     19  C   UNL     1       5.601   3.507  12.841  0.00  0.00    +0.000 A 
ATOM     20  C   UNL     1       5.138   4.054  14.038  0.00  0.00    +0.000 A 
ENDBRANCH  14  15
ENDBRANCH   1  14
TORSDOF 8
ENDMDL
MODEL 9
REMARK VINA RESULT:      -6.0      0.963      1.631
REMARK  Name = 
REMARK  9 active torsions:
REMARK  status: ('A' for Active; 'I' for Inactive)
REMARK    1  A    between atoms: C_1  and  N_2
REMARK    2  A    between atoms: N_2  and  C_8
REMARK    3  A    between atoms: C_3  and  C_5
REMARK    4  A    between atoms: C_5  and  C_6
REMARK    5  A    between atoms: C_6  and  S_7
REMARK    6  A    between atoms: C_8  and  C_9
REMARK    7  A    between atoms: C_8  and  C_16
REMARK    8  A    between atoms: C_9  and  C_10
REMARK    9  A    between atoms: C_16  and  O_18
REMARK                            x       y       z     vdW  Elec       q    Type
REMARK                         _______ _______ _______ _____ _____    ______ ____
ROOT
ATOM      1  C   UNL     1       5.565   4.505  16.654  0.00  0.00    +0.000 C 
ENDROOT
BRANCH   1   3
ATOM      2  C   UNL     1       4.005   6.186  17.796  0.00  0.00    +0.000 C 
ATOM      3  N   UNL     1       4.365   4.791  17.523  0.00  0.00    +0.000 N 
ATOM      4  C   UNL     1       3.594   3.696  17.933  0.00  0.00    +0.000 C 
ATOM      5  O   UNL     1       3.905   2.545  17.627  0.00  0.00    +0.000 OA
BRANCH   4   6
ATOM      6  C   UNL     1       2.350   3.952  18.772  0.00  0.00    +0.000 C 
BRANCH   6   7
ATOM      7  C   UNL     1       2.683   3.854  20.259  0.00  0.00    +0.000 C 
BRANCH   7   8
ATOM      8  S   UNL     1       1.446   2.846  21.135  0.00  0.00    +0.000 S 
ATOM      9  H   UNL     1       0.424   3.078  20.300  0.00  0.00    +0.000 HD
ENDBRANCH   7   8
ENDBRANCH   6   7
ENDBRANCH   4   6
ENDBRANCH   1   3
BRANCH   1  10
ATOM     10  C   UNL     1       6.906   4.404  17.417  0.00  0.00    +0.000 C 
ATOM     11  O   UNL     1       8.001   4.445  16.883  0.00  0.00    +0.000 OA
BRANCH  10  12
ATOM     12  O   UNL     1       6.773   4.245  18.752  0.00  0.00    +0.000 OA
ATOM     13  H   UNL     1       7.343   3.522  19.071  0.00  0.00    +0.000 HD
ENDBRANCH  10  12
ENDBRANCH   1  10
BRANCH   1  14
ATOM     14  C   UNL     1       5.759   5.487  15.480  0.00  0.00    +0.000 C 
BRANCH  14  15
ATOM     15  C   UNL     1       6.097   4.844  14.156  0.00  0.00    +0.000 A 
ATOM     16  C   UNL     1       7.300   5.146  13.505  0.00  0.00    +0.000 A 
ATOM     17  C   UNL     1       7.648   4.496  12.319  0.00  0.00    +0.000 A 
ATOM     18  C   UNL     1       6.800   3.534  11.776  0.00  0.00    +0.000 A 
ATOM     19  C   UNL     1       5.603   3.223  12.415  0.00  0.00    +0.000 A 
ATOM     20  C   UNL     1       5.252   3.875  13.598  0.00  0.00    +0.000 A 
ENDBRANCH  14  15
ENDBRANCH   1  14
TORSDOF 8
ENDMDL
