MODEL 1
REMARK VINA RESULT:      -7.6      0.000      0.000
REMARK  Name = 
REMARK  6 active torsions:
REMARK  status: ('A' for Active; 'I' for Inactive)
REMARK    1  A    between atoms: C_2  and  O_3
REMARK    2  A    between atoms: C_2  and  C_4
REMARK    3  A    between atoms: C_6  and  C_7
REMARK    4  A    between atoms: C_7  and  C_8
REMARK    5  A    between atoms: C_8  and  N_9
REMARK    6  A    between atoms: C_18  and  O_19
REMARK                            x       y       z     vdW  Elec       q    Type
REMARK                         _______ _______ _______ _____ _____    ______ ____
ROOT
ATOM      1  C   UNL     1       4.089   6.576  18.214  0.00  0.00    +0.000 C 
ENDROOT
BRANCH   1   2
ATOM      2  N   UNL     1       4.304   5.650  19.360  0.00  0.00    +0.000 N 
ATOM      3  C   UNL     1       5.466   4.893  19.344  0.00  0.00    +0.000 A 
ATOM      4  N   UNL     1       5.163   3.654  19.010  0.00  0.00    +0.000 NA
ATOM      5  C   UNL     1       3.797   3.551  19.210  0.00  0.00    +0.000 A 
ATOM      6  C   UNL     1       3.370   4.724  19.798  0.00  0.00    +0.000 A 
ATOM      7  N   UNL     1       2.532   4.870  20.860  0.00  0.00    +0.000 N 
ATOM      8  C   UNL     1       2.160   3.759  21.613  0.00  0.00    +0.000 C 
ATOM      9  N   UNL     1       1.858   2.548  21.295  0.00  0.00    +0.000 NA
ATOM     10  C   UNL     1       1.729   2.233  19.873  0.00  0.00    +0.000 C 
ATOM     11  C   UNL     1       3.031   2.281  19.044  0.00  0.00    +0.000 C 
ATOM     12  H   UNL     1       2.690   5.692  21.441  0.00  0.00    +0.000 HD
BRANCH  11  13
ATOM     13  O   UNL     1       2.647   2.120  17.659  0.00  0.00    +0.000 OA
ATOM     14  H   UNL     1       2.985   2.905  17.191  0.00  0.00    +0.000 HD
ENDBRANCH  11  13
ENDBRANCH   1   2
BRANCH   1  15
ATOM     15  C   UNL     1       2.582   6.874  17.975  0.00  0.00    +0.000 C 
BRANCH  15  18
ATOM     16  C   UNL     1       1.080   9.284  20.604  0.00  0.00    +0.000 A 
ATOM     17  C   UNL     1       1.612   8.110  20.014  0.00  0.00    +0.000 A 
ATOM     18  C   UNL     1       1.907   8.052  18.648  0.00  0.00    +0.000 A 
ATOM     19  C   UNL     1       1.693   9.210  17.882  0.00  0.00    +0.000 A 
ATOM     20  C   UNL     1       1.165  10.372  18.449  0.00  0.00    +0.000 A 
ATOM     21  C   UNL     1       0.847  10.411  19.807  0.00  0.00    +0.000 A 
ATOM     22 CL   UNL     1       0.171  11.884  20.405  0.00  0.00    +0.000 Cl
BRANCH  16  24
ATOM     23  O   UNL     1       1.651   9.454  22.893  0.00  0.00    +0.000 OA
ATOM     24  C   UNL     1       0.792   9.207  22.062  0.00  0.00    +0.000 C 
BRANCH  24  25
ATOM     25  O   UNL     1      -0.485   8.950  22.407  0.00  0.00    +0.000 OA
ATOM     26  H   UNL     1      -0.985   8.383  21.789  0.00  0.00    +0.000 HD
ENDBRANCH  24  25
ENDBRANCH  16  24
ENDBRANCH  15  18
ENDBRANCH   1  15
TORSDOF 6
ENDMDL
MODEL 2
REMARK VINA RESULT:      -7.5      2.102      3.509
REMARK  Name = 
REMARK  6 active torsions:
REMARK  status: ('A' for Active; 'I' for Inactive)
REMARK    1  A    between atoms: C_2  and  O_3
REMARK    2  A    between atoms: C_2  and  C_4
REMARK    3  A    between atoms: C_6  and  C_7
REMARK    4  A    between atoms: C_7  and  C_8
REMARK    5  A    between atoms: C_8  and  N_9
REMARK    6  A    between atoms: C_18  and  O_19
REMARK                            x       y       z     vdW  Elec       q    Type
REMARK                         _______ _______ _______ _____ _____    ______ ____
ROOT
ATOM      1  C   UNL     1       2.288   5.633  18.389  0.00  0.00    +0.000 C 
ENDROOT
BRANCH   1   2
ATOM      2  N   UNL     1       3.207   4.787  17.578  0.00  0.00    +0.000 N 
ATOM      3  C   UNL     1       3.371   3.472  17.987  0.00  0.00    +0.000 A 
ATOM      4  N   UNL     1       4.542   3.351  18.581  0.00  0.00    +0.000 NA
ATOM      5  C   UNL     1       5.260   4.469  18.190  0.00  0.00    +0.000 A 
ATOM      6  C   UNL     1       4.507   5.144  17.252  0.00  0.00    +0.000 A 
ATOM      7  N   UNL     1       4.921   5.664  16.065  0.00  0.00    +0.000 N 
ATOM      8  C   UNL     1       6.193   5.370  15.580  0.00  0.00    +0.000 C 
ATOM      9  N   UNL     1       7.342   5.255  16.151  0.00  0.00    +0.000 NA
ATOM     10  C   UNL     1       7.436   5.620  17.563  0.00  0.00    +0.000 C 
ATOM     11  C   UNL     1       6.688   4.702  18.556  0.00  0.00    +0.000 C 
ATOM     12  H   UNL     1       4.224   5.688  15.322  0.00  0.00    +0.000 HD
BRANCH  11  13
ATOM     13  O   UNL     1       6.762   5.343  19.850  0.00  0.00    +0.000 OA
ATOM     14  H   UNL     1       6.539   4.658  20.505  0.00  0.00    +0.000 HD
ENDBRANCH  11  13
ENDBRANCH   1   2
BRANCH   1  15
ATOM     15  C   UNL     1       2.792   7.100  18.508  0.00  0.00    +0.000 C 
BRANCH  15  18
ATOM     16  C   UNL     1       0.731   9.288  20.946  0.00  0.00    +0.000 A 
ATOM     17  C   UNL     1       1.466   8.194  20.425  0.00  0.00    +0.000 A 
ATOM     18  C   UNL     1       1.906   8.179  19.097  0.00  0.00    +0.000 A 
ATOM     19  C   UNL     1       1.625   9.303  18.301  0.00  0.00    +0.000 A 
ATOM     20  C   UNL     1       0.897  10.385  18.800  0.00  0.00    +0.000 A 
ATOM     21  C   UNL     1       0.439  10.378  20.118  0.00  0.00    +0.000 A 
ATOM     22 CL   UNL     1      -0.479  11.751  20.629  0.00  0.00    +0.000 Cl
BRANCH  16  24
ATOM     23  O   UNL     1       0.907   9.747  23.260  0.00  0.00    +0.000 OA
ATOM     24  C   UNL     1       0.307   9.170  22.368  0.00  0.00    +0.000 C 
BRANCH  24  25
ATOM     25  O   UNL     1      -0.826   8.478  22.599  0.00  0.00    +0.000 OA
ATOM     26  H   UNL     1      -0.872   7.592  22.189  0.00  0.00    +0.000 HD
ENDBRANCH  24  25
ENDBRANCH  16  24
ENDBRANCH  15  18
ENDBRANCH   1  15
TORSDOF 6
ENDMDL
MODEL 3
REMARK VINA RESULT:      -7.3      1.671      2.146
REMARK  Name = 
REMARK  6 active torsions:
REMARK  status: ('A' for Active; 'I' for Inactive)
REMARK    1  A    between atoms: C_2  and  O_3
REMARK    2  A    between atoms: C_2  and  C_4
REMARK    3  A    between atoms: C_6  and  C_7
REMARK    4  A    between atoms: C_7  and  C_8
REMARK    5  A    between atoms: C_8  and  N_9
REMARK    6  A    between atoms: C_18  and  O_19
REMARK                            x       y       z     vdW  Elec       q    Type
REMARK                         _______ _______ _______ _____ _____    ______ ____
ROOT
ATOM      1  C   UNL     1       3.707   5.242  17.220  0.00  0.00    +0.000 C 
ENDROOT
BRANCH   1   2
ATOM      2  N   UNL     1       3.556   3.853  17.735  0.00  0.00    +0.000 N 
ATOM      3  C   UNL     1       2.589   3.064  17.130  0.00  0.00    +0.000 A 
ATOM      4  N   UNL     1       1.548   2.973  17.935  0.00  0.00    +0.000 NA
ATOM      5  C   UNL     1       2.020   3.360  19.178  0.00  0.00    +0.000 A 
ATOM      6  C   UNL     1       3.384   3.534  19.073  0.00  0.00    +0.000 A 
ATOM      7  N   UNL     1       4.352   3.094  19.923  0.00  0.00    +0.000 N 
ATOM      8  C   UNL     1       4.030   2.204  20.944  0.00  0.00    +0.000 C 
ATOM      9  N   UNL     1       3.020   2.110  21.738  0.00  0.00    +0.000 NA
ATOM     10  C   UNL     1       2.036   3.192  21.713  0.00  0.00    +0.000 C 
ATOM     11  C   UNL     1       1.197   3.320  20.423  0.00  0.00    +0.000 C 
ATOM     12  H   UNL     1       5.253   2.882  19.498  0.00  0.00    +0.000 HD
BRANCH  11  13
ATOM     13  O   UNL     1       0.436   4.543  20.543  0.00  0.00    +0.000 OA
ATOM     14  H   UNL     1       0.123   4.579  21.464  0.00  0.00    +0.000 HD
ENDBRANCH  11  13
ENDBRANCH   1   2
BRANCH   1  15
ATOM     15  C   UNL     1       3.894   6.276  18.367  0.00  0.00    +0.000 C 
BRANCH  15  18
ATOM     16  C   UNL     1       1.313   8.555  20.135  0.00  0.00    +0.000 A 
ATOM     17  C   UNL     1       2.220   7.491  19.900  0.00  0.00    +0.000 A 
ATOM     18  C   UNL     1       2.831   7.318  18.653  0.00  0.00    +0.000 A 
ATOM     19  C   UNL     1       2.545   8.256  17.648  0.00  0.00    +0.000 A 
ATOM     20  C   UNL     1       1.649   9.306  17.864  0.00  0.00    +0.000 A 
ATOM     21  C   UNL     1       1.023   9.454  19.102  0.00  0.00    +0.000 A 
ATOM     22 CL   UNL     1      -0.090  10.766  19.258  0.00  0.00    +0.000 Cl
BRANCH  16  24
ATOM     23  O   UNL     1       1.338   9.073  22.443  0.00  0.00    +0.000 OA
ATOM     24  C   UNL     1       0.718   8.614  21.497  0.00  0.00    +0.000 C 
BRANCH  24  25
ATOM     25  O   UNL     1      -0.569   8.229  21.606  0.00  0.00    +0.000 OA
ATOM     26  H   UNL     1      -0.725   7.265  21.591  0.00  0.00    +0.000 HD
ENDBRANCH  24  25
ENDBRANCH  16  24
ENDBRANCH  15  18
ENDBRANCH   1  15
TORSDOF 6
ENDMDL
MODEL 4
REMARK VINA RESULT:      -7.2      2.891      4.361
REMARK  Name = 
REMARK  6 active torsions:
REMARK  status: ('A' for Active; 'I' for Inactive)
REMARK    1  A    between atoms: C_2  and  O_3
REMARK    2  A    between atoms: C_2  and  C_4
REMARK    3  A    between atoms: C_6  and  C_7
REMARK    4  A    between atoms: C_7  and  C_8
REMARK    5  A    between atoms: C_8  and  N_9
REMARK    6  A    between atoms: C_18  and  O_19
REMARK                            x       y       z     vdW  Elec       q    Type
REMARK                         _______ _______ _______ _____ _____    ______ ____
ROOT
ATOM      1  C   UNL     1       2.646   7.155  18.773  0.00  0.00    +0.000 C 
ENDROOT
BRANCH   1   2
ATOM      2  N   UNL     1       3.156   6.070  17.890  0.00  0.00    +0.000 N 
ATOM      3  C   UNL     1       2.893   4.766  18.285  0.00  0.00    +0.000 A 
ATOM      4  N   UNL     1       3.996   4.239  18.781  0.00  0.00    +0.000 NA
ATOM      5  C   UNL     1       5.019   5.058  18.331  0.00  0.00    +0.000 A 
ATOM      6  C   UNL     1       4.470   5.973  17.457  0.00  0.00    +0.000 A 
ATOM      7  N   UNL     1       4.943   6.354  16.240  0.00  0.00    +0.000 N 
ATOM      8  C   UNL     1       5.998   5.659  15.653  0.00  0.00    +0.000 C 
ATOM      9  N   UNL     1       7.079   5.145  16.127  0.00  0.00    +0.000 NA
ATOM     10  C   UNL     1       7.401   5.418  17.527  0.00  0.00    +0.000 C 
ATOM     11  C   UNL     1       6.465   4.782  18.578  0.00  0.00    +0.000 C 
ATOM     12  H   UNL     1       4.240   6.633  15.557  0.00  0.00    +0.000 HD
BRANCH  11  13
ATOM     13  O   UNL     1       6.853   5.325  19.861  0.00  0.00    +0.000 OA
ATOM     14  H   UNL     1       6.672   4.628  20.516  0.00  0.00    +0.000 HD
ENDBRANCH  11  13
ENDBRANCH   1   2
BRANCH   1  15
ATOM     15  C   UNL     1       1.954   8.290  17.966  0.00  0.00    +0.000 C 
BRANCH  15  18
ATOM     16  C   UNL     1      -0.821  10.887  18.701  0.00  0.00    +0.000 A 
ATOM     17  C   UNL     1       0.080  10.056  17.989  0.00  0.00    +0.000 A 
ATOM     18  C   UNL     1       1.039   9.284  18.654  0.00  0.00    +0.000 A 
ATOM     19  C   UNL     1       1.058   9.331  20.057  0.00  0.00    +0.000 A 
ATOM     20  C   UNL     1       0.180  10.149  20.772  0.00  0.00    +0.000 A 
ATOM     21  C   UNL     1      -0.754  10.937  20.098  0.00  0.00    +0.000 A 
ATOM     22 CL   UNL     1      -1.773  11.937  21.071  0.00  0.00    +0.000 Cl
BRANCH  16  24
ATOM     23  O   UNL     1      -2.976  11.448  17.904  0.00  0.00    +0.000 OA
ATOM     24  C   UNL     1      -1.777  11.672  17.873  0.00  0.00    +0.000 C 
BRANCH  24  25
ATOM     25  O   UNL     1      -1.259  12.698  17.171  0.00  0.00    +0.000 OA
ATOM     26  H   UNL     1      -1.876  13.427  16.967  0.00  0.00    +0.000 HD
ENDBRANCH  24  25
ENDBRANCH  16  24
ENDBRANCH  15  18
ENDBRANCH   1  15
TORSDOF 6
ENDMDL
MODEL 5
REMARK VINA RESULT:      -7.2      2.253      3.668
REMARK  Name = 
REMARK  6 active torsions:
REMARK  status: ('A' for Active; 'I' for Inactive)
REMARK    1  A    between atoms: C_2  and  O_3
REMARK    2  A    between atoms: C_2  and  C_4
REMARK    3  A    between atoms: C_6  and  C_7
REMARK    4  A    between atoms: C_7  and  C_8
REMARK    5  A    between atoms: C_8  and  N_9
REMARK    6  A    between atoms: C_18  and  O_19
REMARK                            x       y       z     vdW  Elec       q    Type
REMARK                         _______ _______ _______ _____ _____    ______ ____
ROOT
ATOM      1  C   UNL     1       2.543   6.854  19.039  0.00  0.00    +0.000 C 
ENDROOT
BRANCH   1   2
ATOM      2  N   UNL     1       3.149   5.939  18.033  0.00  0.00    +0.000 N 
ATOM      3  C   UNL     1       3.046   4.578  18.282  0.00  0.00    +0.000 A 
ATOM      4  N   UNL     1       4.213   4.130  18.701  0.00  0.00    +0.000 NA
ATOM      5  C   UNL     1       5.125   5.106  18.332  0.00  0.00    +0.000 A 
ATOM      6  C   UNL     1       4.454   6.042  17.574  0.00  0.00    +0.000 A 
ATOM      7  N   UNL     1       4.848   6.607  16.401  0.00  0.00    +0.000 N 
ATOM      8  C   UNL     1       5.958   6.107  15.724  0.00  0.00    +0.000 C 
ATOM      9  N   UNL     1       7.103   5.672  16.123  0.00  0.00    +0.000 NA
ATOM     10  C   UNL     1       7.429   5.824  17.540  0.00  0.00    +0.000 C 
ATOM     11  C   UNL     1       6.599   4.973  18.526  0.00  0.00    +0.000 C 
ATOM     12  H   UNL     1       4.100   6.876  15.763  0.00  0.00    +0.000 HD
BRANCH  11  13
ATOM     13  O   UNL     1       6.957   5.412  19.856  0.00  0.00    +0.000 OA
ATOM     14  H   UNL     1       7.905   5.632  19.824  0.00  0.00    +0.000 HD
ENDBRANCH  11  13
ENDBRANCH   1   2
BRANCH   1  15
ATOM     15  C   UNL     1       2.227   8.255  18.442  0.00  0.00    +0.000 C 
BRANCH  15  18
ATOM     16  C   UNL     1      -0.117  10.107  20.903  0.00  0.00    +0.000 A 
ATOM     17  C   UNL     1       0.844   9.194  20.400  0.00  0.00    +0.000 A 
ATOM     18  C   UNL     1       1.134   9.122  19.033  0.00  0.00    +0.000 A 
ATOM     19  C   UNL     1       0.465  10.010  18.174  0.00  0.00    +0.000 A 
ATOM     20  C   UNL     1      -0.488  10.911  18.656  0.00  0.00    +0.000 A 
ATOM     21  C   UNL     1      -0.790  10.956  20.017  0.00  0.00    +0.000 A 
ATOM     22 CL   UNL     1      -2.005  12.083  20.507  0.00  0.00    +0.000 Cl
BRANCH  16  24
ATOM     23  O   UNL     1      -0.186  11.060  23.067  0.00  0.00    +0.000 OA
ATOM     24  C   UNL     1      -0.345  10.069  22.373  0.00  0.00    +0.000 C 
BRANCH  24  25
ATOM     25  O   UNL     1      -0.829   8.915  22.874  0.00  0.00    +0.000 OA
ATOM     26  H   UNL     1      -0.729   8.130  22.303  0.00  0.00    +0.000 HD
ENDBRANCH  24  25
ENDBRANCH  16  24
ENDBRANCH  15  18
ENDBRANCH   1  15
TORSDOF 6
ENDMDL
MODEL 6
REMARK VINA RESULT:      -7.2      4.432      6.651
REMARK  Name = 
REMARK  6 active torsions:
REMARK  status: ('A' for Active; 'I' for Inactive)
REMARK    1  A    between atoms: C_2  and  O_3
REMARK    2  A    between atoms: C_2  and  C_4
REMARK    3  A    between atoms: C_6  and  C_7
REMARK    4  A    between atoms: C_7  and  C_8
REMARK    5  A    between atoms: C_8  and  N_9
REMARK    6  A    between atoms: C_18  and  O_19
REMARK                            x       y       z     vdW  Elec       q    Type
REMARK                         _______ _______ _______ _____ _____    ______ ____
ROOT
ATOM      1  C   UNL     1       5.431   6.651  16.617  0.00  0.00    +0.000 C 
ENDROOT
BRANCH   1   2
ATOM      2  N   UNL     1       5.685   5.259  16.154  0.00  0.00    +0.000 N 
ATOM      3  C   UNL     1       6.717   4.570  16.775  0.00  0.00    +0.000 A 
ATOM      4  N   UNL     1       7.754   4.529  15.962  0.00  0.00    +0.000 NA
ATOM      5  C   UNL     1       7.242   4.830  14.711  0.00  0.00    +0.000 A 
ATOM      6  C   UNL     1       5.869   4.903  14.826  0.00  0.00    +0.000 A 
ATOM      7  N   UNL     1       4.931   4.357  14.005  0.00  0.00    +0.000 N 
ATOM      8  C   UNL     1       5.312   3.455  13.014  0.00  0.00    +0.000 C 
ATOM      9  N   UNL     1       6.319   3.409  12.213  0.00  0.00    +0.000 NA
ATOM     10  C   UNL     1       7.215   4.564  12.185  0.00  0.00    +0.000 C 
ATOM     11  C   UNL     1       8.054   4.807  13.459  0.00  0.00    +0.000 C 
ATOM     12  H   UNL     1       4.053   4.091  14.448  0.00  0.00    +0.000 HD
BRANCH  11  13
ATOM     13  O   UNL     1       8.717   6.080  13.283  0.00  0.00    +0.000 OA
ATOM     14  H   UNL     1       9.252   5.998  12.475  0.00  0.00    +0.000 HD
ENDBRANCH  11  13
ENDBRANCH   1   2
BRANCH   1  15
ATOM     15  C   UNL     1       3.944   6.876  17.011  0.00  0.00    +0.000 C 
BRANCH  15  18
ATOM     16  C   UNL     1       2.493   3.714  18.706  0.00  0.00    +0.000 A 
ATOM     17  C   UNL     1       3.059   4.566  17.725  0.00  0.00    +0.000 A 
ATOM     18  C   UNL     1       3.242   5.932  17.966  0.00  0.00    +0.000 A 
ATOM     19  C   UNL     1       2.878   6.429  19.229  0.00  0.00    +0.000 A 
ATOM     20  C   UNL     1       2.313   5.602  20.202  0.00  0.00    +0.000 A 
ATOM     21  C   UNL     1       2.109   4.246  19.942  0.00  0.00    +0.000 A 
ATOM     22 CL   UNL     1       1.377   3.315  21.201  0.00  0.00    +0.000 Cl
BRANCH  16  24
ATOM     23  O   UNL     1       3.294   1.536  18.249  0.00  0.00    +0.000 OA
ATOM     24  C   UNL     1       2.335   2.286  18.316  0.00  0.00    +0.000 C 
BRANCH  24  25
ATOM     25  O   UNL     1       1.072   1.850  18.140  0.00  0.00    +0.000 OA
ATOM     26  H   UNL     1       0.450   2.048  18.867  0.00  0.00    +0.000 HD
ENDBRANCH  24  25
ENDBRANCH  16  24
ENDBRANCH  15  18
ENDBRANCH   1  15
TORSDOF 6
ENDMDL
MODEL 7
REMARK VINA RESULT:      -7.2      2.604      4.083
REMARK  Name = 
REMARK  6 active torsions:
REMARK  status: ('A' for Active; 'I' for Inactive)
REMARK    1  A    between atoms: C_2  and  O_3
REMARK    2  A    between atoms: C_2  and  C_4
REMARK    3  A    between atoms: C_6  and  C_7
REMARK    4  A    between atoms: C_7  and  C_8
REMARK    5  A    between atoms: C_8  and  N_9
REMARK    6  A    between atoms: C_18  and  O_19
REMARK                            x       y       z     vdW  Elec       q    Type
REMARK                         _______ _______ _______ _____ _____    ______ ____
ROOT
ATOM      1  C   UNL     1       2.281   5.374  17.962  0.00  0.00    +0.000 C 
ENDROOT
BRANCH   1   2
ATOM      2  N   UNL     1       3.265   4.404  17.408  0.00  0.00    +0.000 N 
ATOM      3  C   UNL     1       3.392   3.193  18.071  0.00  0.00    +0.000 A 
ATOM      4  N   UNL     1       4.509   3.205  18.774  0.00  0.00    +0.000 NA
ATOM      5  C   UNL     1       5.258   4.241  18.239  0.00  0.00    +0.000 A 
ATOM      6  C   UNL     1       4.588   4.713  17.129  0.00  0.00    +0.000 A 
ATOM      7  N   UNL     1       5.103   5.005  15.904  0.00  0.00    +0.000 N 
ATOM      8  C   UNL     1       6.411   4.645  15.593  0.00  0.00    +0.000 C 
ATOM      9  N   UNL     1       7.507   4.658  16.269  0.00  0.00    +0.000 NA
ATOM     10  C   UNL     1       7.480   5.286  17.590  0.00  0.00    +0.000 C 
ATOM     11  C   UNL     1       6.650   4.561  18.672  0.00  0.00    +0.000 C 
ATOM     12  H   UNL     1       4.471   4.876  15.114  0.00  0.00    +0.000 HD
BRANCH  11  13
ATOM     13  O   UNL     1       6.613   5.437  19.822  0.00  0.00    +0.000 OA
ATOM     14  H   UNL     1       5.901   5.102  20.395  0.00  0.00    +0.000 HD
ENDBRANCH  11  13
ENDBRANCH   1   2
BRANCH   1  15
ATOM     15  C   UNL     1       2.922   6.760  18.253  0.00  0.00    +0.000 C 
BRANCH  15  18
ATOM     16  C   UNL     1       0.833   9.836  19.328  0.00  0.00    +0.000 A 
ATOM     17  C   UNL     1       1.606   8.956  18.531  0.00  0.00    +0.000 A 
ATOM     18  C   UNL     1       2.183   7.801  19.070  0.00  0.00    +0.000 A 
ATOM     19  C   UNL     1       1.942   7.520  20.425  0.00  0.00    +0.000 A 
ATOM     20  C   UNL     1       1.187   8.382  21.225  0.00  0.00    +0.000 A 
ATOM     21  C   UNL     1       0.639   9.545  20.684  0.00  0.00    +0.000 A 
ATOM     22 CL   UNL     1      -0.253  10.559  21.763  0.00  0.00    +0.000 Cl
BRANCH  16  24
ATOM     23  O   UNL     1      -0.906  11.187  18.466  0.00  0.00    +0.000 OA
ATOM     24  C   UNL     1       0.293  11.038  18.637  0.00  0.00    +0.000 C 
BRANCH  24  25
ATOM     25  O   UNL     1       1.187  11.989  18.304  0.00  0.00    +0.000 OA
ATOM     26  H   UNL     1       0.811  12.851  18.039  0.00  0.00    +0.000 HD
ENDBRANCH  24  25
ENDBRANCH  16  24
ENDBRANCH  15  18
ENDBRANCH   1  15
TORSDOF 6
ENDMDL
MODEL 8
REMARK VINA RESULT:      -7.1      1.657      2.100
REMARK  Name = 
REMARK  6 active torsions:
REMARK  status: ('A' for Active; 'I' for Inactive)
REMARK    1  A    between atoms: C_2  and  O_3
REMARK    2  A    between atoms: C_2  and  C_4
REMARK    3  A    between atoms: C_6  and  C_7
REMARK    4  A    between atoms: C_7  and  C_8
REMARK    5  A    between atoms: C_8  and  N_9
REMARK    6  A    between atoms: C_18  and  O_19
REMARK                            x       y       z     vdW  Elec       q    Type
REMARK                         _______ _______ _______ _____ _____    ______ ____
ROOT
ATOM      1  C   UNL     1       3.932   6.680  18.313  0.00  0.00    +0.000 C 
ENDROOT
BRANCH   1   2
ATOM      2  N   UNL     1       4.185   5.626  19.333  0.00  0.00    +0.000 N 
ATOM      3  C   UNL     1       5.285   4.807  19.127  0.00  0.00    +0.000 A 
ATOM      4  N   UNL     1       4.869   3.631  18.699  0.00  0.00    +0.000 NA
ATOM      5  C   UNL     1       3.522   3.589  19.019  0.00  0.00    +0.000 A 
ATOM      6  C   UNL     1       3.232   4.714  19.762  0.00  0.00    +0.000 A 
ATOM      7  N   UNL     1       2.506   4.794  20.910  0.00  0.00    +0.000 N 
ATOM      8  C   UNL     1       2.127   3.632  21.578  0.00  0.00    +0.000 C 
ATOM      9  N   UNL     1       1.714   2.483  21.169  0.00  0.00    +0.000 NA
ATOM     10  C   UNL     1       1.436   2.331  19.742  0.00  0.00    +0.000 C 
ATOM     11  C   UNL     1       2.659   2.391  18.799  0.00  0.00    +0.000 C 
ATOM     12  H   UNL     1       2.772   5.538  21.554  0.00  0.00    +0.000 HD
BRANCH  11  13
ATOM     13  O   UNL     1       2.141   2.405  17.449  0.00  0.00    +0.000 OA
ATOM     14  H   UNL     1       1.190   2.207  17.521  0.00  0.00    +0.000 HD
ENDBRANCH  11  13
ENDBRANCH   1   2
BRANCH   1  15
ATOM     15  C   UNL     1       2.428   7.063  18.225  0.00  0.00    +0.000 C 
BRANCH  15  18
ATOM     16  C   UNL     1       0.759  10.351  19.402  0.00  0.00    +0.000 A 
ATOM     17  C   UNL     1       1.381   9.390  18.565  0.00  0.00    +0.000 A 
ATOM     18  C   UNL     1       1.859   8.179  19.077  0.00  0.00    +0.000 A 
ATOM     19  C   UNL     1       1.672   7.928  20.447  0.00  0.00    +0.000 A 
ATOM     20  C   UNL     1       1.066   8.868  21.284  0.00  0.00    +0.000 A 
ATOM     21  C   UNL     1       0.618  10.084  20.769  0.00  0.00    +0.000 A 
ATOM     22 CL   UNL     1      -0.090  11.190  21.892  0.00  0.00    +0.000 Cl
BRANCH  16  24
ATOM     23  O   UNL     1       0.877  12.667  18.940  0.00  0.00    +0.000 OA
ATOM     24  C   UNL     1       0.313  11.604  18.736  0.00  0.00    +0.000 C 
BRANCH  24  25
ATOM     25  O   UNL     1      -0.675  11.481  17.828  0.00  0.00    +0.000 OA
ATOM     26  H   UNL     1      -1.307  12.225  17.787  0.00  0.00    +0.000 HD
ENDBRANCH  24  25
ENDBRANCH  16  24
ENDBRANCH  15  18
ENDBRANCH   1  15
TORSDOF 6
ENDMDL
MODEL 9
REMARK VINA RESULT:      -7.0      2.444      3.720
REMARK  Name = 
REMARK  6 active torsions:
REMARK  status: ('A' for Active; 'I' for Inactive)
REMARK    1  A    between atoms: C_2  and  O_3
REMARK    2  A    between atoms: C_2  and  C_4
REMARK    3  A    between atoms: C_6  and  C_7
REMARK    4  A    between atoms: C_7  and  C_8
REMARK    5  A    between atoms: C_8  and  N_9
REMARK    6  A    between atoms: C_18  and  O_19
REMARK                            x       y       z     vdW  Elec       q    Type
REMARK                         _______ _______ _______ _____ _____    ______ ____
ROOT
ATOM      1  C   UNL     1       3.534   7.939  17.853  0.00  0.00    +0.000 C 
ENDROOT
BRANCH   1   2
ATOM      2  N   UNL     1       3.849   6.620  17.238  0.00  0.00    +0.000 N 
ATOM      3  C   UNL     1       3.183   5.516  17.749  0.00  0.00    +0.000 A 
ATOM      4  N   UNL     1       4.014   4.830  18.511  0.00  0.00    +0.000 NA
ATOM      5  C   UNL     1       5.277   5.275  18.156  0.00  0.00    +0.000 A 
ATOM      6  C   UNL     1       5.135   6.124  17.078  0.00  0.00    +0.000 A 
ATOM      7  N   UNL     1       5.866   6.149  15.932  0.00  0.00    +0.000 N 
ATOM      8  C   UNL     1       6.763   5.120  15.654  0.00  0.00    +0.000 C 
ATOM      9  N   UNL     1       7.580   4.449  16.389  0.00  0.00    +0.000 NA
ATOM     10  C   UNL     1       7.757   4.882  17.774  0.00  0.00    +0.000 C 
ATOM     11  C   UNL     1       6.539   4.699  18.706  0.00  0.00    +0.000 C 
ATOM     12  H   UNL     1       5.375   6.465  15.097  0.00  0.00    +0.000 HD
BRANCH  11  13
ATOM     13  O   UNL     1       6.869   5.351  19.954  0.00  0.00    +0.000 OA
ATOM     14  H   UNL     1       6.958   6.299  19.749  0.00  0.00    +0.000 HD
ENDBRANCH  11  13
ENDBRANCH   1   2
BRANCH   1  15
ATOM     15  C   UNL     1       2.008   8.239  17.846  0.00  0.00    +0.000 C 
BRANCH  15  18
ATOM     16  C   UNL     1       0.534   9.826  21.054  0.00  0.00    +0.000 A 
ATOM     17  C   UNL     1       0.989   8.852  20.130  0.00  0.00    +0.000 A 
ATOM     18  C   UNL     1       1.404   9.209  18.842  0.00  0.00    +0.000 A 
ATOM     19  C   UNL     1       1.388  10.572  18.503  0.00  0.00    +0.000 A 
ATOM     20  C   UNL     1       0.937  11.541  19.401  0.00  0.00    +0.000 A 
ATOM     21  C   UNL     1       0.499  11.173  20.674  0.00  0.00    +0.000 A 
ATOM     22 CL   UNL     1      -0.068  12.443  21.699  0.00  0.00    +0.000 Cl
BRANCH  16  24
ATOM     23  O   UNL     1      -0.821   8.523  22.489  0.00  0.00    +0.000 OA
ATOM     24  C   UNL     1       0.103   9.312  22.382  0.00  0.00    +0.000 C 
BRANCH  24  25
ATOM     25  O   UNL     1       0.849   9.687  23.440  0.00  0.00    +0.000 OA
ATOM     26  H   UNL     1       1.770   9.363  23.445  0.00  0.00    +0.000 HD
ENDBRANCH  24  25
ENDBRANCH  16  24
ENDBRANCH  15  18
ENDBRANCH   1  15
TORSDOF 6
ENDMDL
