MODEL 1
REMARK VINA RESULT:      -8.1      0.000      0.000
REMARK  Name = 
REMARK  2 active torsions:
REMARK  status: ('A' for Active; 'I' for Inactive)
REMARK    1  A    between atoms: C_5  and  C_6
REMARK    2  A    between atoms: N_8  and  C_9
REMARK                            x       y       z     vdW  Elec       q    Type
REMARK                         _______ _______ _______ _____ _____    ______ ____
ROOT
ATOM      1  C   UNL     1       3.954   4.613  18.063  0.00  0.00    +0.000 C 
ATOM      2  O   UNL     1       3.614   5.731  17.704  0.00  0.00    +0.000 OA
ATOM      3  N   UNL     1       4.907   3.784  17.502  0.00  0.00    +0.000 N 
ATOM      4  H   UNL     1       4.974   2.851  17.899  0.00  0.00    +0.000 HD
ENDROOT
BRANCH   3   5
ATOM      5  C   UNL     1       5.699   4.090  16.372  0.00  0.00    +0.000 A 
ATOM      6  C   UNL     1       6.813   4.946  16.442  0.00  0.00    +0.000 A 
ATOM      7  C   UNL     1       7.537   5.301  15.302  0.00  0.00    +0.000 A 
ATOM      8  C   UNL     1       7.140   4.782  14.087  0.00  0.00    +0.000 A 
ATOM      9  C   UNL     1       6.057   3.904  14.001  0.00  0.00    +0.000 A 
ATOM     10  C   UNL     1       5.336   3.537  15.134  0.00  0.00    +0.000 A 
ATOM     11  C   UNL     1       5.789   3.549  12.570  0.00  0.00    +0.000 C 
ATOM     12  C   UNL     1       7.116   3.948  11.903  0.00  0.00    +0.000 C 
ATOM     13  C   UNL     1       7.699   5.096  12.736  0.00  0.00    +0.000 C 
ENDBRANCH   3   5
BRANCH   1  18
ATOM     14  O   UNL     1       1.308   2.469  22.428  0.00  0.00    +0.000 OA
ATOM     15  C   UNL     1       1.809   2.924  21.402  0.00  0.00    +0.000 C 
ATOM     16  C   UNL     1       1.035   3.786  20.448  0.00  0.00    +0.000 C 
ATOM     17  C   UNL     1       1.929   4.699  19.645  0.00  0.00    +0.000 C 
ATOM     18  C   UNL     1       3.216   4.023  19.258  0.00  0.00    +0.000 C 
ATOM     19  N   UNL     1       3.755   3.041  19.918  0.00  0.00    +0.000 NA
ATOM     20  N   UNL     1       3.087   2.589  21.019  0.00  0.00    +0.000 N 
ATOM     21  H   UNL     1       3.581   1.940  21.625  0.00  0.00    +0.000 HD
ENDBRANCH   1  18
TORSDOF 2
ENDMDL
MODEL 2
REMARK VINA RESULT:      -7.6      0.891      1.137
REMARK  Name = 
REMARK  2 active torsions:
REMARK  status: ('A' for Active; 'I' for Inactive)
REMARK    1  A    between atoms: C_5  and  C_6
REMARK    2  A    between atoms: N_8  and  C_9
REMARK                            x       y       z     vdW  Elec       q    Type
REMARK                         _______ _______ _______ _____ _____    ______ ____
ROOT
ATOM      1  C   UNL     1       3.843   4.604  18.034  0.00  0.00    +0.000 C 
ATOM      2  O   UNL     1       3.469   5.697  17.635  0.00  0.00    +0.000 OA
ATOM      3  N   UNL     1       4.838   3.796  17.517  0.00  0.00    +0.000 N 
ATOM      4  H   UNL     1       4.932   2.878  17.943  0.00  0.00    +0.000 HD
ENDROOT
BRANCH   3   5
ATOM      5  C   UNL     1       5.640   4.098  16.393  0.00  0.00    +0.000 A 
ATOM      6  C   UNL     1       6.752   4.957  16.471  0.00  0.00    +0.000 A 
ATOM      7  C   UNL     1       7.486   5.309  15.336  0.00  0.00    +0.000 A 
ATOM      8  C   UNL     1       7.103   4.784  14.121  0.00  0.00    +0.000 A 
ATOM      9  C   UNL     1       6.023   3.902  14.027  0.00  0.00    +0.000 A 
ATOM     10  C   UNL     1       5.292   3.539  15.154  0.00  0.00    +0.000 A 
ATOM     11  C   UNL     1       5.771   3.541  12.594  0.00  0.00    +0.000 C 
ATOM     12  C   UNL     1       7.103   3.940  11.939  0.00  0.00    +0.000 C 
ATOM     13  C   UNL     1       7.675   5.093  12.774  0.00  0.00    +0.000 C 
ENDBRANCH   3   5
BRANCH   1  18
ATOM     14  O   UNL     1       1.119   2.491  22.367  0.00  0.00    +0.000 OA
ATOM     15  C   UNL     1       1.809   2.965  21.467  0.00  0.00    +0.000 C 
ATOM     16  C   UNL     1       3.218   2.511  21.217  0.00  0.00    +0.000 C 
ATOM     17  C   UNL     1       3.646   2.731  19.786  0.00  0.00    +0.000 C 
ATOM     18  C   UNL     1       3.103   4.021  19.232  0.00  0.00    +0.000 C 
ATOM     19  N   UNL     1       2.023   4.605  19.659  0.00  0.00    +0.000 NA
ATOM     20  N   UNL     1       1.360   4.010  20.693  0.00  0.00    +0.000 N 
ATOM     21  H   UNL     1       0.437   4.370  20.918  0.00  0.00    +0.000 HD
ENDBRANCH   1  18
TORSDOF 2
ENDMDL
MODEL 3
REMARK VINA RESULT:      -7.2      4.407      5.306
REMARK  Name = 
REMARK  2 active torsions:
REMARK  status: ('A' for Active; 'I' for Inactive)
REMARK    1  A    between atoms: C_5  and  C_6
REMARK    2  A    between atoms: N_8  and  C_9
REMARK                            x       y       z     vdW  Elec       q    Type
REMARK                         _______ _______ _______ _____ _____    ______ ____
ROOT
ATOM      1  C   UNL     1       1.974   8.246  18.756  0.00  0.00    +0.000 C 
ATOM      2  O   UNL     1       1.821   8.720  17.640  0.00  0.00    +0.000 OA
ATOM      3  N   UNL     1       2.633   7.084  19.113  0.00  0.00    +0.000 N 
ATOM      4  H   UNL     1       2.567   6.818  20.091  0.00  0.00    +0.000 HD
ENDROOT
BRANCH   3   5
ATOM      5  C   UNL     1       3.280   6.201  18.220  0.00  0.00    +0.000 A 
ATOM      6  C   UNL     1       2.781   4.915  17.937  0.00  0.00    +0.000 A 
ATOM      7  C   UNL     1       3.474   4.025  17.114  0.00  0.00    +0.000 A 
ATOM      8  C   UNL     1       4.670   4.438  16.566  0.00  0.00    +0.000 A 
ATOM      9  C   UNL     1       5.166   5.722  16.806  0.00  0.00    +0.000 A 
ATOM     10  C   UNL     1       4.477   6.618  17.618  0.00  0.00    +0.000 A 
ATOM     11  C   UNL     1       6.509   5.888  16.162  0.00  0.00    +0.000 C 
ATOM     12  C   UNL     1       6.507   4.732  15.149  0.00  0.00    +0.000 C 
ATOM     13  C   UNL     1       5.621   3.629  15.743  0.00  0.00    +0.000 C 
ENDBRANCH   3   5
BRANCH   1  18
ATOM     14  O   UNL     1      -0.400  10.989  22.939  0.00  0.00    +0.000 OA
ATOM     15  C   UNL     1       0.212  10.369  22.072  0.00  0.00    +0.000 C 
ATOM     16  C   UNL     1       1.026   9.148  22.387  0.00  0.00    +0.000 C 
ATOM     17  C   UNL     1       1.167   8.230  21.198  0.00  0.00    +0.000 C 
ATOM     18  C   UNL     1       1.329   8.997  19.915  0.00  0.00    +0.000 C 
ATOM     19  N   UNL     1       0.890  10.206  19.723  0.00  0.00    +0.000 NA
ATOM     20  N   UNL     1       0.262  10.815  20.772  0.00  0.00    +0.000 N 
ATOM     21  H   UNL     1      -0.223  11.686  20.577  0.00  0.00    +0.000 HD
ENDBRANCH   1  18
TORSDOF 2
ENDMDL
MODEL 4
REMARK VINA RESULT:      -7.2      4.209      5.112
REMARK  Name = 
REMARK  2 active torsions:
REMARK  status: ('A' for Active; 'I' for Inactive)
REMARK    1  A    between atoms: C_5  and  C_6
REMARK    2  A    between atoms: N_8  and  C_9
REMARK                            x       y       z     vdW  Elec       q    Type
REMARK                         _______ _______ _______ _____ _____    ______ ____
ROOT
ATOM      1  C   UNL     1       1.996   8.111  18.872  0.00  0.00    +0.000 C 
ATOM      2  O   UNL     1       1.830   8.621  17.773  0.00  0.00    +0.000 OA
ATOM      3  N   UNL     1       2.676   6.949  19.186  0.00  0.00    +0.000 N 
ATOM      4  H   UNL     1       2.619   6.649  20.155  0.00  0.00    +0.000 HD
ENDROOT
BRANCH   3   5
ATOM      5  C   UNL     1       3.333   6.107  18.260  0.00  0.00    +0.000 A 
ATOM      6  C   UNL     1       2.830   4.842  17.903  0.00  0.00    +0.000 A 
ATOM      7  C   UNL     1       3.531   3.990  17.048  0.00  0.00    +0.000 A 
ATOM      8  C   UNL     1       4.740   4.420  16.543  0.00  0.00    +0.000 A 
ATOM      9  C   UNL     1       5.240   5.686  16.858  0.00  0.00    +0.000 A 
ATOM     10  C   UNL     1       4.543   6.546  17.702  0.00  0.00    +0.000 A 
ATOM     11  C   UNL     1       6.596   5.875  16.246  0.00  0.00    +0.000 C 
ATOM     12  C   UNL     1       6.604   4.771  15.176  0.00  0.00    +0.000 C 
ATOM     13  C   UNL     1       5.700   3.648  15.696  0.00  0.00    +0.000 C 
ENDBRANCH   3   5
BRANCH   1  18
ATOM     14  O   UNL     1      -0.334  10.653  23.205  0.00  0.00    +0.000 OA
ATOM     15  C   UNL     1       0.088  10.085  22.199  0.00  0.00    +0.000 C 
ATOM     16  C   UNL     1      -0.360  10.469  20.818  0.00  0.00    +0.000 C 
ATOM     17  C   UNL     1       0.665  10.122  19.766  0.00  0.00    +0.000 C 
ATOM     18  C   UNL     1       1.345   8.812  20.058  0.00  0.00    +0.000 C 
ATOM     19  N   UNL     1       1.471   8.301  21.247  0.00  0.00    +0.000 NA
ATOM     20  N   UNL     1       0.927   8.999  22.287  0.00  0.00    +0.000 N 
ATOM     21  H   UNL     1       1.164   8.691  23.225  0.00  0.00    +0.000 HD
ENDBRANCH   1  18
TORSDOF 2
ENDMDL
MODEL 5
REMARK VINA RESULT:      -7.1      2.678      7.572
REMARK  Name = 
REMARK  2 active torsions:
REMARK  status: ('A' for Active; 'I' for Inactive)
REMARK    1  A    between atoms: C_5  and  C_6
REMARK    2  A    between atoms: N_8  and  C_9
REMARK                            x       y       z     vdW  Elec       q    Type
REMARK                         _______ _______ _______ _____ _____    ______ ____
ROOT
ATOM      1  C   UNL     1       6.057   4.587  16.465  0.00  0.00    +0.000 C 
ATOM      2  O   UNL     1       6.899   4.431  17.337  0.00  0.00    +0.000 OA
ATOM      3  N   UNL     1       4.685   4.676  16.602  0.00  0.00    +0.000 N 
ATOM      4  H   UNL     1       4.153   4.714  15.737  0.00  0.00    +0.000 HD
ENDROOT
BRANCH   3   5
ATOM      5  C   UNL     1       3.976   4.607  17.823  0.00  0.00    +0.000 A 
ATOM      6  C   UNL     1       3.995   5.652  18.766  0.00  0.00    +0.000 A 
ATOM      7  C   UNL     1       3.354   5.535  20.001  0.00  0.00    +0.000 A 
ATOM      8  C   UNL     1       2.683   4.364  20.281  0.00  0.00    +0.000 A 
ATOM      9  C   UNL     1       2.623   3.328  19.345  0.00  0.00    +0.000 A 
ATOM     10  C   UNL     1       3.251   3.440  18.108  0.00  0.00    +0.000 A 
ATOM     11  C   UNL     1       1.904   2.147  19.923  0.00  0.00    +0.000 C 
ATOM     12  C   UNL     1       1.162   2.790  21.107  0.00  0.00    +0.000 C 
ATOM     13  C   UNL     1       2.013   3.982  21.563  0.00  0.00    +0.000 C 
ENDBRANCH   3   5
BRANCH   1  18
ATOM     14  O   UNL     1       7.933   4.840  11.262  0.00  0.00    +0.000 OA
ATOM     15  C   UNL     1       7.420   4.798  12.378  0.00  0.00    +0.000 C 
ATOM     16  C   UNL     1       6.149   4.044  12.645  0.00  0.00    +0.000 C 
ATOM     17  C   UNL     1       6.031   3.611  14.086  0.00  0.00    +0.000 C 
ATOM     18  C   UNL     1       6.562   4.656  15.029  0.00  0.00    +0.000 C 
ATOM     19  N   UNL     1       7.463   5.539  14.713  0.00  0.00    +0.000 NA
ATOM     20  N   UNL     1       7.932   5.519  13.431  0.00  0.00    +0.000 N 
ATOM     21  H   UNL     1       8.745   6.093  13.227  0.00  0.00    +0.000 HD
ENDBRANCH   1  18
TORSDOF 2
ENDMDL
MODEL 6
REMARK VINA RESULT:      -7.0      7.322      9.241
REMARK  Name = 
REMARK  2 active torsions:
REMARK  status: ('A' for Active; 'I' for Inactive)
REMARK    1  A    between atoms: C_5  and  C_6
REMARK    2  A    between atoms: N_8  and  C_9
REMARK                            x       y       z     vdW  Elec       q    Type
REMARK                         _______ _______ _______ _____ _____    ______ ____
ROOT
ATOM      1  C   UNL     1       8.341   9.350  18.225  0.00  0.00    +0.000 C 
ATOM      2  O   UNL     1       7.860  10.192  17.481  0.00  0.00    +0.000 OA
ATOM      3  N   UNL     1       9.196   9.538  19.295  0.00  0.00    +0.000 N 
ATOM      4  H   UNL     1       9.555   8.692  19.731  0.00  0.00    +0.000 HD
ENDROOT
BRANCH   3   5
ATOM      5  C   UNL     1       9.685  10.784  19.746  0.00  0.00    +0.000 A 
ATOM      6  C   UNL     1       9.292  11.348  20.975  0.00  0.00    +0.000 A 
ATOM      7  C   UNL     1       9.723  12.616  21.369  0.00  0.00    +0.000 A 
ATOM      8  C   UNL     1      10.561  13.314  20.525  0.00  0.00    +0.000 A 
ATOM      9  C   UNL     1      10.990  12.758  19.318  0.00  0.00    +0.000 A 
ATOM     10  C   UNL     1      10.573  11.491  18.921  0.00  0.00    +0.000 A 
ATOM     11  C   UNL     1      11.825  13.745  18.560  0.00  0.00    +0.000 C 
ATOM     12  C   UNL     1      12.206  14.739  19.670  0.00  0.00    +0.000 C 
ATOM     13  C   UNL     1      11.065  14.712  20.694  0.00  0.00    +0.000 C 
ENDBRANCH   3   5
BRANCH   1  18
ATOM     14  O   UNL     1       7.109   4.069  17.108  0.00  0.00    +0.000 OA
ATOM     15  C   UNL     1       7.315   5.235  17.437  0.00  0.00    +0.000 C 
ATOM     16  C   UNL     1       7.478   5.644  18.872  0.00  0.00    +0.000 C 
ATOM     17  C   UNL     1       8.295   6.905  19.020  0.00  0.00    +0.000 C 
ATOM     18  C   UNL     1       7.996   7.895  17.928  0.00  0.00    +0.000 C 
ATOM     19  N   UNL     1       7.547   7.576  16.751  0.00  0.00    +0.000 NA
ATOM     20  N   UNL     1       7.314   6.252  16.511  0.00  0.00    +0.000 N 
ATOM     21  H   UNL     1       7.123   5.983  15.550  0.00  0.00    +0.000 HD
ENDBRANCH   1  18
TORSDOF 2
ENDMDL
MODEL 7
REMARK VINA RESULT:      -7.0      4.984      6.731
REMARK  Name = 
REMARK  2 active torsions:
REMARK  status: ('A' for Active; 'I' for Inactive)
REMARK    1  A    between atoms: C_5  and  C_6
REMARK    2  A    between atoms: N_8  and  C_9
REMARK                            x       y       z     vdW  Elec       q    Type
REMARK                         _______ _______ _______ _____ _____    ______ ____
ROOT
ATOM      1  C   UNL     1       1.422   8.398  20.007  0.00  0.00    +0.000 C 
ATOM      2  O   UNL     1       1.641   8.779  18.867  0.00  0.00    +0.000 OA
ATOM      3  N   UNL     1       1.710   7.169  20.572  0.00  0.00    +0.000 N 
ATOM      4  H   UNL     1       1.362   7.020  21.515  0.00  0.00    +0.000 HD
ENDROOT
BRANCH   3   5
ATOM      5  C   UNL     1       2.340   6.090  19.911  0.00  0.00    +0.000 A 
ATOM      6  C   UNL     1       3.520   6.250  19.161  0.00  0.00    +0.000 A 
ATOM      7  C   UNL     1       4.085   5.190  18.449  0.00  0.00    +0.000 A 
ATOM      8  C   UNL     1       3.462   3.961  18.503  0.00  0.00    +0.000 A 
ATOM      9  C   UNL     1       2.309   3.772  19.269  0.00  0.00    +0.000 A 
ATOM     10  C   UNL     1       1.745   4.822  19.989  0.00  0.00    +0.000 A 
ATOM     11  C   UNL     1       1.794   2.376  19.096  0.00  0.00    +0.000 C 
ATOM     12  C   UNL     1       3.029   1.663  18.523  0.00  0.00    +0.000 C 
ATOM     13  C   UNL     1       3.829   2.721  17.753  0.00  0.00    +0.000 C 
ENDBRANCH   3   5
BRANCH   1  18
ATOM     14  O   UNL     1      -1.196  11.968  23.332  0.00  0.00    +0.000 OA
ATOM     15  C   UNL     1      -0.570  11.136  22.680  0.00  0.00    +0.000 C 
ATOM     16  C   UNL     1      -0.433   9.709  23.127  0.00  0.00    +0.000 C 
ATOM     17  C   UNL     1      -0.194   8.766  21.973  0.00  0.00    +0.000 C 
ATOM     18  C   UNL     1       0.705   9.374  20.932  0.00  0.00    +0.000 C 
ATOM     19  N   UNL     1       0.838  10.652  20.733  0.00  0.00    +0.000 NA
ATOM     20  N   UNL     1       0.125  11.487  21.546  0.00  0.00    +0.000 N 
ATOM     21  H   UNL     1       0.098  12.469  21.290  0.00  0.00    +0.000 HD
ENDBRANCH   1  18
TORSDOF 2
ENDMDL
MODEL 8
REMARK VINA RESULT:      -7.0      2.723      7.691
REMARK  Name = 
REMARK  2 active torsions:
REMARK  status: ('A' for Active; 'I' for Inactive)
REMARK    1  A    between atoms: C_5  and  C_6
REMARK    2  A    between atoms: N_8  and  C_9
REMARK                            x       y       z     vdW  Elec       q    Type
REMARK                         _______ _______ _______ _____ _____    ______ ____
ROOT
ATOM      1  C   UNL     1       6.051   4.148  16.364  0.00  0.00    +0.000 C 
ATOM      2  O   UNL     1       6.831   4.285  17.295  0.00  0.00    +0.000 OA
ATOM      3  N   UNL     1       4.740   3.711  16.400  0.00  0.00    +0.000 N 
ATOM      4  H   UNL     1       4.290   3.580  15.498  0.00  0.00    +0.000 HD
ENDROOT
BRANCH   3   5
ATOM      5  C   UNL     1       4.032   3.335  17.564  0.00  0.00    +0.000 A 
ATOM      6  C   UNL     1       3.612   2.011  17.795  0.00  0.00    +0.000 A 
ATOM      7  C   UNL     1       2.845   1.671  18.910  0.00  0.00    +0.000 A 
ATOM      8  C   UNL     1       2.509   2.668  19.802  0.00  0.00    +0.000 A 
ATOM      9  C   UNL     1       2.944   3.981  19.609  0.00  0.00    +0.000 A 
ATOM     10  C   UNL     1       3.717   4.327  18.504  0.00  0.00    +0.000 A 
ATOM     11  C   UNL     1       2.381   4.876  20.671  0.00  0.00    +0.000 C 
ATOM     12  C   UNL     1       1.966   3.854  21.743  0.00  0.00    +0.000 C 
ATOM     13  C   UNL     1       1.624   2.556  21.002  0.00  0.00    +0.000 C 
ENDBRANCH   3   5
BRANCH   1  18
ATOM     14  O   UNL     1       8.032   5.270  11.317  0.00  0.00    +0.000 OA
ATOM     15  C   UNL     1       7.496   5.038  12.398  0.00  0.00    +0.000 C 
ATOM     16  C   UNL     1       6.247   4.212  12.510  0.00  0.00    +0.000 C 
ATOM     17  C   UNL     1       6.112   3.556  13.862  0.00  0.00    +0.000 C 
ATOM     18  C   UNL     1       6.585   4.456  14.971  0.00  0.00    +0.000 C 
ATOM     19  N   UNL     1       7.461   5.406  14.820  0.00  0.00    +0.000 NA
ATOM     20  N   UNL     1       7.959   5.602  13.564  0.00  0.00    +0.000 N 
ATOM     21  H   UNL     1       8.756   6.225  13.475  0.00  0.00    +0.000 HD
ENDBRANCH   1  18
TORSDOF 2
ENDMDL
MODEL 9
REMARK VINA RESULT:      -7.0      4.087      8.250
REMARK  Name = 
REMARK  2 active torsions:
REMARK  status: ('A' for Active; 'I' for Inactive)
REMARK    1  A    between atoms: C_5  and  C_6
REMARK    2  A    between atoms: N_8  and  C_9
REMARK                            x       y       z     vdW  Elec       q    Type
REMARK                         _______ _______ _______ _____ _____    ______ ____
ROOT
ATOM      1  C   UNL     1       3.201   6.357  17.830  0.00  0.00    +0.000 C 
ATOM      2  O   UNL     1       2.414   5.497  18.198  0.00  0.00    +0.000 OA
ATOM      3  N   UNL     1       3.130   7.724  18.019  0.00  0.00    +0.000 N 
ATOM      4  H   UNL     1       3.844   8.275  17.552  0.00  0.00    +0.000 HD
ENDROOT
BRANCH   3   5
ATOM      5  C   UNL     1       2.098   8.405  18.704  0.00  0.00    +0.000 A 
ATOM      6  C   UNL     1       1.214   9.285  18.052  0.00  0.00    +0.000 A 
ATOM      7  C   UNL     1       0.251  10.010  18.756  0.00  0.00    +0.000 A 
ATOM      8  C   UNL     1       0.173   9.839  20.122  0.00  0.00    +0.000 A 
ATOM      9  C   UNL     1       1.018   8.945  20.783  0.00  0.00    +0.000 A 
ATOM     10  C   UNL     1       1.975   8.211  20.088  0.00  0.00    +0.000 A 
ATOM     11  C   UNL     1       0.781   9.005  22.262  0.00  0.00    +0.000 C 
ATOM     12  C   UNL     1      -0.599   9.679  22.324  0.00  0.00    +0.000 C 
ATOM     13  C   UNL     1      -0.706  10.574  21.083  0.00  0.00    +0.000 C 
ENDBRANCH   3   5
BRANCH   1  18
ATOM     14  O   UNL     1       7.596   4.666  14.918  0.00  0.00    +0.000 OA
ATOM     15  C   UNL     1       6.561   4.992  15.494  0.00  0.00    +0.000 C 
ATOM     16  C   UNL     1       5.423   4.033  15.694  0.00  0.00    +0.000 C 
ATOM     17  C   UNL     1       4.571   4.395  16.886  0.00  0.00    +0.000 C 
ATOM     18  C   UNL     1       4.404   5.884  17.022  0.00  0.00    +0.000 C 
ATOM     19  N   UNL     1       5.250   6.761  16.568  0.00  0.00    +0.000 NA
ATOM     20  N   UNL     1       6.345   6.286  15.906  0.00  0.00    +0.000 N 
ATOM     21  H   UNL     1       7.084   6.952  15.697  0.00  0.00    +0.000 HD
ENDBRANCH   1  18
TORSDOF 2
ENDMDL
