MODEL 1
REMARK VINA RESULT:      -7.6      0.000      0.000
REMARK  Name = 
REMARK  4 active torsions:
REMARK  status: ('A' for Active; 'I' for Inactive)
REMARK    1  A    between atoms: C_1  and  C_2
REMARK    2  A    between atoms: C_2  and  C_3
REMARK    3  A    between atoms: C_6  and  C_7
REMARK    4  A    between atoms: N_17  and  C_18
REMARK                            x       y       z     vdW  Elec       q    Type
REMARK                         _______ _______ _______ _____ _____    ______ ____
ROOT
ATOM      1  C   UNL     1       4.283   5.751  17.717  0.00  0.00    +0.000 C 
ATOM      2  O   UNL     1       3.582   6.742  17.541  0.00  0.00    +0.000 OA
ATOM      3  N   UNL     1       4.234   4.976  18.888  0.00  0.00    +0.000 N 
ATOM      4  C   UNL     1       4.880   3.675  19.109  0.00  0.00    +0.000 C 
ATOM      5  C   UNL     1       3.997   2.445  18.885  0.00  0.00    +0.000 C 
ATOM      6  C   UNL     1       2.578   2.527  19.445  0.00  0.00    +0.000 C 
ATOM      7  C   UNL     1       1.624   3.349  18.567  0.00  0.00    +0.000 C 
ATOM      8  C   UNL     1       1.151   4.482  19.457  0.00  0.00    +0.000 C 
ATOM      9  C   UNL     1       2.242   4.587  20.513  0.00  0.00    +0.000 C 
ATOM     10  C   UNL     1       3.434   5.477  20.030  0.00  0.00    +0.000 C 
ATOM     11  N   UNL     1       2.637   3.180  20.766  0.00  0.00    +0.000 NA
ATOM     12  C   UNL     1       1.759   2.500  21.720  0.00  0.00    +0.000 C 
ENDROOT
BRANCH   1  16
ATOM     13  C   UNL     1       6.790   4.865  14.476  0.00  0.00    +0.000 A 
ATOM     14  N   UNL     1       5.628   4.192  14.561  0.00  0.00    +0.000 NA
ATOM     15  C   UNL     1       4.869   4.434  15.651  0.00  0.00    +0.000 A 
ATOM     16  C   UNL     1       5.178   5.374  16.606  0.00  0.00    +0.000 A 
ATOM     17  C   UNL     1       6.438   5.916  16.492  0.00  0.00    +0.000 A 
ATOM     18  N   UNL     1       7.255   5.696  15.432  0.00  0.00    +0.000 NA
BRANCH  13  20
ATOM     19  C   UNL     1       6.839   3.857  12.190  0.00  0.00    +0.000 C 
ATOM     20  C   UNL     1       7.565   4.743  13.193  0.00  0.00    +0.000 C 
ENDBRANCH  13  20
ENDBRANCH   1  16
TORSDOF 2
ENDMDL
MODEL 2
REMARK VINA RESULT:      -7.4      2.391      3.809
REMARK  Name = 
REMARK  4 active torsions:
REMARK  status: ('A' for Active; 'I' for Inactive)
REMARK    1  A    between atoms: C_1  and  C_2
REMARK    2  A    between atoms: C_2  and  C_3
REMARK    3  A    between atoms: C_6  and  C_7
REMARK    4  A    between atoms: N_17  and  C_18
REMARK                            x       y       z     vdW  Elec       q    Type
REMARK                         _______ _______ _______ _____ _____    ______ ____
ROOT
ATOM      1  C   UNL     1       5.425   4.610  16.976  0.00  0.00    +0.000 C 
ATOM      2  O   UNL     1       5.861   3.694  16.287  0.00  0.00    +0.000 OA
ATOM      3  N   UNL     1       4.097   4.658  17.434  0.00  0.00    +0.000 N 
ATOM      4  C   UNL     1       3.540   5.599  18.416  0.00  0.00    +0.000 C 
ATOM      5  C   UNL     1       3.466   5.090  19.858  0.00  0.00    +0.000 C 
ATOM      6  C   UNL     1       2.976   3.655  20.038  0.00  0.00    +0.000 C 
ATOM      7  C   UNL     1       4.055   2.603  19.743  0.00  0.00    +0.000 C 
ATOM      8  C   UNL     1       3.490   1.772  18.606  0.00  0.00    +0.000 C 
ATOM      9  C   UNL     1       2.471   2.698  17.958  0.00  0.00    +0.000 C 
ATOM     10  C   UNL     1       3.137   3.656  16.916  0.00  0.00    +0.000 C 
ATOM     11  N   UNL     1       1.862   3.422  19.101  0.00  0.00    +0.000 NA
ATOM     12  C   UNL     1       0.788   2.669  19.749  0.00  0.00    +0.000 C 
ENDROOT
BRANCH   1  16
ATOM     13  C   UNL     1       8.033   7.658  18.192  0.00  0.00    +0.000 A 
ATOM     14  N   UNL     1       7.305   7.873  17.080  0.00  0.00    +0.000 NA
ATOM     15  C   UNL     1       6.529   6.852  16.661  0.00  0.00    +0.000 A 
ATOM     16  C   UNL     1       6.384   5.668  17.345  0.00  0.00    +0.000 A 
ATOM     17  C   UNL     1       7.258   5.501  18.395  0.00  0.00    +0.000 A 
ATOM     18  N   UNL     1       8.076   6.482  18.851  0.00  0.00    +0.000 NA
BRANCH  13  20
ATOM     19  C   UNL     1       8.477  10.110  17.993  0.00  0.00    +0.000 C 
ATOM     20  C   UNL     1       8.767   8.835  18.773  0.00  0.00    +0.000 C 
ENDBRANCH  13  20
ENDBRANCH   1  16
TORSDOF 2
ENDMDL
MODEL 3
REMARK VINA RESULT:      -7.2      1.391      1.806
REMARK  Name = 
REMARK  4 active torsions:
REMARK  status: ('A' for Active; 'I' for Inactive)
REMARK    1  A    between atoms: C_1  and  C_2
REMARK    2  A    between atoms: C_2  and  C_3
REMARK    3  A    between atoms: C_6  and  C_7
REMARK    4  A    between atoms: N_17  and  C_18
REMARK                            x       y       z     vdW  Elec       q    Type
REMARK                         _______ _______ _______ _____ _____    ______ ____
ROOT
ATOM      1  C   UNL     1       5.564   4.720  18.422  0.00  0.00    +0.000 C 
ATOM      2  O   UNL     1       5.985   5.486  19.282  0.00  0.00    +0.000 OA
ATOM      3  N   UNL     1       4.598   3.732  18.682  0.00  0.00    +0.000 N 
ATOM      4  C   UNL     1       3.893   2.909  17.689  0.00  0.00    +0.000 C 
ATOM      5  C   UNL     1       2.509   3.410  17.270  0.00  0.00    +0.000 C 
ATOM      6  C   UNL     1       1.609   3.915  18.396  0.00  0.00    +0.000 C 
ATOM      7  C   UNL     1       1.960   5.334  18.864  0.00  0.00    +0.000 C 
ATOM      8  C   UNL     1       2.311   5.187  20.332  0.00  0.00    +0.000 C 
ATOM      9  C   UNL     1       2.702   3.722  20.461  0.00  0.00    +0.000 C 
ATOM     10  C   UNL     1       4.204   3.487  20.089  0.00  0.00    +0.000 C 
ATOM     11  N   UNL     1       1.765   3.015  19.554  0.00  0.00    +0.000 NA
ATOM     12  C   UNL     1       0.468   2.738  20.173  0.00  0.00    +0.000 C 
ENDROOT
BRANCH   1  16
ATOM     13  C   UNL     1       6.946   5.103  14.483  0.00  0.00    +0.000 A 
ATOM     14  N   UNL     1       7.771   4.523  15.374  0.00  0.00    +0.000 NA
ATOM     15  C   UNL     1       7.341   4.477  16.653  0.00  0.00    +0.000 A 
ATOM     16  C   UNL     1       6.099   4.904  17.059  0.00  0.00    +0.000 A 
ATOM     17  C   UNL     1       5.386   5.589  16.102  0.00  0.00    +0.000 A 
ATOM     18  N   UNL     1       5.774   5.687  14.806  0.00  0.00    +0.000 NA
BRANCH  13  20
ATOM     19  C   UNL     1       6.695   3.792  12.371  0.00  0.00    +0.000 C 
ATOM     20  C   UNL     1       7.326   5.010  13.031  0.00  0.00    +0.000 C 
ENDBRANCH  13  20
ENDBRANCH   1  16
TORSDOF 2
ENDMDL
MODEL 4
REMARK VINA RESULT:      -6.9      1.275      1.807
REMARK  Name = 
REMARK  4 active torsions:
REMARK  status: ('A' for Active; 'I' for Inactive)
REMARK    1  A    between atoms: C_1  and  C_2
REMARK    2  A    between atoms: C_2  and  C_3
REMARK    3  A    between atoms: C_6  and  C_7
REMARK    4  A    between atoms: N_17  and  C_18
REMARK                            x       y       z     vdW  Elec       q    Type
REMARK                         _______ _______ _______ _____ _____    ______ ____
ROOT
ATOM      1  C   UNL     1       5.487   5.287  17.423  0.00  0.00    +0.000 C 
ATOM      2  O   UNL     1       5.788   6.404  17.831  0.00  0.00    +0.000 OA
ATOM      3  N   UNL     1       4.792   4.348  18.204  0.00  0.00    +0.000 N 
ATOM      4  C   UNL     1       4.218   3.075  17.744  0.00  0.00    +0.000 C 
ATOM      5  C   UNL     1       2.729   3.104  17.392  0.00  0.00    +0.000 C 
ATOM      6  C   UNL     1       1.826   3.869  18.357  0.00  0.00    +0.000 C 
ATOM      7  C   UNL     1       1.882   5.391  18.165  0.00  0.00    +0.000 C 
ATOM      8  C   UNL     1       2.367   5.937  19.494  0.00  0.00    +0.000 C 
ATOM      9  C   UNL     1       3.088   4.754  20.125  0.00  0.00    +0.000 C 
ATOM     10  C   UNL     1       4.570   4.651  19.637  0.00  0.00    +0.000 C 
ATOM     11  N   UNL     1       2.268   3.581  19.734  0.00  0.00    +0.000 NA
ATOM     12  C   UNL     1       1.118   3.367  20.614  0.00  0.00    +0.000 C 
ENDROOT
BRANCH   1  16
ATOM     13  C   UNL     1       6.507   4.197  13.506  0.00  0.00    +0.000 A 
ATOM     14  N   UNL     1       7.506   4.581  14.321  0.00  0.00    +0.000 NA
ATOM     15  C   UNL     1       7.151   5.002  15.553  0.00  0.00    +0.000 A 
ATOM     16  C   UNL     1       5.862   4.973  16.031  0.00  0.00    +0.000 A 
ATOM     17  C   UNL     1       4.906   4.682  15.085  0.00  0.00    +0.000 A 
ATOM     18  N   UNL     1       5.198   4.273  13.825  0.00  0.00    +0.000 NA
BRANCH  13  20
ATOM     19  C   UNL     1       5.800   2.627  11.694  0.00  0.00    +0.000 C 
ATOM     20  C   UNL     1       6.890   3.563  12.197  0.00  0.00    +0.000 C 
ENDBRANCH  13  20
ENDBRANCH   1  16
TORSDOF 2
ENDMDL
MODEL 5
REMARK VINA RESULT:      -6.8      2.445      3.880
REMARK  Name = 
REMARK  4 active torsions:
REMARK  status: ('A' for Active; 'I' for Inactive)
REMARK    1  A    between atoms: C_1  and  C_2
REMARK    2  A    between atoms: C_2  and  C_3
REMARK    3  A    between atoms: C_6  and  C_7
REMARK    4  A    between atoms: N_17  and  C_18
REMARK                            x       y       z     vdW  Elec       q    Type
REMARK                         _______ _______ _______ _____ _____    ______ ____
ROOT
ATOM      1  C   UNL     1       5.380   4.640  17.026  0.00  0.00    +0.000 C 
ATOM      2  O   UNL     1       5.936   3.777  16.355  0.00  0.00    +0.000 OA
ATOM      3  N   UNL     1       4.020   4.582  17.374  0.00  0.00    +0.000 N 
ATOM      4  C   UNL     1       3.318   5.452  18.327  0.00  0.00    +0.000 C 
ATOM      5  C   UNL     1       3.165   4.901  19.747  0.00  0.00    +0.000 C 
ATOM      6  C   UNL     1       2.769   3.429  19.855  0.00  0.00    +0.000 C 
ATOM      7  C   UNL     1       3.942   2.465  19.626  0.00  0.00    +0.000 C 
ATOM      8  C   UNL     1       3.533   1.628  18.429  0.00  0.00    +0.000 C 
ATOM      9  C   UNL     1       2.505   2.497  17.720  0.00  0.00    +0.000 C 
ATOM     10  C   UNL     1       3.181   3.528  16.757  0.00  0.00    +0.000 C 
ATOM     11  N   UNL     1       1.754   3.144  18.824  0.00  0.00    +0.000 NA
ATOM     12  C   UNL     1       0.689   2.299  19.365  0.00  0.00    +0.000 C 
ENDROOT
BRANCH   1  16
ATOM     13  C   UNL     1       7.895   7.787  18.186  0.00  0.00    +0.000 A 
ATOM     14  N   UNL     1       7.985   6.636  18.877  0.00  0.00    +0.000 NA
ATOM     15  C   UNL     1       7.116   5.661  18.540  0.00  0.00    +0.000 A 
ATOM     16  C   UNL     1       6.226   5.754  17.496  0.00  0.00    +0.000 A 
ATOM     17  C   UNL     1       6.128   7.007  16.935  0.00  0.00    +0.000 A 
ATOM     18  N   UNL     1       6.959   8.033  17.245  0.00  0.00    +0.000 NA
BRANCH  13  20
ATOM     19  C   UNL     1       8.460  10.220  18.101  0.00  0.00    +0.000 C 
ATOM     20  C   UNL     1       8.962   8.819  18.424  0.00  0.00    +0.000 C 
ENDBRANCH  13  20
ENDBRANCH   1  16
TORSDOF 2
ENDMDL
MODEL 6
REMARK VINA RESULT:      -6.7      0.793      1.250
REMARK  Name = 
REMARK  4 active torsions:
REMARK  status: ('A' for Active; 'I' for Inactive)
REMARK    1  A    between atoms: C_1  and  C_2
REMARK    2  A    between atoms: C_2  and  C_3
REMARK    3  A    between atoms: C_6  and  C_7
REMARK    4  A    between atoms: N_17  and  C_18
REMARK                            x       y       z     vdW  Elec       q    Type
REMARK                         _______ _______ _______ _____ _____    ______ ____
ROOT
ATOM      1  C   UNL     1       3.545   5.763  18.078  0.00  0.00    +0.000 C 
ATOM      2  O   UNL     1       2.738   6.684  17.995  0.00  0.00    +0.000 OA
ATOM      3  N   UNL     1       3.670   4.954  19.220  0.00  0.00    +0.000 N 
ATOM      4  C   UNL     1       4.456   3.718  19.340  0.00  0.00    +0.000 C 
ATOM      5  C   UNL     1       3.682   2.413  19.142  0.00  0.00    +0.000 C 
ATOM      6  C   UNL     1       2.314   2.336  19.817  0.00  0.00    +0.000 C 
ATOM      7  C   UNL     1       1.214   3.083  19.050  0.00  0.00    +0.000 C 
ATOM      8  C   UNL     1       0.708   4.137  20.017  0.00  0.00    +0.000 C 
ATOM      9  C   UNL     1       1.868   4.320  20.985  0.00  0.00    +0.000 C 
ATOM     10  C   UNL     1       2.923   5.339  20.440  0.00  0.00    +0.000 C 
ATOM     11  N   UNL     1       2.419   2.953  21.153  0.00  0.00    +0.000 NA
ATOM     12  C   UNL     1       1.695   2.162  22.148  0.00  0.00    +0.000 C 
ENDROOT
BRANCH   1  16
ATOM     13  C   UNL     1       6.029   4.925  14.807  0.00  0.00    +0.000 A 
ATOM     14  N   UNL     1       6.038   6.183  15.284  0.00  0.00    +0.000 NA
ATOM     15  C   UNL     1       5.176   6.454  16.287  0.00  0.00    +0.000 A 
ATOM     16  C   UNL     1       4.376   5.510  16.885  0.00  0.00    +0.000 A 
ATOM     17  C   UNL     1       4.351   4.290  16.248  0.00  0.00    +0.000 A 
ATOM     18  N   UNL     1       5.178   3.964  15.223  0.00  0.00    +0.000 NA
BRANCH  13  20
ATOM     19  C   UNL     1       6.530   3.723  12.674  0.00  0.00    +0.000 C 
ATOM     20  C   UNL     1       7.098   4.557  13.815  0.00  0.00    +0.000 C 
ENDBRANCH  13  20
ENDBRANCH   1  16
TORSDOF 2
ENDMDL
MODEL 7
REMARK VINA RESULT:      -6.2      1.503      2.211
REMARK  Name = 
REMARK  4 active torsions:
REMARK  status: ('A' for Active; 'I' for Inactive)
REMARK    1  A    between atoms: C_1  and  C_2
REMARK    2  A    between atoms: C_2  and  C_3
REMARK    3  A    between atoms: C_6  and  C_7
REMARK    4  A    between atoms: N_17  and  C_18
REMARK                            x       y       z     vdW  Elec       q    Type
REMARK                         _______ _______ _______ _____ _____    ______ ____
ROOT
ATOM      1  C   UNL     1       5.426   5.725  16.248  0.00  0.00    +0.000 C 
ATOM      2  O   UNL     1       5.297   6.944  16.195  0.00  0.00    +0.000 OA
ATOM      3  N   UNL     1       5.226   4.984  17.426  0.00  0.00    +0.000 N 
ATOM      4  C   UNL     1       5.163   3.521  17.543  0.00  0.00    +0.000 C 
ATOM      5  C   UNL     1       3.759   2.912  17.544  0.00  0.00    +0.000 C 
ATOM      6  C   UNL     1       2.713   3.639  18.387  0.00  0.00    +0.000 C 
ATOM      7  C   UNL     1       2.148   4.894  17.705  0.00  0.00    +0.000 C 
ATOM      8  C   UNL     1       2.490   6.036  18.643  0.00  0.00    +0.000 C 
ATOM      9  C   UNL     1       3.669   5.501  19.443  0.00  0.00    +0.000 C 
ATOM     10  C   UNL     1       5.025   5.721  18.695  0.00  0.00    +0.000 C 
ATOM     11  N   UNL     1       3.348   4.067  19.647  0.00  0.00    +0.000 NA
ATOM     12  C   UNL     1       2.454   3.836  20.782  0.00  0.00    +0.000 C 
ENDROOT
BRANCH   1  16
ATOM     13  C   UNL     1       6.394   3.614  12.759  0.00  0.00    +0.000 A 
ATOM     14  N   UNL     1       7.379   4.313  13.352  0.00  0.00    +0.000 NA
ATOM     15  C   UNL     1       7.032   5.048  14.429  0.00  0.00    +0.000 A 
ATOM     16  C   UNL     1       5.775   5.046  14.986  0.00  0.00    +0.000 A 
ATOM     17  C   UNL     1       4.817   4.400  14.238  0.00  0.00    +0.000 A 
ATOM     18  N   UNL     1       5.099   3.662  13.135  0.00  0.00    +0.000 NA
BRANCH  13  20
ATOM     19  C   UNL     1       5.690   1.637  11.402  0.00  0.00    +0.000 C 
ATOM     20  C   UNL     1       6.789   2.656  11.668  0.00  0.00    +0.000 C 
ENDBRANCH  13  20
ENDBRANCH   1  16
TORSDOF 2
ENDMDL
MODEL 8
REMARK VINA RESULT:      -6.1      3.409      5.982
REMARK  Name = 
REMARK  4 active torsions:
REMARK  status: ('A' for Active; 'I' for Inactive)
REMARK    1  A    between atoms: C_1  and  C_2
REMARK    2  A    between atoms: C_2  and  C_3
REMARK    3  A    between atoms: C_6  and  C_7
REMARK    4  A    between atoms: N_17  and  C_18
REMARK                            x       y       z     vdW  Elec       q    Type
REMARK                         _______ _______ _______ _____ _____    ______ ____
ROOT
ATOM      1  C   UNL     1       3.399   6.949  17.892  0.00  0.00    +0.000 C 
ATOM      2  O   UNL     1       4.549   7.341  17.722  0.00  0.00    +0.000 OA
ATOM      3  N   UNL     1       2.992   5.629  17.632  0.00  0.00    +0.000 N 
ATOM      4  C   UNL     1       1.703   5.021  17.988  0.00  0.00    +0.000 C 
ATOM      5  C   UNL     1       1.682   4.216  19.290  0.00  0.00    +0.000 C 
ATOM      6  C   UNL     1       2.880   3.298  19.530  0.00  0.00    +0.000 C 
ATOM      7  C   UNL     1       4.125   4.042  20.032  0.00  0.00    +0.000 C 
ATOM      8  C   UNL     1       5.188   3.778  18.983  0.00  0.00    +0.000 C 
ATOM      9  C   UNL     1       4.384   3.435  17.736  0.00  0.00    +0.000 C 
ATOM     10  C   UNL     1       3.947   4.719  16.957  0.00  0.00    +0.000 C 
ATOM     11  N   UNL     1       3.234   2.653  18.252  0.00  0.00    +0.000 NA
ATOM     12  C   UNL     1       3.549   1.238  18.455  0.00  0.00    +0.000 C 
ENDROOT
BRANCH   1  16
ATOM     13  C   UNL     1       0.539   9.602  19.426  0.00  0.00    +0.000 A 
ATOM     14  N   UNL     1       0.907   9.765  18.143  0.00  0.00    +0.000 NA
ATOM     15  C   UNL     1       1.884   8.952  17.688  0.00  0.00    +0.000 A 
ATOM     16  C   UNL     1       2.442   7.936  18.428  0.00  0.00    +0.000 A 
ATOM     17  C   UNL     1       2.087   7.933  19.758  0.00  0.00    +0.000 A 
ATOM     18  N   UNL     1       1.127   8.737  20.279  0.00  0.00    +0.000 NA
BRANCH  13  20
ATOM     19  C   UNL     1      -1.354  11.087  18.749  0.00  0.00    +0.000 C 
ATOM     20  C   UNL     1      -0.662  10.373  19.902  0.00  0.00    +0.000 C 
ENDBRANCH  13  20
ENDBRANCH   1  16
TORSDOF 2
ENDMDL
MODEL 9
REMARK VINA RESULT:      -6.1      3.419      6.140
REMARK  Name = 
REMARK  4 active torsions:
REMARK  status: ('A' for Active; 'I' for Inactive)
REMARK    1  A    between atoms: C_1  and  C_2
REMARK    2  A    between atoms: C_2  and  C_3
REMARK    3  A    between atoms: C_6  and  C_7
REMARK    4  A    between atoms: N_17  and  C_18
REMARK                            x       y       z     vdW  Elec       q    Type
REMARK                         _______ _______ _______ _____ _____    ______ ____
ROOT
ATOM      1  C   UNL     1       3.316   6.968  17.966  0.00  0.00    +0.000 C 
ATOM      2  O   UNL     1       4.454   7.399  17.807  0.00  0.00    +0.000 OA
ATOM      3  N   UNL     1       2.950   5.644  17.669  0.00  0.00    +0.000 N 
ATOM      4  C   UNL     1       1.680   4.987  18.007  0.00  0.00    +0.000 C 
ATOM      5  C   UNL     1       1.684   4.145  19.286  0.00  0.00    +0.000 C 
ATOM      6  C   UNL     1       2.909   3.258  19.500  0.00  0.00    +0.000 C 
ATOM      7  C   UNL     1       4.132   4.025  20.023  0.00  0.00    +0.000 C 
ATOM      8  C   UNL     1       5.202   3.823  18.968  0.00  0.00    +0.000 C 
ATOM      9  C   UNL     1       4.408   3.492  17.712  0.00  0.00    +0.000 C 
ATOM     10  C   UNL     1       3.931   4.783  16.969  0.00  0.00    +0.000 C 
ATOM     11  N   UNL     1       3.282   2.660  18.204  0.00  0.00    +0.000 NA
ATOM     12  C   UNL     1       3.640   1.251  18.368  0.00  0.00    +0.000 C 
ENDROOT
BRANCH   1  16
ATOM     13  C   UNL     1       0.657   9.795  19.548  0.00  0.00    +0.000 A 
ATOM     14  N   UNL     1       1.125   8.851  20.385  0.00  0.00    +0.000 NA
ATOM     15  C   UNL     1       1.919   7.905  19.841  0.00  0.00    +0.000 A 
ATOM     16  C   UNL     1       2.330   7.910  18.529  0.00  0.00    +0.000 A 
ATOM     17  C   UNL     1       1.701   8.841  17.734  0.00  0.00    +0.000 A 
ATOM     18  N   UNL     1       0.878   9.805  18.217  0.00  0.00    +0.000 NA
BRANCH  13  20
ATOM     19  C   UNL     1      -0.144  10.832  21.677  0.00  0.00    +0.000 C 
ATOM     20  C   UNL     1      -0.084  10.953  20.161  0.00  0.00    +0.000 C 
ENDBRANCH  13  20
ENDBRANCH   1  16
TORSDOF 2
ENDMDL
