MODEL 1
REMARK VINA RESULT:      -7.3      0.000      0.000
REMARK  Name = 
REMARK  5 active torsions:
REMARK  status: ('A' for Active; 'I' for Inactive)
REMARK    1  A    between atoms: C_1  and  C_2
REMARK    2  A    between atoms: C_5  and  N_6
REMARK    3  A    between atoms: C_10  and  C_11
REMARK    4  A    between atoms: C_11  and  C_12
REMARK    5  A    between atoms: C_11  and  C_13
REMARK                            x       y       z     vdW  Elec       q    Type
REMARK                         _______ _______ _______ _____ _____    ______ ____
ROOT
ATOM      1  N   UNL     1       4.445   4.024  17.108  0.00  0.00    +0.000 N 
ATOM      2  N   UNL     1       4.075   2.735  17.384  0.00  0.00    +0.000 NA
ATOM      3  C   UNL     1       3.283   2.825  18.454  0.00  0.00    +0.000 A 
ATOM      4  C   UNL     1       3.041   4.152  18.820  0.00  0.00    +0.000 A 
ATOM      5  C   UNL     1       2.210   4.796  19.814  0.00  0.00    +0.000 A 
ATOM      6  N   UNL     1       2.145   6.101  19.838  0.00  0.00    +0.000 NA
ATOM      7  N   UNL     1       2.863   6.836  18.914  0.00  0.00    +0.000 N 
ATOM      8  C   UNL     1       3.681   6.337  17.907  0.00  0.00    +0.000 A 
ATOM      9  O   UNL     1       4.203   7.105  17.108  0.00  0.00    +0.000 OA
ATOM     10  C   UNL     1       3.778   4.907  17.930  0.00  0.00    +0.000 A 
ATOM     11  H   UNL     1       2.739   7.842  18.942  0.00  0.00    +0.000 HD
ENDROOT
BRANCH   1  16
ATOM     12  C   UNL     1       8.098   5.275  12.876  0.00  0.00    +0.000 C 
ATOM     13  C   UNL     1       7.159   4.884  13.979  0.00  0.00    +0.000 A 
ATOM     14  C   UNL     1       5.923   4.288  13.707  0.00  0.00    +0.000 A 
ATOM     15  C   UNL     1       5.047   3.965  14.748  0.00  0.00    +0.000 A 
ATOM     16  C   UNL     1       5.387   4.271  16.073  0.00  0.00    +0.000 A 
ATOM     17  C   UNL     1       6.644   4.813  16.350  0.00  0.00    +0.000 A 
ATOM     18  C   UNL     1       7.521   5.122  15.308  0.00  0.00    +0.000 A 
ENDBRANCH   1  16
BRANCH   5  19
ATOM     19  C   UNL     1       1.401   3.988  20.819  0.00  0.00    +0.000 C 
ATOM     20  C   UNL     1       0.463   3.033  20.085  0.00  0.00    +0.000 C 
ATOM     21  C   UNL     1       2.337   3.221  21.751  0.00  0.00    +0.000 C 
ENDBRANCH   5  19
TORSDOF 2
ENDMDL
MODEL 2
REMARK VINA RESULT:      -7.1      2.783      6.590
REMARK  Name = 
REMARK  5 active torsions:
REMARK  status: ('A' for Active; 'I' for Inactive)
REMARK    1  A    between atoms: C_1  and  C_2
REMARK    2  A    between atoms: C_5  and  N_6
REMARK    3  A    between atoms: C_10  and  C_11
REMARK    4  A    between atoms: C_11  and  C_12
REMARK    5  A    between atoms: C_11  and  C_13
REMARK                            x       y       z     vdW  Elec       q    Type
REMARK                         _______ _______ _______ _____ _____    ______ ____
ROOT
ATOM      1  N   UNL     1       3.118   7.028  18.095  0.00  0.00    +0.000 N 
ATOM      2  N   UNL     1       4.017   7.680  17.294  0.00  0.00    +0.000 NA
ATOM      3  C   UNL     1       4.776   6.716  16.771  0.00  0.00    +0.000 A 
ATOM      4  C   UNL     1       4.327   5.441  17.127  0.00  0.00    +0.000 A 
ATOM      5  C   UNL     1       4.715   4.093  16.775  0.00  0.00    +0.000 A 
ATOM      6  N   UNL     1       4.012   3.090  17.232  0.00  0.00    +0.000 NA
ATOM      7  N   UNL     1       2.915   3.337  18.034  0.00  0.00    +0.000 N 
ATOM      8  C   UNL     1       2.436   4.581  18.429  0.00  0.00    +0.000 A 
ATOM      9  O   UNL     1       1.404   4.657  19.086  0.00  0.00    +0.000 OA
ATOM     10  C   UNL     1       3.249   5.663  17.960  0.00  0.00    +0.000 A 
ATOM     11  H   UNL     1       2.374   2.529  18.321  0.00  0.00    +0.000 HD
ENDROOT
BRANCH   1  16
ATOM     12  C   UNL     1      -0.273  10.238  21.414  0.00  0.00    +0.000 C 
ATOM     13  C   UNL     1       0.567   9.353  20.543  0.00  0.00    +0.000 A 
ATOM     14  C   UNL     1       1.224   8.230  21.059  0.00  0.00    +0.000 A 
ATOM     15  C   UNL     1       2.030   7.439  20.236  0.00  0.00    +0.000 A 
ATOM     16  C   UNL     1       2.219   7.787  18.891  0.00  0.00    +0.000 A 
ATOM     17  C   UNL     1       1.520   8.874  18.361  0.00  0.00    +0.000 A 
ATOM     18  C   UNL     1       0.704   9.653  19.184  0.00  0.00    +0.000 A 
ENDBRANCH   1  16
BRANCH   5  19
ATOM     19  C   UNL     1       5.911   3.818  15.873  0.00  0.00    +0.000 C 
ATOM     20  C   UNL     1       5.623   4.317  14.460  0.00  0.00    +0.000 C 
ATOM     21  C   UNL     1       7.160   4.487  16.441  0.00  0.00    +0.000 C 
ENDBRANCH   5  19
TORSDOF 2
ENDMDL
MODEL 3
REMARK VINA RESULT:      -6.9      0.168      1.091
REMARK  Name = 
REMARK  5 active torsions:
REMARK  status: ('A' for Active; 'I' for Inactive)
REMARK    1  A    between atoms: C_1  and  C_2
REMARK    2  A    between atoms: C_5  and  N_6
REMARK    3  A    between atoms: C_10  and  C_11
REMARK    4  A    between atoms: C_11  and  C_12
REMARK    5  A    between atoms: C_11  and  C_13
REMARK                            x       y       z     vdW  Elec       q    Type
REMARK                         _______ _______ _______ _____ _____    ______ ____
ROOT
ATOM      1  N   UNL     1       4.380   4.107  17.115  0.00  0.00    +0.000 N 
ATOM      2  N   UNL     1       4.056   2.797  17.345  0.00  0.00    +0.000 NA
ATOM      3  C   UNL     1       3.298   2.817  18.443  0.00  0.00    +0.000 A 
ATOM      4  C   UNL     1       3.030   4.120  18.873  0.00  0.00    +0.000 A 
ATOM      5  C   UNL     1       2.214   4.696  19.920  0.00  0.00    +0.000 A 
ATOM      6  N   UNL     1       2.112   5.996  20.003  0.00  0.00    +0.000 NA
ATOM      7  N   UNL     1       2.778   6.791  19.091  0.00  0.00    +0.000 N 
ATOM      8  C   UNL     1       3.576   6.359  18.037  0.00  0.00    +0.000 A 
ATOM      9  O   UNL     1       4.050   7.176  17.256  0.00  0.00    +0.000 OA
ATOM     10  C   UNL     1       3.716   4.934  17.995  0.00  0.00    +0.000 A 
ATOM     11  H   UNL     1       2.626   7.790  19.166  0.00  0.00    +0.000 HD
ENDROOT
BRANCH   1  16
ATOM     12  C   UNL     1       8.143   5.129  12.917  0.00  0.00    +0.000 C 
ATOM     13  C   UNL     1       7.147   4.926  14.020  0.00  0.00    +0.000 A 
ATOM     14  C   UNL     1       7.479   5.171  15.357  0.00  0.00    +0.000 A 
ATOM     15  C   UNL     1       6.546   4.942  16.373  0.00  0.00    +0.000 A 
ATOM     16  C   UNL     1       5.280   4.426  16.063  0.00  0.00    +0.000 A 
ATOM     17  C   UNL     1       4.928   4.236  14.724  0.00  0.00    +0.000 A 
ATOM     18  C   UNL     1       5.858   4.480  13.711  0.00  0.00    +0.000 A 
ENDBRANCH   1  16
BRANCH   5  19
ATOM     19  C   UNL     1       1.461   3.821  20.914  0.00  0.00    +0.000 C 
ATOM     20  C   UNL     1       0.469   2.927  20.175  0.00  0.00    +0.000 C 
ATOM     21  C   UNL     1       2.446   2.983  21.727  0.00  0.00    +0.000 C 
ENDBRANCH   5  19
TORSDOF 2
ENDMDL
MODEL 4
REMARK VINA RESULT:      -6.9      2.762      6.520
REMARK  Name = 
REMARK  5 active torsions:
REMARK  status: ('A' for Active; 'I' for Inactive)
REMARK    1  A    between atoms: C_1  and  C_2
REMARK    2  A    between atoms: C_5  and  N_6
REMARK    3  A    between atoms: C_10  and  C_11
REMARK    4  A    between atoms: C_11  and  C_12
REMARK    5  A    between atoms: C_11  and  C_13
REMARK                            x       y       z     vdW  Elec       q    Type
REMARK                         _______ _______ _______ _____ _____    ______ ____
ROOT
ATOM      1  N   UNL     1       3.211   7.047  18.023  0.00  0.00    +0.000 N 
ATOM      2  N   UNL     1       4.116   7.674  17.209  0.00  0.00    +0.000 NA
ATOM      3  C   UNL     1       4.845   6.688  16.681  0.00  0.00    +0.000 A 
ATOM      4  C   UNL     1       4.368   5.427  17.047  0.00  0.00    +0.000 A 
ATOM      5  C   UNL     1       4.718   4.068  16.695  0.00  0.00    +0.000 A 
ATOM      6  N   UNL     1       3.996   3.084  17.164  0.00  0.00    +0.000 NA
ATOM      7  N   UNL     1       2.914   3.362  17.978  0.00  0.00    +0.000 N 
ATOM      8  C   UNL     1       2.471   4.618  18.374  0.00  0.00    +0.000 A 
ATOM      9  O   UNL     1       1.449   4.723  19.042  0.00  0.00    +0.000 OA
ATOM     10  C   UNL     1       3.305   5.679  17.891  0.00  0.00    +0.000 A 
ATOM     11  H   UNL     1       2.356   2.569  18.274  0.00  0.00    +0.000 HD
ENDROOT
BRANCH   1  16
ATOM     12  C   UNL     1      -0.531  10.052  21.152  0.00  0.00    +0.000 C 
ATOM     13  C   UNL     1       0.492   9.314  20.340  0.00  0.00    +0.000 A 
ATOM     14  C   UNL     1       0.743   9.649  19.005  0.00  0.00    +0.000 A 
ATOM     15  C   UNL     1       1.676   8.925  18.255  0.00  0.00    +0.000 A 
ATOM     16  C   UNL     1       2.340   7.831  18.826  0.00  0.00    +0.000 A 
ATOM     17  C   UNL     1       2.132   7.532  20.175  0.00  0.00    +0.000 A 
ATOM     18  C   UNL     1       1.210   8.266  20.924  0.00  0.00    +0.000 A 
ENDBRANCH   1  16
BRANCH   5  19
ATOM     19  C   UNL     1       5.896   3.760  15.781  0.00  0.00    +0.000 C 
ATOM     20  C   UNL     1       5.602   4.255  14.368  0.00  0.00    +0.000 C 
ATOM     21  C   UNL     1       7.167   4.406  16.329  0.00  0.00    +0.000 C 
ENDBRANCH   5  19
TORSDOF 2
ENDMDL
MODEL 5
REMARK VINA RESULT:      -6.8      3.761      7.527
REMARK  Name = 
REMARK  5 active torsions:
REMARK  status: ('A' for Active; 'I' for Inactive)
REMARK    1  A    between atoms: C_1  and  C_2
REMARK    2  A    between atoms: C_5  and  N_6
REMARK    3  A    between atoms: C_10  and  C_11
REMARK    4  A    between atoms: C_11  and  C_12
REMARK    5  A    between atoms: C_11  and  C_13
REMARK                            x       y       z     vdW  Elec       q    Type
REMARK                         _______ _______ _______ _____ _____    ______ ____
ROOT
ATOM      1  N   UNL     1       1.994   8.208  19.189  0.00  0.00    +0.000 N 
ATOM      2  N   UNL     1       2.391   8.922  18.091  0.00  0.00    +0.000 NA
ATOM      3  C   UNL     1       3.238   8.119  17.445  0.00  0.00    +0.000 A 
ATOM      4  C   UNL     1       3.322   6.856  18.037  0.00  0.00    +0.000 A 
ATOM      5  C   UNL     1       3.997   5.621  17.704  0.00  0.00    +0.000 A 
ATOM      6  N   UNL     1       3.793   4.565  18.447  0.00  0.00    +0.000 NA
ATOM      7  N   UNL     1       2.936   4.648  19.528  0.00  0.00    +0.000 N 
ATOM      8  C   UNL     1       2.222   5.768  19.940  0.00  0.00    +0.000 A 
ATOM      9  O   UNL     1       1.438   5.681  20.878  0.00  0.00    +0.000 OA
ATOM     10  C   UNL     1       2.499   6.926  19.143  0.00  0.00    +0.000 A 
ATOM     11  H   UNL     1       2.772   3.790  20.041  0.00  0.00    +0.000 HD
ENDROOT
BRANCH   1  16
ATOM     12  C   UNL     1      -1.171  10.919  23.120  0.00  0.00    +0.000 C 
ATOM     13  C   UNL     1      -0.376  10.155  22.104  0.00  0.00    +0.000 A 
ATOM     14  C   UNL     1       0.656   9.291  22.485  0.00  0.00    +0.000 A 
ATOM     15  C   UNL     1       1.408   8.614  21.520  0.00  0.00    +0.000 A 
ATOM     16  C   UNL     1       1.158   8.827  20.156  0.00  0.00    +0.000 A 
ATOM     17  C   UNL     1       0.090   9.644  19.776  0.00  0.00    +0.000 A 
ATOM     18  C   UNL     1      -0.667  10.307  20.744  0.00  0.00    +0.000 A 
ENDBRANCH   1  16
BRANCH   5  19
ATOM     19  C   UNL     1       4.925   5.520  16.501  0.00  0.00    +0.000 C 
ATOM     20  C   UNL     1       6.278   6.142  16.834  0.00  0.00    +0.000 C 
ATOM     21  C   UNL     1       5.087   4.060  16.084  0.00  0.00    +0.000 C 
ENDBRANCH   5  19
TORSDOF 2
ENDMDL
MODEL 6
REMARK VINA RESULT:      -6.7      3.771      7.462
REMARK  Name = 
REMARK  5 active torsions:
REMARK  status: ('A' for Active; 'I' for Inactive)
REMARK    1  A    between atoms: C_1  and  C_2
REMARK    2  A    between atoms: C_5  and  N_6
REMARK    3  A    between atoms: C_10  and  C_11
REMARK    4  A    between atoms: C_11  and  C_12
REMARK    5  A    between atoms: C_11  and  C_13
REMARK                            x       y       z     vdW  Elec       q    Type
REMARK                         _______ _______ _______ _____ _____    ______ ____
ROOT
ATOM      1  N   UNL     1       2.031   8.223  19.240  0.00  0.00    +0.000 N 
ATOM      2  N   UNL     1       2.421   8.896  18.113  0.00  0.00    +0.000 NA
ATOM      3  C   UNL     1       3.207   8.041  17.456  0.00  0.00    +0.000 A 
ATOM      4  C   UNL     1       3.254   6.788  18.073  0.00  0.00    +0.000 A 
ATOM      5  C   UNL     1       3.859   5.516  17.743  0.00  0.00    +0.000 A 
ATOM      6  N   UNL     1       3.633   4.486  18.516  0.00  0.00    +0.000 NA
ATOM      7  N   UNL     1       2.820   4.631  19.623  0.00  0.00    +0.000 N 
ATOM      8  C   UNL     1       2.174   5.791  20.035  0.00  0.00    +0.000 A 
ATOM      9  O   UNL     1       1.420   5.759  21.002  0.00  0.00    +0.000 OA
ATOM     10  C   UNL     1       2.474   6.919  19.204  0.00  0.00    +0.000 A 
ATOM     11  H   UNL     1       2.636   3.792  20.161  0.00  0.00    +0.000 HD
ENDROOT
BRANCH   1  16
ATOM     12  C   UNL     1      -1.296  10.746  23.163  0.00  0.00    +0.000 C 
ATOM     13  C   UNL     1      -0.394  10.142  22.128  0.00  0.00    +0.000 A 
ATOM     14  C   UNL     1      -0.589  10.377  20.763  0.00  0.00    +0.000 A 
ATOM     15  C   UNL     1       0.242   9.776  19.813  0.00  0.00    +0.000 A 
ATOM     16  C   UNL     1       1.258   8.900  20.221  0.00  0.00    +0.000 A 
ATOM     17  C   UNL     1       1.491   8.710  21.586  0.00  0.00    +0.000 A 
ATOM     18  C   UNL     1       0.667   9.324  22.531  0.00  0.00    +0.000 A 
ENDBRANCH   1  16
BRANCH   5  19
ATOM     19  C   UNL     1       4.738   5.348  16.511  0.00  0.00    +0.000 C 
ATOM     20  C   UNL     1       6.043   6.119  16.694  0.00  0.00    +0.000 C 
ATOM     21  C   UNL     1       5.014   3.867  16.262  0.00  0.00    +0.000 C 
ENDBRANCH   5  19
TORSDOF 2
ENDMDL
MODEL 7
REMARK VINA RESULT:      -6.7      4.722      7.695
REMARK  Name = 
REMARK  5 active torsions:
REMARK  status: ('A' for Active; 'I' for Inactive)
REMARK    1  A    between atoms: C_1  and  C_2
REMARK    2  A    between atoms: C_5  and  N_6
REMARK    3  A    between atoms: C_10  and  C_11
REMARK    4  A    between atoms: C_11  and  C_12
REMARK    5  A    between atoms: C_11  and  C_13
REMARK                            x       y       z     vdW  Elec       q    Type
REMARK                         _______ _______ _______ _____ _____    ______ ____
ROOT
ATOM      1  N   UNL     1       1.413   9.221  18.820  0.00  0.00    +0.000 N 
ATOM      2  N   UNL     1       1.942   9.286  17.559  0.00  0.00    +0.000 NA
ATOM      3  C   UNL     1       2.762   8.237  17.474  0.00  0.00    +0.000 A 
ATOM      4  C   UNL     1       2.700   7.428  18.612  0.00  0.00    +0.000 A 
ATOM      5  C   UNL     1       3.292   6.164  18.992  0.00  0.00    +0.000 A 
ATOM      6  N   UNL     1       2.951   5.620  20.131  0.00  0.00    +0.000 NA
ATOM      7  N   UNL     1       2.033   6.258  20.942  0.00  0.00    +0.000 N 
ATOM      8  C   UNL     1       1.387   7.461  20.683  0.00  0.00    +0.000 A 
ATOM      9  O   UNL     1       0.536   7.878  21.460  0.00  0.00    +0.000 OA
ATOM     10  C   UNL     1       1.812   8.065  19.455  0.00  0.00    +0.000 A 
ATOM     11  H   UNL     1       1.764   5.771  21.790  0.00  0.00    +0.000 HD
ENDROOT
BRANCH   1  16
ATOM     12  C   UNL     1      -2.131  13.247  20.832  0.00  0.00    +0.000 C 
ATOM     13  C   UNL     1      -1.194  12.230  20.252  0.00  0.00    +0.000 A 
ATOM     14  C   UNL     1      -1.605  11.351  19.244  0.00  0.00    +0.000 A 
ATOM     15  C   UNL     1      -0.726  10.387  18.742  0.00  0.00    +0.000 A 
ATOM     16  C   UNL     1       0.566  10.268  19.273  0.00  0.00    +0.000 A 
ATOM     17  C   UNL     1       0.996  11.182  20.239  0.00  0.00    +0.000 A 
ATOM     18  C   UNL     1       0.118  12.152  20.728  0.00  0.00    +0.000 A 
ENDBRANCH   1  16
BRANCH   5  19
ATOM     19  C   UNL     1       4.289   5.448  18.091  0.00  0.00    +0.000 C 
ATOM     20  C   UNL     1       5.468   4.942  18.917  0.00  0.00    +0.000 C 
ATOM     21  C   UNL     1       3.602   4.295  17.361  0.00  0.00    +0.000 C 
ENDBRANCH   5  19
TORSDOF 2
ENDMDL
MODEL 8
REMARK VINA RESULT:      -6.7      3.216      4.364
REMARK  Name = 
REMARK  5 active torsions:
REMARK  status: ('A' for Active; 'I' for Inactive)
REMARK    1  A    between atoms: C_1  and  C_2
REMARK    2  A    between atoms: C_5  and  N_6
REMARK    3  A    between atoms: C_10  and  C_11
REMARK    4  A    between atoms: C_11  and  C_12
REMARK    5  A    between atoms: C_11  and  C_13
REMARK                            x       y       z     vdW  Elec       q    Type
REMARK                         _______ _______ _______ _____ _____    ______ ____
ROOT
ATOM      1  N   UNL     1       2.642   6.501  19.160  0.00  0.00    +0.000 N 
ATOM      2  N   UNL     1       2.184   5.834  20.265  0.00  0.00    +0.000 NA
ATOM      3  C   UNL     1       1.504   6.746  20.961  0.00  0.00    +0.000 A 
ATOM      4  C   UNL     1       1.416   7.966  20.285  0.00  0.00    +0.000 A 
ATOM      5  C   UNL     1       0.740   9.220  20.537  0.00  0.00    +0.000 A 
ATOM      6  N   UNL     1       0.794  10.164  19.634  0.00  0.00    +0.000 NA
ATOM      7  N   UNL     1       1.489   9.944  18.461  0.00  0.00    +0.000 N 
ATOM      8  C   UNL     1       2.164   8.784  18.098  0.00  0.00    +0.000 A 
ATOM      9  O   UNL     1       2.679   8.699  16.989  0.00  0.00    +0.000 OA
ATOM     10  C   UNL     1       2.135   7.782  19.121  0.00  0.00    +0.000 A 
ATOM     11  H   UNL     1       1.459  10.686  17.771  0.00  0.00    +0.000 HD
ENDROOT
BRANCH   1  16
ATOM     12  C   UNL     1       5.957   3.911  15.271  0.00  0.00    +0.000 C 
ATOM     13  C   UNL     1       5.110   4.546  16.334  0.00  0.00    +0.000 A 
ATOM     14  C   UNL     1       3.901   3.972  16.744  0.00  0.00    +0.000 A 
ATOM     15  C   UNL     1       3.110   4.599  17.711  0.00  0.00    +0.000 A 
ATOM     16  C   UNL     1       3.504   5.831  18.252  0.00  0.00    +0.000 A 
ATOM     17  C   UNL     1       4.738   6.376  17.886  0.00  0.00    +0.000 A 
ATOM     18  C   UNL     1       5.531   5.739  16.929  0.00  0.00    +0.000 A 
ENDBRANCH   1  16
BRANCH   5  19
ATOM     19  C   UNL     1      -0.045   9.458  21.820  0.00  0.00    +0.000 C 
ATOM     20  C   UNL     1       0.890   9.377  23.024  0.00  0.00    +0.000 C 
ATOM     21  C   UNL     1      -0.742  10.816  21.765  0.00  0.00    +0.000 C 
ENDBRANCH   5  19
TORSDOF 2
ENDMDL
MODEL 9
REMARK VINA RESULT:      -6.7      3.885      5.938
REMARK  Name = 
REMARK  5 active torsions:
REMARK  status: ('A' for Active; 'I' for Inactive)
REMARK    1  A    between atoms: C_1  and  C_2
REMARK    2  A    between atoms: C_5  and  N_6
REMARK    3  A    between atoms: C_10  and  C_11
REMARK    4  A    between atoms: C_11  and  C_12
REMARK    5  A    between atoms: C_11  and  C_13
REMARK                            x       y       z     vdW  Elec       q    Type
REMARK                         _______ _______ _______ _____ _____    ______ ____
ROOT
ATOM      1  N   UNL     1       2.264   7.519  18.357  0.00  0.00    +0.000 N 
ATOM      2  N   UNL     1       2.547   8.424  17.370  0.00  0.00    +0.000 NA
ATOM      3  C   UNL     1       2.019   9.574  17.795  0.00  0.00    +0.000 A 
ATOM      4  C   UNL     1       1.492   9.466  19.084  0.00  0.00    +0.000 A 
ATOM      5  C   UNL     1       0.904  10.397  20.022  0.00  0.00    +0.000 A 
ATOM      6  N   UNL     1       0.580   9.977  21.217  0.00  0.00    +0.000 NA
ATOM      7  N   UNL     1       0.810   8.659  21.560  0.00  0.00    +0.000 N 
ATOM      8  C   UNL     1       1.378   7.676  20.757  0.00  0.00    +0.000 A 
ATOM      9  O   UNL     1       1.591   6.560  21.216  0.00  0.00    +0.000 OA
ATOM     10  C   UNL     1       1.678   8.144  19.436  0.00  0.00    +0.000 A 
ATOM     11  H   UNL     1       0.589   8.395  22.513  0.00  0.00    +0.000 HD
ENDROOT
BRANCH   1  16
ATOM     12  C   UNL     1       3.637   1.977  17.880  0.00  0.00    +0.000 C 
ATOM     13  C   UNL     1       3.300   3.437  17.944  0.00  0.00    +0.000 A 
ATOM     14  C   UNL     1       4.286   4.405  18.164  0.00  0.00    +0.000 A 
ATOM     15  C   UNL     1       3.945   5.758  18.255  0.00  0.00    +0.000 A 
ATOM     16  C   UNL     1       2.603   6.153  18.165  0.00  0.00    +0.000 A 
ATOM     17  C   UNL     1       1.625   5.194  17.889  0.00  0.00    +0.000 A 
ATOM     18  C   UNL     1       1.972   3.846  17.784  0.00  0.00    +0.000 A 
ENDBRANCH   1  16
BRANCH   5  19
ATOM     19  C   UNL     1       0.669  11.856  19.654  0.00  0.00    +0.000 C 
ATOM     20  C   UNL     1      -0.647  11.996  18.894  0.00  0.00    +0.000 C 
ATOM     21  C   UNL     1       0.663  12.721  20.914  0.00  0.00    +0.000 C 
ENDBRANCH   5  19
TORSDOF 2
ENDMDL
