MODEL 1
REMARK VINA RESULT:      -8.0      0.000      0.000
REMARK  Name = 
REMARK  6 active torsions:
REMARK  status: ('A' for Active; 'I' for Inactive)
REMARK    1  A    between atoms: C_1  and  C_2
REMARK    2  A    between atoms: C_6  and  C_7
REMARK    3  A    between atoms: C_7  and  O_8
REMARK    4  A    between atoms: C_7  and  C_9
REMARK    5  A    between atoms: C_9  and  N_10
REMARK    6  A    between atoms: C_13  and  N_14
REMARK                            x       y       z     vdW  Elec       q    Type
REMARK                         _______ _______ _______ _____ _____    ______ ____
ROOT
ATOM      1  N   UNL     1       4.430   5.465  16.834  0.00  0.00    +0.000 NA
ATOM      2  C   UNL     1       3.964   4.072  16.853  0.00  0.00    +0.000 C 
ATOM      3  C   UNL     1       2.456   3.930  16.964  0.00  0.00    +0.000 C 
ATOM      4  C   UNL     1       1.916   4.644  18.199  0.00  0.00    +0.000 C 
ATOM      5  C   UNL     1       2.306   6.124  18.044  0.00  0.00    +0.000 C 
ATOM      6  C   UNL     1       3.813   6.315  17.862  0.00  0.00    +0.000 C 
ENDROOT
BRANCH   4   7
ATOM      7  N   UNL     1       2.418   4.114  19.509  0.00  0.00    +0.000 NA
ATOM      8  C   UNL     1       2.024   4.871  20.722  0.00  0.00    +0.000 C 
ATOM      9  C   UNL     1       2.405   4.009  21.924  0.00  0.00    +0.000 C 
ATOM     10  C   UNL     1       2.087   2.577  21.549  0.00  0.00    +0.000 C 
ATOM     11  S   UNL     1       2.591   2.457  19.850  0.00  0.00    +0.000 S 
ATOM     12  O   UNL     1       1.604   1.673  19.141  0.00  0.00    +0.000 OA
ATOM     13  O   UNL     1       4.003   2.142  19.828  0.00  0.00    +0.000 OA
ENDBRANCH   4   7
BRANCH   1  14
ATOM     14  C   UNL     1       5.908   5.485  16.998  0.00  0.00    +0.000 C 
BRANCH  14  15
ATOM     15  C   UNL     1       6.678   4.304  16.342  0.00  0.00    +0.000 C 
BRANCH  15  21
ATOM     16  C   UNL     1       5.450   2.683  11.710  0.00  0.00    +0.000 C 
ATOM     17  C   UNL     1       6.244   3.607  12.590  0.00  0.00    +0.000 A 
ATOM     18  C   UNL     1       7.160   4.511  12.044  0.00  0.00    +0.000 A 
ATOM     19  C   UNL     1       7.899   5.347  12.884  0.00  0.00    +0.000 A 
ATOM     20  C   UNL     1       7.730   5.274  14.274  0.00  0.00    +0.000 A 
ATOM     21  C   UNL     1       6.822   4.369  14.835  0.00  0.00    +0.000 A 
ATOM     22  C   UNL     1       6.082   3.535  13.977  0.00  0.00    +0.000 A 
ENDBRANCH  15  21
BRANCH  15  23
ATOM     23  O   UNL     1       7.984   4.182  16.910  0.00  0.00    +0.000 OA
ATOM     24  H   UNL     1       8.342   3.321  16.633  0.00  0.00    +0.000 HD
ENDBRANCH  15  23
ENDBRANCH  14  15
ENDBRANCH   1  14
TORSDOF 5
ENDMDL
MODEL 2
REMARK VINA RESULT:      -7.5      1.818      2.212
REMARK  Name = 
REMARK  6 active torsions:
REMARK  status: ('A' for Active; 'I' for Inactive)
REMARK    1  A    between atoms: C_1  and  C_2
REMARK    2  A    between atoms: C_6  and  C_7
REMARK    3  A    between atoms: C_7  and  O_8
REMARK    4  A    between atoms: C_7  and  C_9
REMARK    5  A    between atoms: C_9  and  N_10
REMARK    6  A    between atoms: C_13  and  N_14
REMARK                            x       y       z     vdW  Elec       q    Type
REMARK                         _______ _______ _______ _____ _____    ______ ____
ROOT
ATOM      1  N   UNL     1       5.247   6.471  17.495  0.00  0.00    +0.000 NA
ATOM      2  C   UNL     1       3.790   6.642  17.568  0.00  0.00    +0.000 C 
ATOM      3  C   UNL     1       3.232   6.561  18.978  0.00  0.00    +0.000 C 
ATOM      4  C   UNL     1       3.603   5.246  19.653  0.00  0.00    +0.000 C 
ATOM      5  C   UNL     1       5.141   5.198  19.681  0.00  0.00    +0.000 C 
ATOM      6  C   UNL     1       5.755   5.342  18.286  0.00  0.00    +0.000 C 
ENDROOT
BRANCH   4   7
ATOM      7  N   UNL     1       3.062   4.015  18.988  0.00  0.00    +0.000 NA
ATOM      8  C   UNL     1       3.884   2.786  19.105  0.00  0.00    +0.000 C 
ATOM      9  C   UNL     1       3.020   1.629  18.607  0.00  0.00    +0.000 C 
ATOM     10  C   UNL     1       1.615   1.889  19.108  0.00  0.00    +0.000 C 
ATOM     11  S   UNL     1       1.406   3.640  18.908  0.00  0.00    +0.000 S 
ATOM     12  O   UNL     1       0.700   4.146  20.065  0.00  0.00    +0.000 OA
ATOM     13  O   UNL     1       0.958   3.881  17.553  0.00  0.00    +0.000 OA
ENDBRANCH   4   7
BRANCH   1  14
ATOM     14  C   UNL     1       5.645   6.295  16.073  0.00  0.00    +0.000 C 
BRANCH  14  15
ATOM     15  C   UNL     1       6.478   5.022  15.756  0.00  0.00    +0.000 C 
BRANCH  15  21
ATOM     16  C   UNL     1       5.164   2.480  11.584  0.00  0.00    +0.000 C 
ATOM     17  C   UNL     1       6.044   3.494  12.259  0.00  0.00    +0.000 A 
ATOM     18  C   UNL     1       7.075   4.130  11.561  0.00  0.00    +0.000 A 
ATOM     19  C   UNL     1       7.892   5.056  12.215  0.00  0.00    +0.000 A 
ATOM     20  C   UNL     1       7.685   5.339  13.572  0.00  0.00    +0.000 A 
ATOM     21  C   UNL     1       6.662   4.705  14.285  0.00  0.00    +0.000 A 
ATOM     22  C   UNL     1       5.845   3.777  13.613  0.00  0.00    +0.000 A 
ENDBRANCH  15  21
BRANCH  15  23
ATOM     23  O   UNL     1       7.772   5.109  16.358  0.00  0.00    +0.000 OA
ATOM     24  H   UNL     1       7.939   6.047  16.553  0.00  0.00    +0.000 HD
ENDBRANCH  15  23
ENDBRANCH  14  15
ENDBRANCH   1  14
TORSDOF 5
ENDMDL
MODEL 3
REMARK VINA RESULT:      -7.4      2.121      2.835
REMARK  Name = 
REMARK  6 active torsions:
REMARK  status: ('A' for Active; 'I' for Inactive)
REMARK    1  A    between atoms: C_1  and  C_2
REMARK    2  A    between atoms: C_6  and  C_7
REMARK    3  A    between atoms: C_7  and  O_8
REMARK    4  A    between atoms: C_7  and  C_9
REMARK    5  A    between atoms: C_9  and  N_10
REMARK    6  A    between atoms: C_13  and  N_14
REMARK                            x       y       z     vdW  Elec       q    Type
REMARK                         _______ _______ _______ _____ _____    ______ ____
ROOT
ATOM      1  N   UNL     1       5.601   5.757  16.449  0.00  0.00    +0.000 NA
ATOM      2  C   UNL     1       4.312   6.263  16.938  0.00  0.00    +0.000 C 
ATOM      3  C   UNL     1       4.189   6.270  18.452  0.00  0.00    +0.000 C 
ATOM      4  C   UNL     1       4.424   4.883  19.039  0.00  0.00    +0.000 C 
ATOM      5  C   UNL     1       5.846   4.473  18.618  0.00  0.00    +0.000 C 
ATOM      6  C   UNL     1       6.040   4.515  17.100  0.00  0.00    +0.000 C 
ENDROOT
BRANCH   4   7
ATOM      7  N   UNL     1       3.438   3.837  18.610  0.00  0.00    +0.000 NA
ATOM      8  C   UNL     1       3.846   2.425  18.808  0.00  0.00    +0.000 C 
ATOM      9  C   UNL     1       2.604   1.569  18.567  0.00  0.00    +0.000 C 
ATOM     10  C   UNL     1       1.436   2.318  19.171  0.00  0.00    +0.000 C 
ATOM     11  S   UNL     1       1.754   4.014  18.755  0.00  0.00    +0.000 S 
ATOM     12  O   UNL     1       1.412   4.832  19.899  0.00  0.00    +0.000 OA
ATOM     13  O   UNL     1       1.215   4.255  17.433  0.00  0.00    +0.000 OA
ENDBRANCH   4   7
BRANCH   1  14
ATOM     14  C   UNL     1       5.511   5.539  14.980  0.00  0.00    +0.000 C 
BRANCH  14  15
ATOM     15  C   UNL     1       6.649   4.685  14.353  0.00  0.00    +0.000 C 
BRANCH  15  21
ATOM     16  C   UNL     1       3.210   3.123  10.987  0.00  0.00    +0.000 C 
ATOM     17  C   UNL     1       4.619   3.091  11.508  0.00  0.00    +0.000 A 
ATOM     18  C   UNL     1       5.585   2.267  10.922  0.00  0.00    +0.000 A 
ATOM     19  C   UNL     1       6.884   2.241  11.436  0.00  0.00    +0.000 A 
ATOM     20  C   UNL     1       7.217   3.032  12.544  0.00  0.00    +0.000 A 
ATOM     21  C   UNL     1       6.259   3.856  13.145  0.00  0.00    +0.000 A 
ATOM     22  C   UNL     1       4.955   3.875  12.616  0.00  0.00    +0.000 A 
ENDBRANCH  15  21
BRANCH  15  23
ATOM     23  O   UNL     1       7.752   5.516  13.985  0.00  0.00    +0.000 OA
ATOM     24  H   UNL     1       8.524   4.936  13.861  0.00  0.00    +0.000 HD
ENDBRANCH  15  23
ENDBRANCH  14  15
ENDBRANCH   1  14
TORSDOF 5
ENDMDL
MODEL 4
REMARK VINA RESULT:      -7.4      2.096      2.822
REMARK  Name = 
REMARK  6 active torsions:
REMARK  status: ('A' for Active; 'I' for Inactive)
REMARK    1  A    between atoms: C_1  and  C_2
REMARK    2  A    between atoms: C_6  and  C_7
REMARK    3  A    between atoms: C_7  and  O_8
REMARK    4  A    between atoms: C_7  and  C_9
REMARK    5  A    between atoms: C_9  and  N_10
REMARK    6  A    between atoms: C_13  and  N_14
REMARK                            x       y       z     vdW  Elec       q    Type
REMARK                         _______ _______ _______ _____ _____    ______ ____
ROOT
ATOM      1  N   UNL     1       5.539   6.046  16.734  0.00  0.00    +0.000 NA
ATOM      2  C   UNL     1       4.190   6.435  17.166  0.00  0.00    +0.000 C 
ATOM      3  C   UNL     1       3.983   6.366  18.669  0.00  0.00    +0.000 C 
ATOM      4  C   UNL     1       4.287   4.975  19.213  0.00  0.00    +0.000 C 
ATOM      5  C   UNL     1       5.758   4.689  18.861  0.00  0.00    +0.000 C 
ATOM      6  C   UNL     1       6.033   4.811  17.360  0.00  0.00    +0.000 C 
ENDROOT
BRANCH   4   7
ATOM      7  N   UNL     1       3.409   3.880  18.685  0.00  0.00    +0.000 NA
ATOM      8  C   UNL     1       3.927   2.497  18.817  0.00  0.00    +0.000 C 
ATOM      9  C   UNL     1       2.771   1.558  18.477  0.00  0.00    +0.000 C 
ATOM     10  C   UNL     1       1.523   2.171  19.076  0.00  0.00    +0.000 C 
ATOM     11  S   UNL     1       1.712   3.910  18.772  0.00  0.00    +0.000 S 
ATOM     12  O   UNL     1       1.263   4.625  19.947  0.00  0.00    +0.000 OA
ATOM     13  O   UNL     1       1.201   4.185  17.446  0.00  0.00    +0.000 OA
ENDBRANCH   4   7
BRANCH   1  14
ATOM     14  C   UNL     1       5.549   5.887  15.255  0.00  0.00    +0.000 C 
BRANCH  14  15
ATOM     15  C   UNL     1       6.585   4.875  14.691  0.00  0.00    +0.000 C 
BRANCH  15  21
ATOM     16  C   UNL     1       7.548   1.754  10.827  0.00  0.00    +0.000 C 
ATOM     17  C   UNL     1       6.559   2.540  11.641  0.00  0.00    +0.000 A 
ATOM     18  C   UNL     1       5.203   2.562  11.302  0.00  0.00    +0.000 A 
ATOM     19  C   UNL     1       4.305   3.314  12.063  0.00  0.00    +0.000 A 
ATOM     20  C   UNL     1       4.765   4.055  13.161  0.00  0.00    +0.000 A 
ATOM     21  C   UNL     1       6.120   4.048  13.508  0.00  0.00    +0.000 A 
ATOM     22  C   UNL     1       7.012   3.284  12.734  0.00  0.00    +0.000 A 
ENDBRANCH  15  21
BRANCH  15  23
ATOM     23  O   UNL     1       7.789   5.549  14.317  0.00  0.00    +0.000 OA
ATOM     24  H   UNL     1       7.902   6.301  14.922  0.00  0.00    +0.000 HD
ENDBRANCH  15  23
ENDBRANCH  14  15
ENDBRANCH   1  14
TORSDOF 5
ENDMDL
MODEL 5
REMARK VINA RESULT:      -7.2      0.330      1.424
REMARK  Name = 
REMARK  6 active torsions:
REMARK  status: ('A' for Active; 'I' for Inactive)
REMARK    1  A    between atoms: C_1  and  C_2
REMARK    2  A    between atoms: C_6  and  C_7
REMARK    3  A    between atoms: C_7  and  O_8
REMARK    4  A    between atoms: C_7  and  C_9
REMARK    5  A    between atoms: C_9  and  N_10
REMARK    6  A    between atoms: C_13  and  N_14
REMARK                            x       y       z     vdW  Elec       q    Type
REMARK                         _______ _______ _______ _____ _____    ______ ____
ROOT
ATOM      1  N   UNL     1       4.446   5.518  16.916  0.00  0.00    +0.000 NA
ATOM      2  C   UNL     1       3.946   4.137  16.891  0.00  0.00    +0.000 C 
ATOM      3  C   UNL     1       2.435   4.029  16.995  0.00  0.00    +0.000 C 
ATOM      4  C   UNL     1       1.909   4.717  18.250  0.00  0.00    +0.000 C 
ATOM      5  C   UNL     1       2.335   6.191  18.141  0.00  0.00    +0.000 C 
ATOM      6  C   UNL     1       3.848   6.350  17.969  0.00  0.00    +0.000 C 
ENDROOT
BRANCH   4   7
ATOM      7  N   UNL     1       2.394   4.135  19.544  0.00  0.00    +0.000 NA
ATOM      8  C   UNL     1       2.017   4.865  20.778  0.00  0.00    +0.000 C 
ATOM      9  C   UNL     1       2.372   3.957  21.954  0.00  0.00    +0.000 C 
ATOM     10  C   UNL     1       2.019   2.546  21.535  0.00  0.00    +0.000 C 
ATOM     11  S   UNL     1       2.523   2.465  19.835  0.00  0.00    +0.000 S 
ATOM     12  O   UNL     1       1.517   1.728  19.100  0.00  0.00    +0.000 OA
ATOM     13  O   UNL     1       3.927   2.114  19.805  0.00  0.00    +0.000 OA
ENDBRANCH   4   7
BRANCH   1  14
ATOM     14  C   UNL     1       5.923   5.496  17.083  0.00  0.00    +0.000 C 
BRANCH  14  15
ATOM     15  C   UNL     1       6.660   4.290  16.435  0.00  0.00    +0.000 C 
BRANCH  15  21
ATOM     16  C   UNL     1       8.625   6.233  12.197  0.00  0.00    +0.000 C 
ATOM     17  C   UNL     1       7.713   5.244  12.866  0.00  0.00    +0.000 A 
ATOM     18  C   UNL     1       6.923   4.370  12.114  0.00  0.00    +0.000 A 
ATOM     19  C   UNL     1       6.070   3.471  12.758  0.00  0.00    +0.000 A 
ATOM     20  C   UNL     1       5.997   3.452  14.158  0.00  0.00    +0.000 A 
ATOM     21  C   UNL     1       6.777   4.326  14.924  0.00  0.00    +0.000 A 
ATOM     22  C   UNL     1       7.634   5.224  14.262  0.00  0.00    +0.000 A 
ENDBRANCH  15  21
BRANCH  15  23
ATOM     23  O   UNL     1       7.975   4.156  16.979  0.00  0.00    +0.000 OA
ATOM     24  H   UNL     1       7.879   3.980  17.931  0.00  0.00    +0.000 HD
ENDBRANCH  15  23
ENDBRANCH  14  15
ENDBRANCH   1  14
TORSDOF 5
ENDMDL
MODEL 6
REMARK VINA RESULT:      -7.0      1.587      1.895
REMARK  Name = 
REMARK  6 active torsions:
REMARK  status: ('A' for Active; 'I' for Inactive)
REMARK    1  A    between atoms: C_1  and  C_2
REMARK    2  A    between atoms: C_6  and  C_7
REMARK    3  A    between atoms: C_7  and  O_8
REMARK    4  A    between atoms: C_7  and  C_9
REMARK    5  A    between atoms: C_9  and  N_10
REMARK    6  A    between atoms: C_13  and  N_14
REMARK                            x       y       z     vdW  Elec       q    Type
REMARK                         _______ _______ _______ _____ _____    ______ ____
ROOT
ATOM      1  N   UNL     1       5.537   5.249  17.448  0.00  0.00    +0.000 NA
ATOM      2  C   UNL     1       4.185   5.360  16.884  0.00  0.00    +0.000 C 
ATOM      3  C   UNL     1       3.208   6.108  17.774  0.00  0.00    +0.000 C 
ATOM      4  C   UNL     1       3.110   5.473  19.156  0.00  0.00    +0.000 C 
ATOM      5  C   UNL     1       4.527   5.524  19.754  0.00  0.00    +0.000 C 
ATOM      6  C   UNL     1       5.563   4.838  18.859  0.00  0.00    +0.000 C 
ENDROOT
BRANCH   4   7
ATOM      7  N   UNL     1       2.595   4.064  19.173  0.00  0.00    +0.000 NA
ATOM      8  C   UNL     1       2.203   3.520  20.495  0.00  0.00    +0.000 C 
ATOM      9  C   UNL     1       1.465   2.208  20.232  0.00  0.00    +0.000 C 
ATOM     10  C   UNL     1       0.613   2.429  19.000  0.00  0.00    +0.000 C 
ATOM     11  S   UNL     1       1.650   3.393  17.929  0.00  0.00    +0.000 S 
ATOM     12  O   UNL     1       0.830   4.402  17.295  0.00  0.00    +0.000 OA
ATOM     13  O   UNL     1       2.484   2.478  17.179  0.00  0.00    +0.000 OA
ENDBRANCH   4   7
BRANCH   1  14
ATOM     14  C   UNL     1       6.323   4.280  16.638  0.00  0.00    +0.000 C 
BRANCH  14  15
ATOM     15  C   UNL     1       7.425   4.895  15.730  0.00  0.00    +0.000 C 
BRANCH  15  21
ATOM     16  C   UNL     1       5.230   2.547  11.824  0.00  0.00    +0.000 C 
ATOM     17  C   UNL     1       6.184   3.588  12.339  0.00  0.00    +0.000 A 
ATOM     18  C   UNL     1       6.942   4.366  11.460  0.00  0.00    +0.000 A 
ATOM     19  C   UNL     1       7.836   5.315  11.963  0.00  0.00    +0.000 A 
ATOM     20  C   UNL     1       7.979   5.480  13.347  0.00  0.00    +0.000 A 
ATOM     21  C   UNL     1       7.232   4.703  14.239  0.00  0.00    +0.000 A 
ATOM     22  C   UNL     1       6.333   3.753  13.719  0.00  0.00    +0.000 A 
ENDBRANCH  15  21
BRANCH  15  23
ATOM     23  O   UNL     1       7.559   6.296  15.985  0.00  0.00    +0.000 OA
ATOM     24  H   UNL     1       8.510   6.492  16.036  0.00  0.00    +0.000 HD
ENDBRANCH  15  23
ENDBRANCH  14  15
ENDBRANCH   1  14
TORSDOF 5
ENDMDL
MODEL 7
REMARK VINA RESULT:      -6.8      3.231      7.434
REMARK  Name = 
REMARK  6 active torsions:
REMARK  status: ('A' for Active; 'I' for Inactive)
REMARK    1  A    between atoms: C_1  and  C_2
REMARK    2  A    between atoms: C_6  and  C_7
REMARK    3  A    between atoms: C_7  and  O_8
REMARK    4  A    between atoms: C_7  and  C_9
REMARK    5  A    between atoms: C_9  and  N_10
REMARK    6  A    between atoms: C_13  and  N_14
REMARK                            x       y       z     vdW  Elec       q    Type
REMARK                         _______ _______ _______ _____ _____    ______ ____
ROOT
ATOM      1  N   UNL     1       1.863   4.198  19.439  0.00  0.00    +0.000 NA
ATOM      2  C   UNL     1       1.952   4.480  18.000  0.00  0.00    +0.000 C 
ATOM      3  C   UNL     1       2.590   3.363  17.193  0.00  0.00    +0.000 C 
ATOM      4  C   UNL     1       3.983   3.023  17.711  0.00  0.00    +0.000 C 
ATOM      5  C   UNL     1       3.802   2.590  19.176  0.00  0.00    +0.000 C 
ATOM      6  C   UNL     1       3.102   3.659  20.019  0.00  0.00    +0.000 C 
ENDROOT
BRANCH   4   7
ATOM      7  N   UNL     1       4.983   4.137  17.623  0.00  0.00    +0.000 NA
ATOM      8  C   UNL     1       5.857   4.334  18.804  0.00  0.00    +0.000 C 
ATOM      9  C   UNL     1       6.952   5.313  18.385  0.00  0.00    +0.000 C 
ATOM     10  C   UNL     1       7.334   4.955  16.964  0.00  0.00    +0.000 C 
ATOM     11  S   UNL     1       5.784   4.572  16.188  0.00  0.00    +0.000 S 
ATOM     12  O   UNL     1       5.980   3.422  15.332  0.00  0.00    +0.000 OA
ATOM     13  O   UNL     1       5.208   5.811  15.712  0.00  0.00    +0.000 OA
ENDBRANCH   4   7
BRANCH   1  14
ATOM     14  C   UNL     1       1.484   5.444  20.156  0.00  0.00    +0.000 C 
BRANCH  14  15
ATOM     15  C   UNL     1       2.148   6.751  19.639  0.00  0.00    +0.000 C 
BRANCH  15  21
ATOM     16  C   UNL     1       0.010   9.547  23.273  0.00  0.00    +0.000 C 
ATOM     17  C   UNL     1       0.486   9.412  21.854  0.00  0.00    +0.000 A 
ATOM     18  C   UNL     1       0.317  10.454  20.937  0.00  0.00    +0.000 A 
ATOM     19  C   UNL     1       0.752  10.299  19.619  0.00  0.00    +0.000 A 
ATOM     20  C   UNL     1       1.347   9.097  19.212  0.00  0.00    +0.000 A 
ATOM     21  C   UNL     1       1.516   8.044  20.117  0.00  0.00    +0.000 A 
ATOM     22  C   UNL     1       1.077   8.214  21.443  0.00  0.00    +0.000 A 
ENDBRANCH  15  21
BRANCH  15  23
ATOM     23  O   UNL     1       3.534   6.779  19.985  0.00  0.00    +0.000 OA
ATOM     24  H   UNL     1       4.040   6.833  19.156  0.00  0.00    +0.000 HD
ENDBRANCH  15  23
ENDBRANCH  14  15
ENDBRANCH   1  14
TORSDOF 5
ENDMDL
MODEL 8
REMARK VINA RESULT:      -6.7      2.042      3.702
REMARK  Name = 
REMARK  6 active torsions:
REMARK  status: ('A' for Active; 'I' for Inactive)
REMARK    1  A    between atoms: C_1  and  C_2
REMARK    2  A    between atoms: C_6  and  C_7
REMARK    3  A    between atoms: C_7  and  O_8
REMARK    4  A    between atoms: C_7  and  C_9
REMARK    5  A    between atoms: C_9  and  N_10
REMARK    6  A    between atoms: C_13  and  N_14
REMARK                            x       y       z     vdW  Elec       q    Type
REMARK                         _______ _______ _______ _____ _____    ______ ____
ROOT
ATOM      1  N   UNL     1       3.956   4.808  16.602  0.00  0.00    +0.000 NA
ATOM      2  C   UNL     1       2.967   3.724  16.656  0.00  0.00    +0.000 C 
ATOM      3  C   UNL     1       1.578   4.179  17.066  0.00  0.00    +0.000 C 
ATOM      4  C   UNL     1       1.597   4.889  18.415  0.00  0.00    +0.000 C 
ATOM      5  C   UNL     1       2.531   6.101  18.248  0.00  0.00    +0.000 C 
ATOM      6  C   UNL     1       3.929   5.699  17.771  0.00  0.00    +0.000 C 
ENDROOT
BRANCH   4   7
ATOM      7  N   UNL     1       2.048   4.047  19.571  0.00  0.00    +0.000 NA
ATOM      8  C   UNL     1       2.188   4.737  20.875  0.00  0.00    +0.000 C 
ATOM      9  C   UNL     1       2.379   3.649  21.931  0.00  0.00    +0.000 C 
ATOM     10  C   UNL     1       1.462   2.507  21.550  0.00  0.00    +0.000 C 
ATOM     11  S   UNL     1       1.598   2.421  19.782  0.00  0.00    +0.000 S 
ATOM     12  O   UNL     1       0.280   2.170  19.240  0.00  0.00    +0.000 OA
ATOM     13  O   UNL     1       2.743   1.595  19.465  0.00  0.00    +0.000 OA
ENDBRANCH   4   7
BRANCH   1  14
ATOM     14  C   UNL     1       5.315   4.220  16.462  0.00  0.00    +0.000 C 
BRANCH  14  15
ATOM     15  C   UNL     1       6.436   5.205  16.024  0.00  0.00    +0.000 C 
BRANCH  15  21
ATOM     16  C   UNL     1       8.375   9.439  18.002  0.00  0.00    +0.000 C 
ATOM     17  C   UNL     1       8.079   7.970  18.123  0.00  0.00    +0.000 A 
ATOM     18  C   UNL     1       8.484   7.245  19.247  0.00  0.00    +0.000 A 
ATOM     19  C   UNL     1       8.214   5.877  19.330  0.00  0.00    +0.000 A 
ATOM     20  C   UNL     1       7.546   5.229  18.282  0.00  0.00    +0.000 A 
ATOM     21  C   UNL     1       7.141   5.941  17.147  0.00  0.00    +0.000 A 
ATOM     22  C   UNL     1       7.417   7.318  17.079  0.00  0.00    +0.000 A 
ENDBRANCH  15  21
BRANCH  15  23
ATOM     23  O   UNL     1       7.425   4.523  15.249  0.00  0.00    +0.000 OA
ATOM     24  H   UNL     1       6.976   4.143  14.475  0.00  0.00    +0.000 HD
ENDBRANCH  15  23
ENDBRANCH  14  15
ENDBRANCH   1  14
TORSDOF 5
ENDMDL
MODEL 9
REMARK VINA RESULT:      -6.7      4.289      6.040
REMARK  Name = 
REMARK  6 active torsions:
REMARK  status: ('A' for Active; 'I' for Inactive)
REMARK    1  A    between atoms: C_1  and  C_2
REMARK    2  A    between atoms: C_6  and  C_7
REMARK    3  A    between atoms: C_7  and  O_8
REMARK    4  A    between atoms: C_7  and  C_9
REMARK    5  A    between atoms: C_9  and  N_10
REMARK    6  A    between atoms: C_13  and  N_14
REMARK                            x       y       z     vdW  Elec       q    Type
REMARK                         _______ _______ _______ _____ _____    ______ ____
ROOT
ATOM      1  N   UNL     1       6.764   6.807  16.678  0.00  0.00    +0.000 NA
ATOM      2  C   UNL     1       7.193   5.636  17.454  0.00  0.00    +0.000 C 
ATOM      3  C   UNL     1       6.832   4.308  16.813  0.00  0.00    +0.000 C 
ATOM      4  C   UNL     1       5.334   4.199  16.554  0.00  0.00    +0.000 C 
ATOM      5  C   UNL     1       4.975   5.363  15.614  0.00  0.00    +0.000 C 
ATOM      6  C   UNL     1       5.380   6.723  16.189  0.00  0.00    +0.000 C 
ENDROOT
BRANCH   4   7
ATOM      7  N   UNL     1       4.473   4.244  17.782  0.00  0.00    +0.000 NA
ATOM      8  C   UNL     1       3.409   5.277  17.804  0.00  0.00    +0.000 C 
ATOM      9  C   UNL     1       2.507   4.956  18.995  0.00  0.00    +0.000 C 
ATOM     10  C   UNL     1       2.374   3.449  19.044  0.00  0.00    +0.000 C 
ATOM     11  S   UNL     1       4.003   2.862  18.653  0.00  0.00    +0.000 S 
ATOM     12  O   UNL     1       3.873   1.715  17.781  0.00  0.00    +0.000 OA
ATOM     13  O   UNL     1       4.769   2.827  19.881  0.00  0.00    +0.000 OA
ENDBRANCH   4   7
BRANCH   1  14
ATOM     14  C   UNL     1       6.919   8.027  17.513  0.00  0.00    +0.000 C 
BRANCH  14  15
ATOM     15  C   UNL     1       8.363   8.334  18.000  0.00  0.00    +0.000 C 
BRANCH  15  21
ATOM     16  C   UNL     1      10.439  11.917  20.906  0.00  0.00    +0.000 C 
ATOM     17  C   UNL     1       9.658  11.536  19.681  0.00  0.00    +0.000 A 
ATOM     18  C   UNL     1       9.154  12.512  18.816  0.00  0.00    +0.000 A 
ATOM     19  C   UNL     1       8.415  12.134  17.693  0.00  0.00    +0.000 A 
ATOM     20  C   UNL     1       8.170  10.778  17.437  0.00  0.00    +0.000 A 
ATOM     21  C   UNL     1       8.662   9.790  18.297  0.00  0.00    +0.000 A 
ATOM     22  C   UNL     1       9.407  10.185  19.423  0.00  0.00    +0.000 A 
ENDBRANCH  15  21
BRANCH  15  23
ATOM     23  O   UNL     1       8.670   7.570  19.168  0.00  0.00    +0.000 OA
ATOM     24  H   UNL     1       9.520   7.125  19.010  0.00  0.00    +0.000 HD
ENDBRANCH  15  23
ENDBRANCH  14  15
ENDBRANCH   1  14
TORSDOF 5
ENDMDL
