MODEL 1
REMARK VINA RESULT:      -9.5      0.000      0.000
REMARK  Name = 
REMARK  6 active torsions:
REMARK  status: ('A' for Active; 'I' for Inactive)
REMARK    1  A    between atoms: C_1  and  C_2
REMARK    2  A    between atoms: C_2  and  C_3
REMARK    3  A    between atoms: C_3  and  C_4
REMARK    4  A    between atoms: N_10  and  C_11
REMARK    5  A    between atoms: C_11  and  C_12
REMARK    6  A    between atoms: C_12  and  C_13
REMARK                            x       y       z     vdW  Elec       q    Type
REMARK                         _______ _______ _______ _____ _____    ______ ____
ROOT
ATOM      1  C   UNL     1       5.434   5.287  18.115  0.00  0.00    +0.000 A 
ATOM      2  N   UNL     1       5.486   4.302  17.217  0.00  0.00    +0.000 NA
ATOM      3  C   UNL     1       6.349   4.493  16.237  0.00  0.00    +0.000 A 
ATOM      4  N   UNL     1       6.501   3.463  15.328  0.00  0.00    +0.000 N 
ATOM      5  N   UNL     1       7.083   5.581  16.062  0.00  0.00    +0.000 NA
ATOM      6  C   UNL     1       7.031   6.468  17.051  0.00  0.00    +0.000 A 
ATOM      7  N   UNL     1       7.898   7.548  16.928  0.00  0.00    +0.000 N 
ATOM      8  N   UNL     1       6.221   6.365  18.098  0.00  0.00    +0.000 NA
ATOM      9  H   UNL     1       5.691   2.863  15.324  0.00  0.00    +0.000 HD
ATOM     10  H   UNL     1       6.858   3.802  14.448  0.00  0.00    +0.000 HD
ATOM     11  H   UNL     1       7.589   8.098  16.135  0.00  0.00    +0.000 HD
ENDROOT
BRANCH   1  12
ATOM     12  C   UNL     1       4.507   5.101  19.287  0.00  0.00    +0.000 C 
BRANCH  12  14
ATOM     13  C   UNL     1       2.229   4.273  18.701  0.00  0.00    +0.000 C 
ATOM     14  C   UNL     1       3.052   5.530  19.030  0.00  0.00    +0.000 C 
ATOM     15  O   UNL     1       2.966   6.416  17.882  0.00  0.00    +0.000 OA
ATOM     16  C   UNL     1       2.348   7.501  18.430  0.00  0.00    +0.000 A 
ATOM     17  C   UNL     1       2.034   8.669  17.771  0.00  0.00    +0.000 A 
ATOM     18  C   UNL     1       1.410   9.683  18.512  0.00  0.00    +0.000 A 
ATOM     19  C   UNL     1       1.105   9.492  19.874  0.00  0.00    +0.000 A 
ATOM     20  C   UNL     1       1.430   8.291  20.510  0.00  0.00    +0.000 A 
ATOM     21  C   UNL     1       2.060   7.321  19.763  0.00  0.00    +0.000 A 
ATOM     22  O   UNL     1       2.470   6.106  20.226  0.00  0.00    +0.000 OA
ENDBRANCH  12  14
ENDBRANCH   1  12
BRANCH   7  23
ATOM     23  C   UNL     1       8.209   8.296  18.142  0.00  0.00    +0.000 C 
BRANCH  23  24
ATOM     24  C   UNL     1       8.198   9.804  17.840  0.00  0.00    +0.000 C 
BRANCH  24  25
ATOM     25  C   UNL     1       9.292  10.565  18.552  0.00  0.00    +0.000 A 
ATOM     26  C   UNL     1      10.350  11.132  17.827  0.00  0.00    +0.000 A 
ATOM     27  C   UNL     1      11.368  11.831  18.479  0.00  0.00    +0.000 A 
ATOM     28  C   UNL     1      11.343  11.972  19.866  0.00  0.00    +0.000 A 
ATOM     29  C   UNL     1      10.291  11.418  20.598  0.00  0.00    +0.000 A 
ATOM     30  C   UNL     1       9.272  10.719  19.945  0.00  0.00    +0.000 A 
ENDBRANCH  24  25
ENDBRANCH  23  24
ENDBRANCH   7  23
TORSDOF 5
ENDMDL
MODEL 2
REMARK VINA RESULT:      -9.1      1.297      3.174
REMARK  Name = 
REMARK  6 active torsions:
REMARK  status: ('A' for Active; 'I' for Inactive)
REMARK    1  A    between atoms: C_1  and  C_2
REMARK    2  A    between atoms: C_2  and  C_3
REMARK    3  A    between atoms: C_3  and  C_4
REMARK    4  A    between atoms: N_10  and  C_11
REMARK    5  A    between atoms: C_11  and  C_12
REMARK    6  A    between atoms: C_12  and  C_13
REMARK                            x       y       z     vdW  Elec       q    Type
REMARK                         _______ _______ _______ _____ _____    ______ ____
ROOT
ATOM      1  C   UNL     1       4.877   6.691  16.980  0.00  0.00    +0.000 A 
ATOM      2  N   UNL     1       4.921   5.577  16.249  0.00  0.00    +0.000 NA
ATOM      3  C   UNL     1       6.126   5.238  15.828  0.00  0.00    +0.000 A 
ATOM      4  N   UNL     1       6.235   4.047  15.138  0.00  0.00    +0.000 N 
ATOM      5  N   UNL     1       7.232   5.941  16.023  0.00  0.00    +0.000 NA
ATOM      6  C   UNL     1       7.107   6.986  16.835  0.00  0.00    +0.000 A 
ATOM      7  N   UNL     1       8.291   7.647  17.141  0.00  0.00    +0.000 N 
ATOM      8  N   UNL     1       5.949   7.401  17.338  0.00  0.00    +0.000 NA
ATOM      9  H   UNL     1       5.350   3.776  14.741  0.00  0.00    +0.000 HD
ATOM     10  H   UNL     1       7.054   4.039  14.549  0.00  0.00    +0.000 HD
ATOM     11  H   UNL     1       8.627   8.081  16.289  0.00  0.00    +0.000 HD
ENDROOT
BRANCH   1  12
ATOM     12  C   UNL     1       3.538   7.098  17.534  0.00  0.00    +0.000 C 
BRANCH  12  14
ATOM     13  C   UNL     1       2.290   7.040  19.692  0.00  0.00    +0.000 C 
ATOM     14  C   UNL     1       2.989   6.171  18.633  0.00  0.00    +0.000 C 
ATOM     15  O   UNL     1       4.065   5.459  19.299  0.00  0.00    +0.000 OA
ATOM     16  C   UNL     1       3.675   4.165  19.126  0.00  0.00    +0.000 A 
ATOM     17  C   UNL     1       4.361   3.050  19.555  0.00  0.00    +0.000 A 
ATOM     18  C   UNL     1       3.804   1.796  19.267  0.00  0.00    +0.000 A 
ATOM     19  C   UNL     1       2.578   1.696  18.581  0.00  0.00    +0.000 A 
ATOM     20  C   UNL     1       1.903   2.847  18.166  0.00  0.00    +0.000 A 
ATOM     21  C   UNL     1       2.483   4.065  18.445  0.00  0.00    +0.000 A 
ATOM     22  O   UNL     1       1.979   5.281  18.094  0.00  0.00    +0.000 OA
ENDBRANCH  12  14
ENDBRANCH   1  12
BRANCH   7  23
ATOM     23  C   UNL     1       8.296   8.490  18.332  0.00  0.00    +0.000 C 
BRANCH  23  24
ATOM     24  C   UNL     1       8.362   9.970  17.921  0.00  0.00    +0.000 C 
BRANCH  24  25
ATOM     25  C   UNL     1       9.459  10.739  18.621  0.00  0.00    +0.000 A 
ATOM     26  C   UNL     1      10.520  11.288  17.886  0.00  0.00    +0.000 A 
ATOM     27  C   UNL     1      11.541  11.994  18.527  0.00  0.00    +0.000 A 
ATOM     28  C   UNL     1      11.516  12.158  19.911  0.00  0.00    +0.000 A 
ATOM     29  C   UNL     1      10.461  11.621  20.652  0.00  0.00    +0.000 A 
ATOM     30  C   UNL     1       9.440  10.916  20.010  0.00  0.00    +0.000 A 
ENDBRANCH  24  25
ENDBRANCH  23  24
ENDBRANCH   7  23
TORSDOF 5
ENDMDL
MODEL 3
REMARK VINA RESULT:      -8.8      3.649      6.434
REMARK  Name = 
REMARK  6 active torsions:
REMARK  status: ('A' for Active; 'I' for Inactive)
REMARK    1  A    between atoms: C_1  and  C_2
REMARK    2  A    between atoms: C_2  and  C_3
REMARK    3  A    between atoms: C_3  and  C_4
REMARK    4  A    between atoms: N_10  and  C_11
REMARK    5  A    between atoms: C_11  and  C_12
REMARK    6  A    between atoms: C_12  and  C_13
REMARK                            x       y       z     vdW  Elec       q    Type
REMARK                         _______ _______ _______ _____ _____    ______ ____
ROOT
ATOM      1  C   UNL     1       5.572   3.949  18.217  0.00  0.00    +0.000 A 
ATOM      2  N   UNL     1       6.218   4.492  19.249  0.00  0.00    +0.000 NA
ATOM      3  C   UNL     1       7.258   5.236  18.921  0.00  0.00    +0.000 A 
ATOM      4  N   UNL     1       7.909   5.889  19.950  0.00  0.00    +0.000 N 
ATOM      5  N   UNL     1       7.718   5.412  17.692  0.00  0.00    +0.000 NA
ATOM      6  C   UNL     1       6.961   4.907  16.723  0.00  0.00    +0.000 A 
ATOM      7  N   UNL     1       7.375   5.202  15.428  0.00  0.00    +0.000 N 
ATOM      8  N   UNL     1       5.879   4.167  16.936  0.00  0.00    +0.000 NA
ATOM      9  H   UNL     1       7.733   5.437  20.834  0.00  0.00    +0.000 HD
ATOM     10  H   UNL     1       8.861   6.109  19.699  0.00  0.00    +0.000 HD
ATOM     11  H   UNL     1       8.258   4.728  15.275  0.00  0.00    +0.000 HD
ENDROOT
BRANCH   1  12
ATOM     12  C   UNL     1       4.344   3.134  18.525  0.00  0.00    +0.000 C 
BRANCH  12  14
ATOM     13  C   UNL     1       2.006   2.960  17.675  0.00  0.00    +0.000 C 
ATOM     14  C   UNL     1       3.014   3.893  18.367  0.00  0.00    +0.000 C 
ATOM     15  O   UNL     1       3.178   5.059  17.517  0.00  0.00    +0.000 OA
ATOM     16  C   UNL     1       2.726   6.050  18.336  0.00  0.00    +0.000 A 
ATOM     17  C   UNL     1       2.679   7.393  18.030  0.00  0.00    +0.000 A 
ATOM     18  C   UNL     1       2.193   8.265  19.014  0.00  0.00    +0.000 A 
ATOM     19  C   UNL     1       1.754   7.770  20.258  0.00  0.00    +0.000 A 
ATOM     20  C   UNL     1       1.807   6.401  20.534  0.00  0.00    +0.000 A 
ATOM     21  C   UNL     1       2.307   5.571  19.556  0.00  0.00    +0.000 A 
ATOM     22  O   UNL     1       2.455   4.220  19.664  0.00  0.00    +0.000 OA
ENDBRANCH  12  14
ENDBRANCH   1  12
BRANCH   7  23
ATOM     23  C   UNL     1       6.385   5.069  14.365  0.00  0.00    +0.000 C 
BRANCH  23  24
ATOM     24  C   UNL     1       7.096   4.867  13.016  0.00  0.00    +0.000 C 
BRANCH  24  25
ATOM     25  C   UNL     1       6.631   3.637  12.271  0.00  0.00    +0.000 A 
ATOM     26  C   UNL     1       7.563   2.734  11.740  0.00  0.00    +0.000 A 
ATOM     27  C   UNL     1       7.140   1.599  11.045  0.00  0.00    +0.000 A 
ATOM     28  C   UNL     1       5.779   1.352  10.870  0.00  0.00    +0.000 A 
ATOM     29  C   UNL     1       4.842   2.241  11.399  0.00  0.00    +0.000 A 
ATOM     30  C   UNL     1       5.266   3.376  12.096  0.00  0.00    +0.000 A 
ENDBRANCH  24  25
ENDBRANCH  23  24
ENDBRANCH   7  23
TORSDOF 5
ENDMDL
MODEL 4
REMARK VINA RESULT:      -8.6      1.445      3.132
REMARK  Name = 
REMARK  6 active torsions:
REMARK  status: ('A' for Active; 'I' for Inactive)
REMARK    1  A    between atoms: C_1  and  C_2
REMARK    2  A    between atoms: C_2  and  C_3
REMARK    3  A    between atoms: C_3  and  C_4
REMARK    4  A    between atoms: N_10  and  C_11
REMARK    5  A    between atoms: C_11  and  C_12
REMARK    6  A    between atoms: C_12  and  C_13
REMARK                            x       y       z     vdW  Elec       q    Type
REMARK                         _______ _______ _______ _____ _____    ______ ____
ROOT
ATOM      1  C   UNL     1       5.956   5.777  18.197  0.00  0.00    +0.000 A 
ATOM      2  N   UNL     1       6.059   4.851  17.244  0.00  0.00    +0.000 NA
ATOM      3  C   UNL     1       6.873   5.165  16.253  0.00  0.00    +0.000 A 
ATOM      4  N   UNL     1       7.078   4.202  15.283  0.00  0.00    +0.000 N 
ATOM      5  N   UNL     1       7.511   6.318  16.120  0.00  0.00    +0.000 NA
ATOM      6  C   UNL     1       7.418   7.142  17.159  0.00  0.00    +0.000 A 
ATOM      7  N   UNL     1       8.191   8.295  17.075  0.00  0.00    +0.000 N 
ATOM      8  N   UNL     1       6.652   6.916  18.221  0.00  0.00    +0.000 NA
ATOM      9  H   UNL     1       6.320   3.539  15.266  0.00  0.00    +0.000 HD
ATOM     10  H   UNL     1       7.379   4.617  14.415  0.00  0.00    +0.000 HD
ATOM     11  H   UNL     1       7.814   8.861  16.323  0.00  0.00    +0.000 HD
ENDROOT
BRANCH   1  12
ATOM     12  C   UNL     1       5.084   5.452  19.381  0.00  0.00    +0.000 C 
BRANCH  12  14
ATOM     13  C   UNL     1       3.238   6.940  18.610  0.00  0.00    +0.000 C 
ATOM     14  C   UNL     1       3.572   5.522  19.104  0.00  0.00    +0.000 C 
ATOM     15  O   UNL     1       2.809   5.296  20.319  0.00  0.00    +0.000 OA
ATOM     16  C   UNL     1       2.020   4.249  19.946  0.00  0.00    +0.000 A 
ATOM     17  C   UNL     1       1.097   3.609  20.744  0.00  0.00    +0.000 A 
ATOM     18  C   UNL     1       0.389   2.537  20.183  0.00  0.00    +0.000 A 
ATOM     19  C   UNL     1       0.609   2.153  18.845  0.00  0.00    +0.000 A 
ATOM     20  C   UNL     1       1.546   2.830  18.060  0.00  0.00    +0.000 A 
ATOM     21  C   UNL     1       2.241   3.865  18.643  0.00  0.00    +0.000 A 
ATOM     22  O   UNL     1       3.206   4.613  18.036  0.00  0.00    +0.000 OA
ENDBRANCH  12  14
ENDBRANCH   1  12
BRANCH   7  23
ATOM     23  C   UNL     1       8.478   8.999  18.321  0.00  0.00    +0.000 C 
BRANCH  23  24
ATOM     24  C   UNL     1       8.545  10.513  18.059  0.00  0.00    +0.000 C 
BRANCH  24  25
ATOM     25  C   UNL     1       9.783  11.166  18.629  0.00  0.00    +0.000 A 
ATOM     26  C   UNL     1       9.934  11.311  20.015  0.00  0.00    +0.000 A 
ATOM     27  C   UNL     1      11.073  11.920  20.548  0.00  0.00    +0.000 A 
ATOM     28  C   UNL     1      12.075  12.392  19.702  0.00  0.00    +0.000 A 
ATOM     29  C   UNL     1      11.938  12.247  18.320  0.00  0.00    +0.000 A 
ATOM     30  C   UNL     1      10.800  11.637  17.788  0.00  0.00    +0.000 A 
ENDBRANCH  24  25
ENDBRANCH  23  24
ENDBRANCH   7  23
TORSDOF 5
ENDMDL
MODEL 5
REMARK VINA RESULT:      -8.4      3.584      7.011
REMARK  Name = 
REMARK  6 active torsions:
REMARK  status: ('A' for Active; 'I' for Inactive)
REMARK    1  A    between atoms: C_1  and  C_2
REMARK    2  A    between atoms: C_2  and  C_3
REMARK    3  A    between atoms: C_3  and  C_4
REMARK    4  A    between atoms: N_10  and  C_11
REMARK    5  A    between atoms: C_11  and  C_12
REMARK    6  A    between atoms: C_12  and  C_13
REMARK                            x       y       z     vdW  Elec       q    Type
REMARK                         _______ _______ _______ _____ _____    ______ ____
ROOT
ATOM      1  C   UNL     1       5.424   6.278  17.630  0.00  0.00    +0.000 A 
ATOM      2  N   UNL     1       6.164   6.132  18.729  0.00  0.00    +0.000 NA
ATOM      3  C   UNL     1       7.286   5.458  18.555  0.00  0.00    +0.000 A 
ATOM      4  N   UNL     1       8.128   5.352  19.646  0.00  0.00    +0.000 N 
ATOM      5  N   UNL     1       7.670   4.887  17.424  0.00  0.00    +0.000 NA
ATOM      6  C   UNL     1       6.916   5.161  16.364  0.00  0.00    +0.000 A 
ATOM      7  N   UNL     1       7.389   4.669  15.152  0.00  0.00    +0.000 N 
ATOM      8  N   UNL     1       5.782   5.852  16.417  0.00  0.00    +0.000 NA
ATOM      9  H   UNL     1       7.623   5.489  20.507  0.00  0.00    +0.000 HD
ATOM     10  H   UNL     1       8.736   4.552  19.561  0.00  0.00    +0.000 HD
ATOM     11  H   UNL     1       7.337   3.657  15.193  0.00  0.00    +0.000 HD
ENDROOT
BRANCH   1  12
ATOM     12  C   UNL     1       4.159   7.086  17.755  0.00  0.00    +0.000 C 
BRANCH  12  14
ATOM     13  C   UNL     1       2.305   7.569  19.351  0.00  0.00    +0.000 C 
ATOM     14  C   UNL     1       3.072   6.444  18.635  0.00  0.00    +0.000 C 
ATOM     15  O   UNL     1       3.662   5.602  19.661  0.00  0.00    +0.000 OA
ATOM     16  C   UNL     1       3.041   4.413  19.417  0.00  0.00    +0.000 A 
ATOM     17  C   UNL     1       3.252   3.237  20.103  0.00  0.00    +0.000 A 
ATOM     18  C   UNL     1       2.527   2.109  19.693  0.00  0.00    +0.000 A 
ATOM     19  C   UNL     1       1.605   2.196  18.631  0.00  0.00    +0.000 A 
ATOM     20  C   UNL     1       1.409   3.407  17.961  0.00  0.00    +0.000 A 
ATOM     21  C   UNL     1       2.150   4.492  18.373  0.00  0.00    +0.000 A 
ATOM     22  O   UNL     1       2.105   5.737  17.818  0.00  0.00    +0.000 OA
ENDBRANCH  12  14
ENDBRANCH   1  12
BRANCH   7  23
ATOM     23  C   UNL     1       6.876   5.286  13.934  0.00  0.00    +0.000 C 
BRANCH  23  24
ATOM     24  C   UNL     1       7.600   4.700  12.710  0.00  0.00    +0.000 C 
BRANCH  24  25
ATOM     25  C   UNL     1       6.882   3.520  12.097  0.00  0.00    +0.000 A 
ATOM     26  C   UNL     1       7.609   2.465  11.528  0.00  0.00    +0.000 A 
ATOM     27  C   UNL     1       6.952   1.374  10.953  0.00  0.00    +0.000 A 
ATOM     28  C   UNL     1       5.559   1.325  10.939  0.00  0.00    +0.000 A 
ATOM     29  C   UNL     1       4.824   2.367  11.509  0.00  0.00    +0.000 A 
ATOM     30  C   UNL     1       5.482   3.457  12.084  0.00  0.00    +0.000 A 
ENDBRANCH  24  25
ENDBRANCH  23  24
ENDBRANCH   7  23
TORSDOF 5
ENDMDL
MODEL 6
REMARK VINA RESULT:      -8.3      3.055      6.812
REMARK  Name = 
REMARK  6 active torsions:
REMARK  status: ('A' for Active; 'I' for Inactive)
REMARK    1  A    between atoms: C_1  and  C_2
REMARK    2  A    between atoms: C_2  and  C_3
REMARK    3  A    between atoms: C_3  and  C_4
REMARK    4  A    between atoms: N_10  and  C_11
REMARK    5  A    between atoms: C_11  and  C_12
REMARK    6  A    between atoms: C_12  and  C_13
REMARK                            x       y       z     vdW  Elec       q    Type
REMARK                         _______ _______ _______ _____ _____    ______ ____
ROOT
ATOM      1  C   UNL     1       3.772   4.168  17.287  0.00  0.00    +0.000 A 
ATOM      2  N   UNL     1       3.506   2.874  17.466  0.00  0.00    +0.000 NA
ATOM      3  C   UNL     1       2.947   2.579  18.624  0.00  0.00    +0.000 A 
ATOM      4  N   UNL     1       2.575   1.263  18.822  0.00  0.00    +0.000 N 
ATOM      5  N   UNL     1       2.707   3.439  19.602  0.00  0.00    +0.000 NA
ATOM      6  C   UNL     1       2.923   4.717  19.301  0.00  0.00    +0.000 A 
ATOM      7  N   UNL     1       2.550   5.630  20.280  0.00  0.00    +0.000 N 
ATOM      8  N   UNL     1       3.455   5.130  18.156  0.00  0.00    +0.000 NA
ATOM      9  H   UNL     1       3.094   0.645  18.218  0.00  0.00    +0.000 HD
ATOM     10  H   UNL     1       2.517   1.043  19.805  0.00  0.00    +0.000 HD
ATOM     11  H   UNL     1       3.166   5.494  21.074  0.00  0.00    +0.000 HD
ENDROOT
BRANCH   1  12
ATOM     12  C   UNL     1       4.360   4.573  15.961  0.00  0.00    +0.000 C 
BRANCH  12  14
ATOM     13  C   UNL     1       6.500   4.096  14.774  0.00  0.00    +0.000 C 
ATOM     14  C   UNL     1       5.879   4.819  15.980  0.00  0.00    +0.000 C 
ATOM     15  O   UNL     1       6.482   4.260  17.178  0.00  0.00    +0.000 OA
ATOM     16  C   UNL     1       7.103   5.356  17.699  0.00  0.00    +0.000 A 
ATOM     17  C   UNL     1       7.825   5.393  18.871  0.00  0.00    +0.000 A 
ATOM     18  C   UNL     1       8.379   6.624  19.251  0.00  0.00    +0.000 A 
ATOM     19  C   UNL     1       8.211   7.766  18.445  0.00  0.00    +0.000 A 
ATOM     20  C   UNL     1       7.480   7.692  17.256  0.00  0.00    +0.000 A 
ATOM     21  C   UNL     1       6.931   6.475  16.918  0.00  0.00    +0.000 A 
ATOM     22  O   UNL     1       6.170   6.230  15.814  0.00  0.00    +0.000 OA
ENDBRANCH  12  14
ENDBRANCH   1  12
BRANCH   7  23
ATOM     23  C   UNL     1       2.345   7.013  19.861  0.00  0.00    +0.000 C 
BRANCH  23  24
ATOM     24  C   UNL     1       1.351   7.702  20.811  0.00  0.00    +0.000 C 
BRANCH  24  25
ATOM     25  C   UNL     1       0.920   9.070  20.337  0.00  0.00    +0.000 A 
ATOM     26  C   UNL     1       1.215   9.495  19.033  0.00  0.00    +0.000 A 
ATOM     27  C   UNL     1       0.825  10.762  18.591  0.00  0.00    +0.000 A 
ATOM     28  C   UNL     1       0.136  11.620  19.446  0.00  0.00    +0.000 A 
ATOM     29  C   UNL     1      -0.168  11.206  20.744  0.00  0.00    +0.000 A 
ATOM     30  C   UNL     1       0.221   9.939  21.186  0.00  0.00    +0.000 A 
ENDBRANCH  24  25
ENDBRANCH  23  24
ENDBRANCH   7  23
TORSDOF 5
ENDMDL
MODEL 7
REMARK VINA RESULT:      -8.3      3.124      7.041
REMARK  Name = 
REMARK  6 active torsions:
REMARK  status: ('A' for Active; 'I' for Inactive)
REMARK    1  A    between atoms: C_1  and  C_2
REMARK    2  A    between atoms: C_2  and  C_3
REMARK    3  A    between atoms: C_3  and  C_4
REMARK    4  A    between atoms: N_10  and  C_11
REMARK    5  A    between atoms: C_11  and  C_12
REMARK    6  A    between atoms: C_12  and  C_13
REMARK                            x       y       z     vdW  Elec       q    Type
REMARK                         _______ _______ _______ _____ _____    ______ ____
ROOT
ATOM      1  C   UNL     1       3.512   4.284  17.402  0.00  0.00    +0.000 A 
ATOM      2  N   UNL     1       3.175   3.009  17.597  0.00  0.00    +0.000 NA
ATOM      3  C   UNL     1       2.589   2.762  18.754  0.00  0.00    +0.000 A 
ATOM      4  N   UNL     1       2.144   1.472  18.968  0.00  0.00    +0.000 N 
ATOM      5  N   UNL     1       2.387   3.650  19.716  0.00  0.00    +0.000 NA
ATOM      6  C   UNL     1       2.674   4.909  19.399  0.00  0.00    +0.000 A 
ATOM      7  N   UNL     1       2.342   5.856  20.361  0.00  0.00    +0.000 N 
ATOM      8  N   UNL     1       3.239   5.275  18.254  0.00  0.00    +0.000 NA
ATOM      9  H   UNL     1       2.635   0.818  18.378  0.00  0.00    +0.000 HD
ATOM     10  H   UNL     1       2.065   1.271  19.953  0.00  0.00    +0.000 HD
ATOM     11  H   UNL     1       2.942   5.699  21.163  0.00  0.00    +0.000 HD
ENDROOT
BRANCH   1  12
ATOM     12  C   UNL     1       4.134   4.636  16.077  0.00  0.00    +0.000 C 
BRANCH  12  14
ATOM     13  C   UNL     1       6.240   3.927  14.945  0.00  0.00    +0.000 C 
ATOM     14  C   UNL     1       5.667   4.764  16.101  0.00  0.00    +0.000 C 
ATOM     15  O   UNL     1       6.216   4.230  17.335  0.00  0.00    +0.000 OA
ATOM     16  C   UNL     1       6.916   5.302  17.801  0.00  0.00    +0.000 A 
ATOM     17  C   UNL     1       7.630   5.351  18.979  0.00  0.00    +0.000 A 
ATOM     18  C   UNL     1       8.275   6.554  19.295  0.00  0.00    +0.000 A 
ATOM     19  C   UNL     1       8.204   7.658  18.423  0.00  0.00    +0.000 A 
ATOM     20  C   UNL     1       7.478   7.573  17.232  0.00  0.00    +0.000 A 
ATOM     21  C   UNL     1       6.838   6.385  16.956  0.00  0.00    +0.000 A 
ATOM     22  O   UNL     1       6.069   6.136  15.859  0.00  0.00    +0.000 OA
ENDBRANCH  12  14
ENDBRANCH   1  12
BRANCH   7  23
ATOM     23  C   UNL     1       2.217   7.241  19.918  0.00  0.00    +0.000 C 
BRANCH  23  24
ATOM     24  C   UNL     1       1.475   8.062  20.987  0.00  0.00    +0.000 C 
BRANCH  24  25
ATOM     25  C   UNL     1       0.732   9.250  20.421  0.00  0.00    +0.000 A 
ATOM     26  C   UNL     1      -0.142   9.991  21.229  0.00  0.00    +0.000 A 
ATOM     27  C   UNL     1      -0.837  11.086  20.711  0.00  0.00    +0.000 A 
ATOM     28  C   UNL     1      -0.669  11.454  19.377  0.00  0.00    +0.000 A 
ATOM     29  C   UNL     1       0.203  10.727  18.564  0.00  0.00    +0.000 A 
ATOM     30  C   UNL     1       0.899   9.633  19.083  0.00  0.00    +0.000 A 
ENDBRANCH  24  25
ENDBRANCH  23  24
ENDBRANCH   7  23
TORSDOF 5
ENDMDL
MODEL 8
REMARK VINA RESULT:      -8.3      1.456      3.291
REMARK  Name = 
REMARK  6 active torsions:
REMARK  status: ('A' for Active; 'I' for Inactive)
REMARK    1  A    between atoms: C_1  and  C_2
REMARK    2  A    between atoms: C_2  and  C_3
REMARK    3  A    between atoms: C_3  and  C_4
REMARK    4  A    between atoms: N_10  and  C_11
REMARK    5  A    between atoms: C_11  and  C_12
REMARK    6  A    between atoms: C_12  and  C_13
REMARK                            x       y       z     vdW  Elec       q    Type
REMARK                         _______ _______ _______ _____ _____    ______ ____
ROOT
ATOM      1  C   UNL     1       4.989   6.801  17.123  0.00  0.00    +0.000 A 
ATOM      2  N   UNL     1       5.262   5.554  16.739  0.00  0.00    +0.000 NA
ATOM      3  C   UNL     1       6.540   5.311  16.514  0.00  0.00    +0.000 A 
ATOM      4  N   UNL     1       6.883   4.012  16.195  0.00  0.00    +0.000 N 
ATOM      5  N   UNL     1       7.514   6.207  16.579  0.00  0.00    +0.000 NA
ATOM      6  C   UNL     1       7.162   7.398  17.054  0.00  0.00    +0.000 A 
ATOM      7  N   UNL     1       8.206   8.296  17.243  0.00  0.00    +0.000 N 
ATOM      8  N   UNL     1       5.911   7.742  17.340  0.00  0.00    +0.000 NA
ATOM      9  H   UNL     1       6.091   3.507  15.830  0.00  0.00    +0.000 HD
ATOM     10  H   UNL     1       7.755   3.978  15.689  0.00  0.00    +0.000 HD
ATOM     11  H   UNL     1       8.572   8.534  16.328  0.00  0.00    +0.000 HD
ENDROOT
BRANCH   1  12
ATOM     12  C   UNL     1       3.555   7.123  17.447  0.00  0.00    +0.000 C 
BRANCH  12  14
ATOM     13  C   UNL     1       2.282   7.233  19.589  0.00  0.00    +0.000 C 
ATOM     14  C   UNL     1       2.949   6.280  18.583  0.00  0.00    +0.000 C 
ATOM     15  O   UNL     1       3.981   5.549  19.298  0.00  0.00    +0.000 OA
ATOM     16  C   UNL     1       3.529   4.269  19.183  0.00  0.00    +0.000 A 
ATOM     17  C   UNL     1       4.154   3.144  19.675  0.00  0.00    +0.000 A 
ATOM     18  C   UNL     1       3.538   1.906  19.441  0.00  0.00    +0.000 A 
ATOM     19  C   UNL     1       2.316   1.833  18.745  0.00  0.00    +0.000 A 
ATOM     20  C   UNL     1       1.704   2.994  18.265  0.00  0.00    +0.000 A 
ATOM     21  C   UNL     1       2.341   4.193  18.492  0.00  0.00    +0.000 A 
ATOM     22  O   UNL     1       1.902   5.414  18.075  0.00  0.00    +0.000 OA
ENDBRANCH  12  14
ENDBRANCH   1  12
BRANCH   7  23
ATOM     23  C   UNL     1       7.967   9.416  18.148  0.00  0.00    +0.000 C 
BRANCH  23  24
ATOM     24  C   UNL     1       9.242   9.712  18.955  0.00  0.00    +0.000 C 
BRANCH  24  25
ATOM     25  C   UNL     1       9.840  11.067  18.657  0.00  0.00    +0.000 A 
ATOM     26  C   UNL     1       9.122  12.009  17.906  0.00  0.00    +0.000 A 
ATOM     27  C   UNL     1       9.671  13.262  17.620  0.00  0.00    +0.000 A 
ATOM     28  C   UNL     1      10.945  13.588  18.081  0.00  0.00    +0.000 A 
ATOM     29  C   UNL     1      11.667  12.661  18.834  0.00  0.00    +0.000 A 
ATOM     30  C   UNL     1      11.117  11.409  19.120  0.00  0.00    +0.000 A 
ENDBRANCH  24  25
ENDBRANCH  23  24
ENDBRANCH   7  23
TORSDOF 5
ENDMDL
MODEL 9
REMARK VINA RESULT:      -8.3      3.038      6.700
REMARK  Name = 
REMARK  6 active torsions:
REMARK  status: ('A' for Active; 'I' for Inactive)
REMARK    1  A    between atoms: C_1  and  C_2
REMARK    2  A    between atoms: C_2  and  C_3
REMARK    3  A    between atoms: C_3  and  C_4
REMARK    4  A    between atoms: N_10  and  C_11
REMARK    5  A    between atoms: C_11  and  C_12
REMARK    6  A    between atoms: C_12  and  C_13
REMARK                            x       y       z     vdW  Elec       q    Type
REMARK                         _______ _______ _______ _____ _____    ______ ____
ROOT
ATOM      1  C   UNL     1       3.856   3.798  17.664  0.00  0.00    +0.000 A 
ATOM      2  N   UNL     1       4.145   2.498  17.627  0.00  0.00    +0.000 NA
ATOM      3  C   UNL     1       3.773   1.817  18.695  0.00  0.00    +0.000 A 
ATOM      4  N   UNL     1       3.976   0.451  18.668  0.00  0.00    +0.000 N 
ATOM      5  N   UNL     1       3.217   2.335  19.780  0.00  0.00    +0.000 NA
ATOM      6  C   UNL     1       2.887   3.620  19.691  0.00  0.00    +0.000 A 
ATOM      7  N   UNL     1       2.187   4.132  20.779  0.00  0.00    +0.000 N 
ATOM      8  N   UNL     1       3.185   4.394  18.653  0.00  0.00    +0.000 NA
ATOM      9  H   UNL     1       4.693   0.204  18.004  0.00  0.00    +0.000 HD
ATOM     10  H   UNL     1       4.028   0.071  19.601  0.00  0.00    +0.000 HD
ATOM     11  H   UNL     1       2.817   4.131  21.573  0.00  0.00    +0.000 HD
ENDROOT
BRANCH   1  12
ATOM     12  C   UNL     1       4.206   4.616  16.449  0.00  0.00    +0.000 C 
BRANCH  12  14
ATOM     13  C   UNL     1       6.221   4.133  15.063  0.00  0.00    +0.000 C 
ATOM     14  C   UNL     1       5.707   4.912  16.285  0.00  0.00    +0.000 C 
ATOM     15  O   UNL     1       6.458   4.450  17.439  0.00  0.00    +0.000 OA
ATOM     16  C   UNL     1       7.089   5.595  17.822  0.00  0.00    +0.000 A 
ATOM     17  C   UNL     1       7.932   5.730  18.903  0.00  0.00    +0.000 A 
ATOM     18  C   UNL     1       8.476   7.000  19.145  0.00  0.00    +0.000 A 
ATOM     19  C   UNL     1       8.178   8.083  18.295  0.00  0.00    +0.000 A 
ATOM     20  C   UNL     1       7.324   7.910  17.202  0.00  0.00    +0.000 A 
ATOM     21  C   UNL     1       6.790   6.657  17.000  0.00  0.00    +0.000 A 
ATOM     22  O   UNL     1       5.923   6.318  16.004  0.00  0.00    +0.000 OA
ENDBRANCH  12  14
ENDBRANCH   1  12
BRANCH   7  23
ATOM     23  C   UNL     1       1.428   5.360  20.567  0.00  0.00    +0.000 C 
BRANCH  23  24
ATOM     24  C   UNL     1       2.368   6.574  20.659  0.00  0.00    +0.000 C 
BRANCH  24  25
ATOM     25  C   UNL     1       1.903   7.755  19.839  0.00  0.00    +0.000 A 
ATOM     26  C   UNL     1       1.091   8.743  20.415  0.00  0.00    +0.000 A 
ATOM     27  C   UNL     1       0.652   9.834  19.661  0.00  0.00    +0.000 A 
ATOM     28  C   UNL     1       1.018   9.951  18.321  0.00  0.00    +0.000 A 
ATOM     29  C   UNL     1       1.832   8.977  17.739  0.00  0.00    +0.000 A 
ATOM     30  C   UNL     1       2.271   7.886  18.494  0.00  0.00    +0.000 A 
ENDBRANCH  24  25
ENDBRANCH  23  24
ENDBRANCH   7  23
TORSDOF 5
ENDMDL
