MODEL 1
REMARK VINA RESULT:      -7.5      0.000      0.000
REMARK  Name = 
REMARK  3 active torsions:
REMARK  status: ('A' for Active; 'I' for Inactive)
REMARK    1  A    between atoms: C_1  and  O_2
REMARK    2  A    between atoms: O_2  and  C_3
REMARK    3  A    between atoms: C_10  and  O_11
REMARK                            x       y       z     vdW  Elec       q    Type
REMARK                         _______ _______ _______ _____ _____    ______ ____
ROOT
ATOM      1  C   UNL     1       5.956   4.640  15.316  0.00  0.00    +0.000 A 
ATOM      2  C   UNL     1       5.432   5.920  15.219  0.00  0.00    +0.000 A 
ATOM      3  C   UNL     1       4.583   6.398  16.211  0.00  0.00    +0.000 A 
ATOM      4  C   UNL     1       4.231   5.611  17.325  0.00  0.00    +0.000 A 
ATOM      5  C   UNL     1       4.761   4.302  17.423  0.00  0.00    +0.000 A 
ATOM      6  C   UNL     1       5.612   3.849  16.416  0.00  0.00    +0.000 A 
ATOM      7  N   UNL     1       4.478   3.484  18.439  0.00  0.00    +0.000 NA
ATOM      8  C   UNL     1       3.664   3.910  19.412  0.00  0.00    +0.000 A 
ATOM      9  C   UNL     1       3.098   5.181  19.410  0.00  0.00    +0.000 A 
ATOM     10  S   UNL     1       2.052   5.836  20.597  0.00  0.00    +0.000 S 
ATOM     11  C   UNL     1       1.905   7.331  19.786  0.00  0.00    +0.000 A 
ATOM     12  C   UNL     1       1.137   8.433  20.225  0.00  0.00    +0.000 A 
ATOM     13  C   UNL     1       1.107   9.598  19.460  0.00  0.00    +0.000 A 
ATOM     14  C   UNL     1       1.825   9.668  18.283  0.00  0.00    +0.000 A 
ATOM     15  C   UNL     1       2.582   8.571  17.858  0.00  0.00    +0.000 A 
ATOM     16  C   UNL     1       2.647   7.357  18.601  0.00  0.00    +0.000 A 
ATOM     17  C   UNL     1       3.357   6.083  18.373  0.00  0.00    +0.000 A 
ENDROOT
BRANCH   1  19
ATOM     18  C   UNL     1       6.205   3.692  13.161  0.00  0.00    +0.000 C 
ATOM     19  O   UNL     1       6.800   4.073  14.398  0.00  0.00    +0.000 OA
ENDBRANCH   1  19
BRANCH   8  20
ATOM     20  O   UNL     1       3.439   2.990  20.398  0.00  0.00    +0.000 OA
ATOM     21  H   UNL     1       4.325   2.945  20.796  0.00  0.00    +0.000 HD
ENDBRANCH   8  20
TORSDOF 2
ENDMDL
MODEL 2
REMARK VINA RESULT:      -7.4      2.390      5.865
REMARK  Name = 
REMARK  3 active torsions:
REMARK  status: ('A' for Active; 'I' for Inactive)
REMARK    1  A    between atoms: C_1  and  O_2
REMARK    2  A    between atoms: O_2  and  C_3
REMARK    3  A    between atoms: C_10  and  O_11
REMARK                            x       y       z     vdW  Elec       q    Type
REMARK                         _______ _______ _______ _____ _____    ______ ____
ROOT
ATOM      1  C   UNL     1       1.165   9.668  19.238  0.00  0.00    +0.000 A 
ATOM      2  C   UNL     1       1.945   9.609  18.093  0.00  0.00    +0.000 A 
ATOM      3  C   UNL     1       2.669   8.457  17.808  0.00  0.00    +0.000 A 
ATOM      4  C   UNL     1       2.638   7.334  18.658  0.00  0.00    +0.000 A 
ATOM      5  C   UNL     1       1.847   7.395  19.831  0.00  0.00    +0.000 A 
ATOM      6  C   UNL     1       1.128   8.561  20.091  0.00  0.00    +0.000 A 
ATOM      7  N   UNL     1       1.762   6.383  20.696  0.00  0.00    +0.000 NA
ATOM      8  C   UNL     1       2.446   5.259  20.454  0.00  0.00    +0.000 A 
ATOM      9  C   UNL     1       3.246   5.098  19.327  0.00  0.00    +0.000 A 
ATOM     10  S   UNL     1       4.159   3.711  18.911  0.00  0.00    +0.000 S 
ATOM     11  C   UNL     1       4.754   4.412  17.473  0.00  0.00    +0.000 A 
ATOM     12  C   UNL     1       5.631   3.789  16.556  0.00  0.00    +0.000 A 
ATOM     13  C   UNL     1       6.040   4.482  15.417  0.00  0.00    +0.000 A 
ATOM     14  C   UNL     1       5.586   5.765  15.192  0.00  0.00    +0.000 A 
ATOM     15  C   UNL     1       4.718   6.373  16.106  0.00  0.00    +0.000 A 
ATOM     16  C   UNL     1       4.271   5.710  17.286  0.00  0.00    +0.000 A 
ATOM     17  C   UNL     1       3.375   6.123  18.385  0.00  0.00    +0.000 A 
ENDROOT
BRANCH   1  19
ATOM     18  C   UNL     1      -0.930  10.766  19.136  0.00  0.00    +0.000 C 
ATOM     19  O   UNL     1       0.414  10.750  19.612  0.00  0.00    +0.000 OA
ENDBRANCH   1  19
BRANCH   8  20
ATOM     20  O   UNL     1       2.291   4.291  21.408  0.00  0.00    +0.000 OA
ATOM     21  H   UNL     1       3.197   3.938  21.442  0.00  0.00    +0.000 HD
ENDBRANCH   8  20
TORSDOF 2
ENDMDL
MODEL 3
REMARK VINA RESULT:      -7.2      3.698      6.155
REMARK  Name = 
REMARK  3 active torsions:
REMARK  status: ('A' for Active; 'I' for Inactive)
REMARK    1  A    between atoms: C_1  and  O_2
REMARK    2  A    between atoms: O_2  and  C_3
REMARK    3  A    between atoms: C_10  and  O_11
REMARK                            x       y       z     vdW  Elec       q    Type
REMARK                         _______ _______ _______ _____ _____    ______ ____
ROOT
ATOM      1  C   UNL     1       2.007   2.955  19.389  0.00  0.00    +0.000 A 
ATOM      2  C   UNL     1       1.982   2.774  18.014  0.00  0.00    +0.000 A 
ATOM      3  C   UNL     1       3.057   3.199  17.241  0.00  0.00    +0.000 A 
ATOM      4  C   UNL     1       4.185   3.816  17.816  0.00  0.00    +0.000 A 
ATOM      5  C   UNL     1       4.210   4.006  19.219  0.00  0.00    +0.000 A 
ATOM      6  C   UNL     1       3.120   3.569  19.972  0.00  0.00    +0.000 A 
ATOM      7  N   UNL     1       5.233   4.585  19.850  0.00  0.00    +0.000 NA
ATOM      8  C   UNL     1       6.284   5.006  19.137  0.00  0.00    +0.000 A 
ATOM      9  C   UNL     1       6.358   4.860  17.755  0.00  0.00    +0.000 A 
ATOM     10  S   UNL     1       7.648   5.352  16.743  0.00  0.00    +0.000 S 
ATOM     11  C   UNL     1       6.881   4.789  15.325  0.00  0.00    +0.000 A 
ATOM     12  C   UNL     1       7.408   4.871  14.016  0.00  0.00    +0.000 A 
ATOM     13  C   UNL     1       6.670   4.369  12.946  0.00  0.00    +0.000 A 
ATOM     14  C   UNL     1       5.434   3.798  13.168  0.00  0.00    +0.000 A 
ATOM     15  C   UNL     1       4.921   3.722  14.467  0.00  0.00    +0.000 A 
ATOM     16  C   UNL     1       5.633   4.221  15.597  0.00  0.00    +0.000 A 
ATOM     17  C   UNL     1       5.317   4.260  17.039  0.00  0.00    +0.000 A 
ENDROOT
BRANCH   1  19
ATOM     18  C   UNL     1       1.305   2.672  21.632  0.00  0.00    +0.000 C 
ATOM     19  O   UNL     1       1.006   2.575  20.242  0.00  0.00    +0.000 OA
ENDBRANCH   1  19
BRANCH   8  20
ATOM     20  O   UNL     1       7.271   5.590  19.883  0.00  0.00    +0.000 OA
ATOM     21  H   UNL     1       7.997   4.962  19.729  0.00  0.00    +0.000 HD
ENDBRANCH   8  20
TORSDOF 2
ENDMDL
MODEL 4
REMARK VINA RESULT:      -7.1      2.352      5.933
REMARK  Name = 
REMARK  3 active torsions:
REMARK  status: ('A' for Active; 'I' for Inactive)
REMARK    1  A    between atoms: C_1  and  O_2
REMARK    2  A    between atoms: O_2  and  C_3
REMARK    3  A    between atoms: C_10  and  O_11
REMARK                            x       y       z     vdW  Elec       q    Type
REMARK                         _______ _______ _______ _____ _____    ______ ____
ROOT
ATOM      1  C   UNL     1       1.127   8.664  20.341  0.00  0.00    +0.000 A 
ATOM      2  C   UNL     1       1.830   8.904  19.170  0.00  0.00    +0.000 A 
ATOM      3  C   UNL     1       2.577   7.884  18.590  0.00  0.00    +0.000 A 
ATOM      4  C   UNL     1       2.643   6.599  19.162  0.00  0.00    +0.000 A 
ATOM      5  C   UNL     1       1.930   6.353  20.360  0.00  0.00    +0.000 A 
ATOM      6  C   UNL     1       1.187   7.393  20.920  0.00  0.00    +0.000 A 
ATOM      7  N   UNL     1       1.939   5.169  20.975  0.00  0.00    +0.000 NA
ATOM      8  C   UNL     1       2.646   4.165  20.445  0.00  0.00    +0.000 A 
ATOM      9  C   UNL     1       3.376   4.303  19.268  0.00  0.00    +0.000 A 
ATOM     10  S   UNL     1       4.309   3.094  18.496  0.00  0.00    +0.000 S 
ATOM     11  C   UNL     1       4.782   4.130  17.224  0.00  0.00    +0.000 A 
ATOM     12  C   UNL     1       5.619   3.776  16.142  0.00  0.00    +0.000 A 
ATOM     13  C   UNL     1       5.925   4.727  15.170  0.00  0.00    +0.000 A 
ATOM     14  C   UNL     1       5.411   6.004  15.269  0.00  0.00    +0.000 A 
ATOM     15  C   UNL     1       4.583   6.344  16.345  0.00  0.00    +0.000 A 
ATOM     16  C   UNL     1       4.240   5.411  17.366  0.00  0.00    +0.000 A 
ATOM     17  C   UNL     1       3.404   5.520  18.578  0.00  0.00    +0.000 A 
ENDROOT
BRANCH   1  19
ATOM     18  C   UNL     1       0.372   9.517  22.417  0.00  0.00    +0.000 C 
ATOM     19  O   UNL     1       0.362   9.594  20.993  0.00  0.00    +0.000 OA
ENDBRANCH   1  19
BRANCH   8  20
ATOM     20  O   UNL     1       2.591   3.000  21.160  0.00  0.00    +0.000 OA
ATOM     21  H   UNL     1       2.601   2.353  20.434  0.00  0.00    +0.000 HD
ENDBRANCH   8  20
TORSDOF 2
ENDMDL
MODEL 5
REMARK VINA RESULT:      -7.1      3.106      3.899
REMARK  Name = 
REMARK  3 active torsions:
REMARK  status: ('A' for Active; 'I' for Inactive)
REMARK    1  A    between atoms: C_1  and  O_2
REMARK    2  A    between atoms: O_2  and  C_3
REMARK    3  A    between atoms: C_10  and  O_11
REMARK                            x       y       z     vdW  Elec       q    Type
REMARK                         _______ _______ _______ _____ _____    ______ ____
ROOT
ATOM      1  C   UNL     1       6.603   4.132  13.048  0.00  0.00    +0.000 A 
ATOM      2  C   UNL     1       5.371   3.584  13.373  0.00  0.00    +0.000 A 
ATOM      3  C   UNL     1       4.839   3.781  14.642  0.00  0.00    +0.000 A 
ATOM      4  C   UNL     1       5.520   4.528  15.622  0.00  0.00    +0.000 A 
ATOM      5  C   UNL     1       6.780   5.085  15.294  0.00  0.00    +0.000 A 
ATOM      6  C   UNL     1       7.290   4.874  14.013  0.00  0.00    +0.000 A 
ATOM      7  N   UNL     1       7.498   5.802  16.160  0.00  0.00    +0.000 NA
ATOM      8  C   UNL     1       7.017   6.012  17.391  0.00  0.00    +0.000 A 
ATOM      9  C   UNL     1       5.787   5.512  17.808  0.00  0.00    +0.000 A 
ATOM     10  S   UNL     1       5.068   5.720  19.348  0.00  0.00    +0.000 S 
ATOM     11  C   UNL     1       3.679   4.820  18.931  0.00  0.00    +0.000 A 
ATOM     12  C   UNL     1       2.580   4.560  19.782  0.00  0.00    +0.000 A 
ATOM     13  C   UNL     1       1.508   3.807  19.309  0.00  0.00    +0.000 A 
ATOM     14  C   UNL     1       1.524   3.320  18.018  0.00  0.00    +0.000 A 
ATOM     15  C   UNL     1       2.616   3.582  17.183  0.00  0.00    +0.000 A 
ATOM     16  C   UNL     1       3.738   4.346  17.617  0.00  0.00    +0.000 A 
ATOM     17  C   UNL     1       4.988   4.754  16.945  0.00  0.00    +0.000 A 
ENDROOT
BRANCH   1  19
ATOM     18  C   UNL     1       7.282   2.676  11.309  0.00  0.00    +0.000 C 
ATOM     19  O   UNL     1       7.217   4.001  11.831  0.00  0.00    +0.000 OA
ENDBRANCH   1  19
BRANCH   8  20
ATOM     20  O   UNL     1       7.837   6.753  18.196  0.00  0.00    +0.000 OA
ATOM     21  H   UNL     1       8.295   7.289  17.526  0.00  0.00    +0.000 HD
ENDBRANCH   8  20
TORSDOF 2
ENDMDL
MODEL 6
REMARK VINA RESULT:      -7.0      2.267      3.858
REMARK  Name = 
REMARK  3 active torsions:
REMARK  status: ('A' for Active; 'I' for Inactive)
REMARK    1  A    between atoms: C_1  and  O_2
REMARK    2  A    between atoms: O_2  and  C_3
REMARK    3  A    between atoms: C_10  and  O_11
REMARK                            x       y       z     vdW  Elec       q    Type
REMARK                         _______ _______ _______ _____ _____    ______ ____
ROOT
ATOM      1  C   UNL     1       6.178   4.750  14.845  0.00  0.00    +0.000 A 
ATOM      2  C   UNL     1       6.003   3.649  15.670  0.00  0.00    +0.000 A 
ATOM      3  C   UNL     1       5.217   3.758  16.812  0.00  0.00    +0.000 A 
ATOM      4  C   UNL     1       4.585   4.967  17.163  0.00  0.00    +0.000 A 
ATOM      5  C   UNL     1       4.767   6.093  16.325  0.00  0.00    +0.000 A 
ATOM      6  C   UNL     1       5.558   5.956  15.184  0.00  0.00    +0.000 A 
ATOM      7  N   UNL     1       4.212   7.279  16.581  0.00  0.00    +0.000 NA
ATOM      8  C   UNL     1       3.449   7.420  17.671  0.00  0.00    +0.000 A 
ATOM      9  C   UNL     1       3.205   6.372  18.554  0.00  0.00    +0.000 A 
ATOM     10  S   UNL     1       2.246   6.432  19.971  0.00  0.00    +0.000 S 
ATOM     11  C   UNL     1       2.525   4.791  20.348  0.00  0.00    +0.000 A 
ATOM     12  C   UNL     1       2.004   4.104  21.468  0.00  0.00    +0.000 A 
ATOM     13  C   UNL     1       2.315   2.758  21.655  0.00  0.00    +0.000 A 
ATOM     14  C   UNL     1       3.126   2.106  20.749  0.00  0.00    +0.000 A 
ATOM     15  C   UNL     1       3.637   2.795  19.643  0.00  0.00    +0.000 A 
ATOM     16  C   UNL     1       3.351   4.171  19.406  0.00  0.00    +0.000 A 
ATOM     17  C   UNL     1       3.759   5.106  18.338  0.00  0.00    +0.000 A 
ENDROOT
BRANCH   1  19
ATOM     18  C   UNL     1       6.543   3.809  12.703  0.00  0.00    +0.000 C 
ATOM     19  O   UNL     1       6.928   4.753  13.700  0.00  0.00    +0.000 OA
ENDBRANCH   1  19
BRANCH   8  20
ATOM     20  O   UNL     1       2.937   8.677  17.840  0.00  0.00    +0.000 OA
ATOM     21  H   UNL     1       3.579   9.039  18.475  0.00  0.00    +0.000 HD
ENDBRANCH   8  20
TORSDOF 2
ENDMDL
MODEL 7
REMARK VINA RESULT:      -7.0      4.113      7.961
REMARK  Name = 
REMARK  3 active torsions:
REMARK  status: ('A' for Active; 'I' for Inactive)
REMARK    1  A    between atoms: C_1  and  O_2
REMARK    2  A    between atoms: O_2  and  C_3
REMARK    3  A    between atoms: C_10  and  O_11
REMARK                            x       y       z     vdW  Elec       q    Type
REMARK                         _______ _______ _______ _____ _____    ______ ____
ROOT
ATOM      1  C   UNL     1      -0.509  10.737  22.597  0.00  0.00    +0.000 A 
ATOM      2  C   UNL     1      -0.326   9.401  22.918  0.00  0.00    +0.000 A 
ATOM      3  C   UNL     1       0.358   8.566  22.041  0.00  0.00    +0.000 A 
ATOM      4  C   UNL     1       0.875   9.040  20.820  0.00  0.00    +0.000 A 
ATOM      5  C   UNL     1       0.685  10.404  20.488  0.00  0.00    +0.000 A 
ATOM      6  C   UNL     1      -0.002  11.220  21.387  0.00  0.00    +0.000 A 
ATOM      7  N   UNL     1       1.135  10.939  19.352  0.00  0.00    +0.000 NA
ATOM      8  C   UNL     1       1.798  10.165  18.484  0.00  0.00    +0.000 A 
ATOM      9  C   UNL     1       2.041   8.815  18.720  0.00  0.00    +0.000 A 
ATOM     10  S   UNL     1       2.878   7.733  17.692  0.00  0.00    +0.000 S 
ATOM     11  C   UNL     1       2.682   6.413  18.757  0.00  0.00    +0.000 A 
ATOM     12  C   UNL     1       3.158   5.101  18.538  0.00  0.00    +0.000 A 
ATOM     13  C   UNL     1       2.926   4.116  19.496  0.00  0.00    +0.000 A 
ATOM     14  C   UNL     1       2.236   4.426  20.650  0.00  0.00    +0.000 A 
ATOM     15  C   UNL     1       1.769   5.729  20.858  0.00  0.00    +0.000 A 
ATOM     16  C   UNL     1       1.978   6.772  19.910  0.00  0.00    +0.000 A 
ATOM     17  C   UNL     1       1.594   8.198  19.893  0.00  0.00    +0.000 A 
ENDROOT
BRANCH   1  19
ATOM     18  C   UNL     1      -1.194  12.983  22.899  0.00  0.00    +0.000 C 
ATOM     19  O   UNL     1      -1.165  11.644  23.386  0.00  0.00    +0.000 OA
ENDBRANCH   1  19
BRANCH   8  20
ATOM     20  O   UNL     1       2.207  10.814  17.352  0.00  0.00    +0.000 OA
ATOM     21  H   UNL     1       1.452  10.631  16.767  0.00  0.00    +0.000 HD
ENDBRANCH   8  20
TORSDOF 2
ENDMDL
MODEL 8
REMARK VINA RESULT:      -6.9      2.829      6.223
REMARK  Name = 
REMARK  3 active torsions:
REMARK  status: ('A' for Active; 'I' for Inactive)
REMARK    1  A    between atoms: C_1  and  O_2
REMARK    2  A    between atoms: O_2  and  C_3
REMARK    3  A    between atoms: C_10  and  O_11
REMARK                            x       y       z     vdW  Elec       q    Type
REMARK                         _______ _______ _______ _____ _____    ______ ____
ROOT
ATOM      1  C   UNL     1       1.235   9.997  19.069  0.00  0.00    +0.000 A 
ATOM      2  C   UNL     1       0.896   9.097  20.068  0.00  0.00    +0.000 A 
ATOM      3  C   UNL     1       1.445   7.820  20.065  0.00  0.00    +0.000 A 
ATOM      4  C   UNL     1       2.344   7.404  19.064  0.00  0.00    +0.000 A 
ATOM      5  C   UNL     1       2.687   8.319  18.040  0.00  0.00    +0.000 A 
ATOM      6  C   UNL     1       2.125   9.595  18.069  0.00  0.00    +0.000 A 
ATOM      7  N   UNL     1       3.526   8.011  17.049  0.00  0.00    +0.000 NA
ATOM      8  C   UNL     1       4.073   6.790  17.014  0.00  0.00    +0.000 A 
ATOM      9  C   UNL     1       3.804   5.822  17.976  0.00  0.00    +0.000 A 
ATOM     10  S   UNL     1       4.446   4.236  18.038  0.00  0.00    +0.000 S 
ATOM     11  C   UNL     1       3.601   3.843  19.468  0.00  0.00    +0.000 A 
ATOM     12  C   UNL     1       3.658   2.602  20.143  0.00  0.00    +0.000 A 
ATOM     13  C   UNL     1       2.911   2.418  21.306  0.00  0.00    +0.000 A 
ATOM     14  C   UNL     1       2.125   3.443  21.790  0.00  0.00    +0.000 A 
ATOM     15  C   UNL     1       2.075   4.667  21.114  0.00  0.00    +0.000 A 
ATOM     16  C   UNL     1       2.817   4.908  19.922  0.00  0.00    +0.000 A 
ATOM     17  C   UNL     1       2.934   6.086  19.039  0.00  0.00    +0.000 A 
ENDROOT
BRANCH   1  19
ATOM     18  C   UNL     1      -0.114  11.689  20.030  0.00  0.00    +0.000 C 
ATOM     19  O   UNL     1       0.755  11.276  18.978  0.00  0.00    +0.000 OA
ENDBRANCH   1  19
BRANCH   8  20
ATOM     20  O   UNL     1       4.911   6.580  15.953  0.00  0.00    +0.000 OA
ATOM     21  H   UNL     1       5.725   6.334  16.425  0.00  0.00    +0.000 HD
ENDBRANCH   8  20
TORSDOF 2
ENDMDL
MODEL 9
REMARK VINA RESULT:      -6.8      3.310      5.393
REMARK  Name = 
REMARK  3 active torsions:
REMARK  status: ('A' for Active; 'I' for Inactive)
REMARK    1  A    between atoms: C_1  and  O_2
REMARK    2  A    between atoms: O_2  and  C_3
REMARK    3  A    between atoms: C_10  and  O_11
REMARK                            x       y       z     vdW  Elec       q    Type
REMARK                         _______ _______ _______ _____ _____    ______ ____
ROOT
ATOM      1  C   UNL     1       2.669   5.274  19.385  0.00  0.00    +0.000 A 
ATOM      2  C   UNL     1       1.950   5.502  20.548  0.00  0.00    +0.000 A 
ATOM      3  C   UNL     1       1.438   6.768  20.808  0.00  0.00    +0.000 A 
ATOM      4  C   UNL     1       1.630   7.841  19.915  0.00  0.00    +0.000 A 
ATOM      5  C   UNL     1       2.368   7.611  18.730  0.00  0.00    +0.000 A 
ATOM      6  C   UNL     1       2.869   6.331  18.492  0.00  0.00    +0.000 A 
ATOM      7  N   UNL     1       2.605   8.568  17.830  0.00  0.00    +0.000 NA
ATOM      8  C   UNL     1       2.127   9.799  18.048  0.00  0.00    +0.000 A 
ATOM      9  C   UNL     1       1.385  10.125  19.179  0.00  0.00    +0.000 A 
ATOM     10  S   UNL     1       0.720  11.656  19.560  0.00  0.00    +0.000 S 
ATOM     11  C   UNL     1       0.037  11.106  21.025  0.00  0.00    +0.000 A 
ATOM     12  C   UNL     1      -0.712  11.891  21.930  0.00  0.00    +0.000 A 
ATOM     13  C   UNL     1      -1.211  11.310  23.094  0.00  0.00    +0.000 A 
ATOM     14  C   UNL     1      -0.973   9.977  23.355  0.00  0.00    +0.000 A 
ATOM     15  C   UNL     1      -0.231   9.207  22.453  0.00  0.00    +0.000 A 
ATOM     16  C   UNL     1       0.304   9.752  21.249  0.00  0.00    +0.000 A 
ATOM     17  C   UNL     1       1.104   9.164  20.156  0.00  0.00    +0.000 A 
ENDROOT
BRANCH   1  19
ATOM     18  C   UNL     1       3.019   3.672  17.676  0.00  0.00    +0.000 C 
ATOM     19  O   UNL     1       3.215   4.069  19.031  0.00  0.00    +0.000 OA
ENDBRANCH   1  19
BRANCH   8  20
ATOM     20  O   UNL     1       2.433  10.702  17.067  0.00  0.00    +0.000 OA
ATOM     21  H   UNL     1       1.727  11.355  17.208  0.00  0.00    +0.000 HD
ENDBRANCH   8  20
TORSDOF 2
ENDMDL
