MODEL 1
REMARK VINA RESULT:      -7.6      0.000      0.000
REMARK  Name = 
REMARK  2 active torsions:
REMARK  status: ('A' for Active; 'I' for Inactive)
REMARK    1  A    between atoms: N_1  and  C_2
REMARK    2  A    between atoms: N_14  and  C_15
REMARK                            x       y       z     vdW  Elec       q    Type
REMARK                         _______ _______ _______ _____ _____    ______ ____
ROOT
ATOM      1  C   UNL     1       0.091   9.376  22.376  0.00  0.00    +0.000 A 
ATOM      2  C   UNL     1       0.560   8.181  21.829  0.00  0.00    +0.000 A 
ATOM      3  C   UNL     1       1.218   8.170  20.590  0.00  0.00    +0.000 A 
ATOM      4  C   UNL     1       1.374   9.349  19.859  0.00  0.00    +0.000 A 
ATOM      5  C   UNL     1       1.995   9.358  18.607  0.00  0.00    +0.000 A 
ATOM      6  C   UNL     1       2.158  10.552  17.894  0.00  0.00    +0.000 A 
ATOM      7  C   UNL     1       1.690  11.749  18.425  0.00  0.00    +0.000 A 
ATOM      8  C   UNL     1       1.045  11.752  19.662  0.00  0.00    +0.000 A 
ATOM      9  C   UNL     1       0.879  10.562  20.389  0.00  0.00    +0.000 A 
ATOM     10  C   UNL     1       0.220  10.551  21.629  0.00  0.00    +0.000 A 
ATOM     11  C   UNL     1       2.465   8.090  18.016  0.00  0.00    +0.000 C 
ATOM     12  O   UNL     1       2.900   8.095  16.869  0.00  0.00    +0.000 OA
ATOM     13  N   UNL     1       2.371   6.940  18.796  0.00  0.00    +0.000 N 
ATOM     14  C   UNL     1       1.775   6.900  20.061  0.00  0.00    +0.000 C 
ATOM     15  O   UNL     1       1.724   5.894  20.763  0.00  0.00    +0.000 OA
ENDROOT
BRANCH  13  16
ATOM     16  C   UNL     1       2.904   5.685  18.243  0.00  0.00    +0.000 C 
ATOM     17  C   UNL     1       1.848   4.726  17.683  0.00  0.00    +0.000 C 
ATOM     18  C   UNL     1       1.412   3.624  18.633  0.00  0.00    +0.000 C 
ATOM     19  C   UNL     1       2.570   2.968  19.342  0.00  0.00    +0.000 C 
ATOM     20  O   UNL     1       2.487   1.839  19.817  0.00  0.00    +0.000 OA
ATOM     21  N   UNL     1       3.711   3.709  19.501  0.00  0.00    +0.000 N 
ATOM     22  C   UNL     1       3.893   5.040  19.217  0.00  0.00    +0.000 C 
ATOM     23  O   UNL     1       4.817   5.664  19.738  0.00  0.00    +0.000 OA
ATOM     24  H   UNL     1       4.396   3.300  20.121  0.00  0.00    +0.000 HD
ENDBRANCH  13  16
BRANCH   1  25
ATOM     25  N   UNL     1      -0.694   9.366  23.532  0.00  0.00    +0.000 N 
ATOM     26  H   UNL     1      -1.255   8.528  23.656  0.00  0.00    +0.000 HD
ATOM     27  H   UNL     1      -0.205   9.632  24.381  0.00  0.00    +0.000 HD
ENDBRANCH   1  25
TORSDOF 2
ENDMDL
MODEL 2
REMARK VINA RESULT:      -7.5      1.271      3.054
REMARK  Name = 
REMARK  2 active torsions:
REMARK  status: ('A' for Active; 'I' for Inactive)
REMARK    1  A    between atoms: N_1  and  C_2
REMARK    2  A    between atoms: N_14  and  C_15
REMARK                            x       y       z     vdW  Elec       q    Type
REMARK                         _______ _______ _______ _____ _____    ______ ____
ROOT
ATOM      1  C   UNL     1       1.407  11.777  18.580  0.00  0.00    +0.000 A 
ATOM      2  C   UNL     1       1.946  10.612  18.034  0.00  0.00    +0.000 A 
ATOM      3  C   UNL     1       1.846   9.389  18.715  0.00  0.00    +0.000 A 
ATOM      4  C   UNL     1       1.247   9.325  19.975  0.00  0.00    +0.000 A 
ATOM      5  C   UNL     1       1.166   8.126  20.687  0.00  0.00    +0.000 A 
ATOM      6  C   UNL     1       0.546   8.076  21.942  0.00  0.00    +0.000 A 
ATOM      7  C   UNL     1       0.011   9.233  22.500  0.00  0.00    +0.000 A 
ATOM      8  C   UNL     1       0.106  10.442  21.812  0.00  0.00    +0.000 A 
ATOM      9  C   UNL     1       0.721  10.504  20.551  0.00  0.00    +0.000 A 
ATOM     10  C   UNL     1       0.835  11.719  19.854  0.00  0.00    +0.000 A 
ATOM     11  C   UNL     1       1.761   6.900  20.123  0.00  0.00    +0.000 C 
ATOM     12  O   UNL     1       1.788   5.883  20.809  0.00  0.00    +0.000 OA
ATOM     13  N   UNL     1       2.282   6.969  18.833  0.00  0.00    +0.000 N 
ATOM     14  C   UNL     1       2.360   8.148  18.084  0.00  0.00    +0.000 C 
ATOM     15  O   UNL     1       2.786   8.203  16.934  0.00  0.00    +0.000 OA
ENDROOT
BRANCH  13  16
ATOM     16  C   UNL     1       2.811   5.734  18.235  0.00  0.00    +0.000 C 
ATOM     17  C   UNL     1       1.746   4.757  17.724  0.00  0.00    +0.000 C 
ATOM     18  C   UNL     1       1.391   3.633  18.683  0.00  0.00    +0.000 C 
ATOM     19  C   UNL     1       2.603   2.997  19.315  0.00  0.00    +0.000 C 
ATOM     20  O   UNL     1       2.574   1.861  19.780  0.00  0.00    +0.000 OA
ATOM     21  N   UNL     1       3.734   3.763  19.418  0.00  0.00    +0.000 N 
ATOM     22  C   UNL     1       3.869   5.101  19.140  0.00  0.00    +0.000 C 
ATOM     23  O   UNL     1       4.808   5.741  19.615  0.00  0.00    +0.000 OA
ATOM     24  H   UNL     1       4.464   3.363  19.992  0.00  0.00    +0.000 HD
ENDBRANCH  13  16
BRANCH   1  25
ATOM     25  N   UNL     1       1.640  13.016  17.975  0.00  0.00    +0.000 N 
ATOM     26  H   UNL     1       1.993  12.963  17.024  0.00  0.00    +0.000 HD
ATOM     27  H   UNL     1       0.880  13.683  18.068  0.00  0.00    +0.000 HD
ENDBRANCH   1  25
TORSDOF 2
ENDMDL
MODEL 3
REMARK VINA RESULT:      -7.5      1.652      2.226
REMARK  Name = 
REMARK  2 active torsions:
REMARK  status: ('A' for Active; 'I' for Inactive)
REMARK    1  A    between atoms: N_1  and  C_2
REMARK    2  A    between atoms: N_14  and  C_15
REMARK                            x       y       z     vdW  Elec       q    Type
REMARK                         _______ _______ _______ _____ _____    ______ ____
ROOT
ATOM      1  C   UNL     1       0.017   9.057  22.082  0.00  0.00    +0.000 A 
ATOM      2  C   UNL     1       0.564   7.800  21.825  0.00  0.00    +0.000 A 
ATOM      3  C   UNL     1       1.327   7.574  20.669  0.00  0.00    +0.000 A 
ATOM      4  C   UNL     1       1.513   8.592  19.731  0.00  0.00    +0.000 A 
ATOM      5  C   UNL     1       2.240   8.382  18.557  0.00  0.00    +0.000 A 
ATOM      6  C   UNL     1       2.432   9.418  17.634  0.00  0.00    +0.000 A 
ATOM      7  C   UNL     1       1.886  10.674  17.877  0.00  0.00    +0.000 A 
ATOM      8  C   UNL     1       1.137  10.893  19.033  0.00  0.00    +0.000 A 
ATOM      9  C   UNL     1       0.941   9.862  19.968  0.00  0.00    +0.000 A 
ATOM     10  C   UNL     1       0.178  10.067  21.129  0.00  0.00    +0.000 A 
ATOM     11  C   UNL     1       2.795   7.044  18.270  0.00  0.00    +0.000 C 
ATOM     12  O   UNL     1       3.327   6.843  17.184  0.00  0.00    +0.000 OA
ATOM     13  N   UNL     1       2.665   6.068  19.254  0.00  0.00    +0.000 N 
ATOM     14  C   UNL     1       1.962   6.251  20.450  0.00  0.00    +0.000 C 
ATOM     15  O   UNL     1       1.879   5.402  21.333  0.00  0.00    +0.000 OA
ENDROOT
BRANCH  13  16
ATOM     16  C   UNL     1       3.278   4.753  19.008  0.00  0.00    +0.000 C 
ATOM     17  C   UNL     1       4.802   4.711  19.172  0.00  0.00    +0.000 C 
ATOM     18  C   UNL     1       5.593   4.846  17.883  0.00  0.00    +0.000 C 
ATOM     19  C   UNL     1       5.039   4.000  16.764  0.00  0.00    +0.000 C 
ATOM     20  O   UNL     1       5.727   3.656  15.807  0.00  0.00    +0.000 OA
ATOM     21  N   UNL     1       3.708   3.680  16.817  0.00  0.00    +0.000 N 
ATOM     22  C   UNL     1       2.767   4.152  17.697  0.00  0.00    +0.000 C 
ATOM     23  O   UNL     1       1.569   4.085  17.419  0.00  0.00    +0.000 OA
ATOM     24  H   UNL     1       3.342   3.259  15.974  0.00  0.00    +0.000 HD
ENDBRANCH  13  16
BRANCH   1  25
ATOM     25  N   UNL     1      -0.865   9.240  23.151  0.00  0.00    +0.000 N 
ATOM     26  H   UNL     1      -1.840   9.343  22.882  0.00  0.00    +0.000 HD
ATOM     27  H   UNL     1      -0.745   8.587  23.919  0.00  0.00    +0.000 HD
ENDBRANCH   1  25
TORSDOF 2
ENDMDL
MODEL 4
REMARK VINA RESULT:      -7.4      1.940      3.750
REMARK  Name = 
REMARK  2 active torsions:
REMARK  status: ('A' for Active; 'I' for Inactive)
REMARK    1  A    between atoms: N_1  and  C_2
REMARK    2  A    between atoms: N_14  and  C_15
REMARK                            x       y       z     vdW  Elec       q    Type
REMARK                         _______ _______ _______ _____ _____    ______ ____
ROOT
ATOM      1  C   UNL     1       1.954  10.921  18.148  0.00  0.00    +0.000 A 
ATOM      2  C   UNL     1       2.532   9.674  17.905  0.00  0.00    +0.000 A 
ATOM      3  C   UNL     1       2.242   8.578  18.733  0.00  0.00    +0.000 A 
ATOM      4  C   UNL     1       1.407   8.728  19.842  0.00  0.00    +0.000 A 
ATOM      5  C   UNL     1       1.131   7.659  20.699  0.00  0.00    +0.000 A 
ATOM      6  C   UNL     1       0.278   7.822  21.798  0.00  0.00    +0.000 A 
ATOM      7  C   UNL     1      -0.299   9.062  22.053  0.00  0.00    +0.000 A 
ATOM      8  C   UNL     1      -0.013  10.143  21.221  0.00  0.00    +0.000 A 
ATOM      9  C   UNL     1       0.838   9.992  20.114  0.00  0.00    +0.000 A 
ATOM     10  C   UNL     1       1.143  11.077  19.275  0.00  0.00    +0.000 A 
ATOM     11  C   UNL     1       1.764   6.348  20.460  0.00  0.00    +0.000 C 
ATOM     12  O   UNL     1       1.608   5.455  21.286  0.00  0.00    +0.000 OA
ATOM     13  N   UNL     1       2.529   6.202  19.306  0.00  0.00    +0.000 N 
ATOM     14  C   UNL     1       2.807   7.244  18.415  0.00  0.00    +0.000 C 
ATOM     15  O   UNL     1       3.452   7.106  17.379  0.00  0.00    +0.000 OA
ENDROOT
BRANCH  13  16
ATOM     16  C   UNL     1       3.103   4.877  19.021  0.00  0.00    +0.000 C 
ATOM     17  C   UNL     1       4.621   4.778  19.213  0.00  0.00    +0.000 C 
ATOM     18  C   UNL     1       5.441   4.933  17.944  0.00  0.00    +0.000 C 
ATOM     19  C   UNL     1       4.882   4.148  16.785  0.00  0.00    +0.000 C 
ATOM     20  O   UNL     1       5.577   3.816  15.828  0.00  0.00    +0.000 OA
ATOM     21  N   UNL     1       3.540   3.871  16.800  0.00  0.00    +0.000 N 
ATOM     22  C   UNL     1       2.598   4.342  17.680  0.00  0.00    +0.000 C 
ATOM     23  O   UNL     1       1.404   4.326  17.377  0.00  0.00    +0.000 OA
ATOM     24  H   UNL     1       3.178   3.494  15.936  0.00  0.00    +0.000 HD
ENDBRANCH  13  16
BRANCH   1  25
ATOM     25  N   UNL     1       2.360  12.043  17.419  0.00  0.00    +0.000 N 
ATOM     26  H   UNL     1       3.232  12.459  17.732  0.00  0.00    +0.000 HD
ATOM     27  H   UNL     1       2.328  11.929  16.410  0.00  0.00    +0.000 HD
ENDBRANCH   1  25
TORSDOF 2
ENDMDL
MODEL 5
REMARK VINA RESULT:      -7.1      3.436      5.615
REMARK  Name = 
REMARK  2 active torsions:
REMARK  status: ('A' for Active; 'I' for Inactive)
REMARK    1  A    between atoms: N_1  and  C_2
REMARK    2  A    between atoms: N_14  and  C_15
REMARK                            x       y       z     vdW  Elec       q    Type
REMARK                         _______ _______ _______ _____ _____    ______ ____
ROOT
ATOM      1  C   UNL     1       1.642   6.790  20.582  0.00  0.00    +0.000 A 
ATOM      2  C   UNL     1       2.595   7.122  19.620  0.00  0.00    +0.000 A 
ATOM      3  C   UNL     1       3.134   6.138  18.776  0.00  0.00    +0.000 A 
ATOM      4  C   UNL     1       2.759   4.800  18.917  0.00  0.00    +0.000 A 
ATOM      5  C   UNL     1       3.307   3.798  18.112  0.00  0.00    +0.000 A 
ATOM      6  C   UNL     1       2.908   2.463  18.255  0.00  0.00    +0.000 A 
ATOM      7  C   UNL     1       1.962   2.119  19.215  0.00  0.00    +0.000 A 
ATOM      8  C   UNL     1       1.425   3.104  20.043  0.00  0.00    +0.000 A 
ATOM      9  C   UNL     1       1.814   4.447  19.907  0.00  0.00    +0.000 A 
ATOM     10  C   UNL     1       1.290   5.446  20.743  0.00  0.00    +0.000 A 
ATOM     11  C   UNL     1       4.336   4.144  17.113  0.00  0.00    +0.000 C 
ATOM     12  O   UNL     1       4.893   3.241  16.497  0.00  0.00    +0.000 OA
ATOM     13  N   UNL     1       4.636   5.493  16.936  0.00  0.00    +0.000 N 
ATOM     14  C   UNL     1       4.091   6.522  17.710  0.00  0.00    +0.000 C 
ATOM     15  O   UNL     1       4.328   7.714  17.530  0.00  0.00    +0.000 OA
ENDROOT
BRANCH  13  16
ATOM     16  C   UNL     1       5.608   5.853  15.892  0.00  0.00    +0.000 C 
ATOM     17  C   UNL     1       5.037   5.906  14.470  0.00  0.00    +0.000 C 
ATOM     18  C   UNL     1       5.255   4.652  13.642  0.00  0.00    +0.000 C 
ATOM     19  C   UNL     1       6.658   4.110  13.756  0.00  0.00    +0.000 C 
ATOM     20  O   UNL     1       7.146   3.382  12.896  0.00  0.00    +0.000 OA
ATOM     21  N   UNL     1       7.355   4.404  14.898  0.00  0.00    +0.000 N 
ATOM     22  C   UNL     1       6.887   5.023  16.030  0.00  0.00    +0.000 C 
ATOM     23  O   UNL     1       7.486   4.898  17.098  0.00  0.00    +0.000 OA
ATOM     24  H   UNL     1       8.218   3.890  15.009  0.00  0.00    +0.000 HD
ENDBRANCH  13  16
BRANCH   1  25
ATOM     25  N   UNL     1       1.221   7.738  21.519  0.00  0.00    +0.000 N 
ATOM     26  H   UNL     1       0.220   7.915  21.523  0.00  0.00    +0.000 HD
ATOM     27  H   UNL     1       1.592   7.606  22.454  0.00  0.00    +0.000 HD
ENDBRANCH   1  25
TORSDOF 2
ENDMDL
MODEL 6
REMARK VINA RESULT:      -6.8      4.607      6.830
REMARK  Name = 
REMARK  2 active torsions:
REMARK  status: ('A' for Active; 'I' for Inactive)
REMARK    1  A    between atoms: N_1  and  C_2
REMARK    2  A    between atoms: N_14  and  C_15
REMARK                            x       y       z     vdW  Elec       q    Type
REMARK                         _______ _______ _______ _____ _____    ______ ____
ROOT
ATOM      1  C   UNL     1       6.400   4.645  14.321  0.00  0.00    +0.000 A 
ATOM      2  C   UNL     1       5.219   4.102  14.830  0.00  0.00    +0.000 A 
ATOM      3  C   UNL     1       4.907   4.220  16.194  0.00  0.00    +0.000 A 
ATOM      4  C   UNL     1       5.795   4.841  17.074  0.00  0.00    +0.000 A 
ATOM      5  C   UNL     1       5.522   4.939  18.441  0.00  0.00    +0.000 A 
ATOM      6  C   UNL     1       6.416   5.580  19.308  0.00  0.00    +0.000 A 
ATOM      7  C   UNL     1       7.599   6.119  18.813  0.00  0.00    +0.000 A 
ATOM      8  C   UNL     1       7.897   6.006  17.456  0.00  0.00    +0.000 A 
ATOM      9  C   UNL     1       7.007   5.370  16.575  0.00  0.00    +0.000 A 
ATOM     10  C   UNL     1       7.303   5.239  15.208  0.00  0.00    +0.000 A 
ATOM     11  C   UNL     1       4.287   4.341  18.984  0.00  0.00    +0.000 C 
ATOM     12  O   UNL     1       4.118   4.330  20.199  0.00  0.00    +0.000 OA
ATOM     13  N   UNL     1       3.381   3.797  18.077  0.00  0.00    +0.000 N 
ATOM     14  C   UNL     1       3.613   3.702  16.702  0.00  0.00    +0.000 C 
ATOM     15  O   UNL     1       2.798   3.256  15.898  0.00  0.00    +0.000 OA
ENDROOT
BRANCH  13  16
ATOM     16  C   UNL     1       2.114   3.265  18.603  0.00  0.00    +0.000 C 
ATOM     17  C   UNL     1       1.249   4.282  19.357  0.00  0.00    +0.000 C 
ATOM     18  C   UNL     1       1.394   4.255  20.868  0.00  0.00    +0.000 C 
ATOM     19  C   UNL     1       1.389   2.858  21.433  0.00  0.00    +0.000 C 
ATOM     20  O   UNL     1       1.093   2.630  22.604  0.00  0.00    +0.000 OA
ATOM     21  N   UNL     1       1.795   1.843  20.607  0.00  0.00    +0.000 N 
ATOM     22  C   UNL     1       2.347   1.952  19.355  0.00  0.00    +0.000 C 
ATOM     23  O   UNL     1       2.999   1.021  18.882  0.00  0.00    +0.000 OA
ATOM     24  H   UNL     1       1.937   0.955  21.068  0.00  0.00    +0.000 HD
ENDBRANCH  13  16
BRANCH   1  25
ATOM     25  N   UNL     1       6.781   4.396  13.000  0.00  0.00    +0.000 N 
ATOM     26  H   UNL     1       6.567   5.146  12.349  0.00  0.00    +0.000 HD
ATOM     27  H   UNL     1       7.729   4.048  12.889  0.00  0.00    +0.000 HD
ENDBRANCH   1  25
TORSDOF 2
ENDMDL
MODEL 7
REMARK VINA RESULT:      -6.8      3.363      5.510
REMARK  Name = 
REMARK  2 active torsions:
REMARK  status: ('A' for Active; 'I' for Inactive)
REMARK    1  A    between atoms: N_1  and  C_2
REMARK    2  A    between atoms: N_14  and  C_15
REMARK                            x       y       z     vdW  Elec       q    Type
REMARK                         _______ _______ _______ _____ _____    ______ ____
ROOT
ATOM      1  C   UNL     1       2.142   8.844  18.177  0.00  0.00    +0.000 A 
ATOM      2  C   UNL     1       3.133   8.170  17.462  0.00  0.00    +0.000 A 
ATOM      3  C   UNL     1       3.541   6.883  17.843  0.00  0.00    +0.000 A 
ATOM      4  C   UNL     1       2.996   6.271  18.974  0.00  0.00    +0.000 A 
ATOM      5  C   UNL     1       3.411   5.004  19.392  0.00  0.00    +0.000 A 
ATOM      6  C   UNL     1       2.842   4.397  20.519  0.00  0.00    +0.000 A 
ATOM      7  C   UNL     1       1.857   5.061  21.244  0.00  0.00    +0.000 A 
ATOM      8  C   UNL     1       1.451   6.337  20.853  0.00  0.00    +0.000 A 
ATOM      9  C   UNL     1       2.011   6.954  19.722  0.00  0.00    +0.000 A 
ATOM     10  C   UNL     1       1.618   8.243  19.326  0.00  0.00    +0.000 A 
ATOM     11  C   UNL     1       4.479   4.304  18.653  0.00  0.00    +0.000 C 
ATOM     12  O   UNL     1       4.916   3.248  19.100  0.00  0.00    +0.000 OA
ATOM     13  N   UNL     1       4.952   4.898  17.486  0.00  0.00    +0.000 N 
ATOM     14  C   UNL     1       4.543   6.154  17.027  0.00  0.00    +0.000 C 
ATOM     15  O   UNL     1       4.933   6.661  15.978  0.00  0.00    +0.000 OA
ENDROOT
BRANCH  13  16
ATOM     16  C   UNL     1       5.965   4.172  16.703  0.00  0.00    +0.000 C 
ATOM     17  C   UNL     1       7.399   4.686  16.870  0.00  0.00    +0.000 C 
ATOM     18  C   UNL     1       7.868   5.644  15.788  0.00  0.00    +0.000 C 
ATOM     19  C   UNL     1       7.502   5.185  14.400  0.00  0.00    +0.000 C 
ATOM     20  O   UNL     1       8.109   5.573  13.405  0.00  0.00    +0.000 OA
ATOM     21  N   UNL     1       6.413   4.364  14.275  0.00  0.00    +0.000 N 
ATOM     22  C   UNL     1       5.515   4.008  15.250  0.00  0.00    +0.000 C 
ATOM     23  O   UNL     1       4.401   3.584  14.942  0.00  0.00    +0.000 OA
ATOM     24  H   UNL     1       6.103   4.216  13.324  0.00  0.00    +0.000 HD
ENDBRANCH  13  16
BRANCH   1  25
ATOM     25  N   UNL     1       1.845  10.179  17.890  0.00  0.00    +0.000 N 
ATOM     26  H   UNL     1       1.013  10.536  18.351  0.00  0.00    +0.000 HD
ATOM     27  H   UNL     1       2.632  10.816  17.969  0.00  0.00    +0.000 HD
ENDBRANCH   1  25
TORSDOF 2
ENDMDL
MODEL 8
REMARK VINA RESULT:      -6.8      7.296     10.316
REMARK  Name = 
REMARK  2 active torsions:
REMARK  status: ('A' for Active; 'I' for Inactive)
REMARK    1  A    between atoms: N_1  and  C_2
REMARK    2  A    between atoms: N_14  and  C_15
REMARK                            x       y       z     vdW  Elec       q    Type
REMARK                         _______ _______ _______ _____ _____    ______ ____
ROOT
ATOM      1  C   UNL     1      -1.984  11.922  18.476  0.00  0.00    +0.000 A 
ATOM      2  C   UNL     1      -2.162  12.511  19.729  0.00  0.00    +0.000 A 
ATOM      3  C   UNL     1      -3.446  12.657  20.275  0.00  0.00    +0.000 A 
ATOM      4  C   UNL     1      -4.574  12.258  19.555  0.00  0.00    +0.000 A 
ATOM      5  C   UNL     1      -5.864  12.425  20.064  0.00  0.00    +0.000 A 
ATOM      6  C   UNL     1      -6.984  12.004  19.335  0.00  0.00    +0.000 A 
ATOM      7  C   UNL     1      -6.820  11.422  18.082  0.00  0.00    +0.000 A 
ATOM      8  C   UNL     1      -5.540  11.272  17.550  0.00  0.00    +0.000 A 
ATOM      9  C   UNL     1      -4.408  11.686  18.273  0.00  0.00    +0.000 A 
ATOM     10  C   UNL     1      -3.115  11.551  17.742  0.00  0.00    +0.000 A 
ATOM     11  C   UNL     1      -6.054  13.073  21.375  0.00  0.00    +0.000 C 
ATOM     12  O   UNL     1      -7.194  13.320  21.756  0.00  0.00    +0.000 OA
ATOM     13  N   UNL     1      -4.914  13.390  22.110  0.00  0.00    +0.000 N 
ATOM     14  C   UNL     1      -3.609  13.217  21.639  0.00  0.00    +0.000 C 
ATOM     15  O   UNL     1      -2.604  13.463  22.301  0.00  0.00    +0.000 OA
ENDROOT
BRANCH  13  16
ATOM     16  C   UNL     1      -5.096  13.970  23.450  0.00  0.00    +0.000 C 
ATOM     17  C   UNL     1      -4.831  15.477  23.543  0.00  0.00    +0.000 C 
ATOM     18  C   UNL     1      -3.444  15.857  24.033  0.00  0.00    +0.000 C 
ATOM     19  C   UNL     1      -3.001  15.048  25.225  0.00  0.00    +0.000 C 
ATOM     20  O   UNL     1      -2.135  15.448  25.998  0.00  0.00    +0.000 OA
ATOM     21  N   UNL     1      -3.555  13.804  25.382  0.00  0.00    +0.000 N 
ATOM     22  C   UNL     1      -4.371  13.133  24.506  0.00  0.00    +0.000 C 
ATOM     23  O   UNL     1      -4.494  11.911  24.587  0.00  0.00    +0.000 OA
ATOM     24  H   UNL     1      -3.113  13.233  26.090  0.00  0.00    +0.000 HD
ENDBRANCH  13  16
BRANCH   1  25
ATOM     25  N   UNL     1      -0.725  11.915  17.869  0.00  0.00    +0.000 N 
ATOM     26  H   UNL     1      -0.241  12.808  17.887  0.00  0.00    +0.000 HD
ATOM     27  H   UNL     1      -0.124  11.146  18.146  0.00  0.00    +0.000 HD
ENDBRANCH   1  25
TORSDOF 2
ENDMDL
MODEL 9
REMARK VINA RESULT:      -6.7      7.270     10.190
REMARK  Name = 
REMARK  2 active torsions:
REMARK  status: ('A' for Active; 'I' for Inactive)
REMARK    1  A    between atoms: N_1  and  C_2
REMARK    2  A    between atoms: N_14  and  C_15
REMARK                            x       y       z     vdW  Elec       q    Type
REMARK                         _______ _______ _______ _____ _____    ______ ____
ROOT
ATOM      1  C   UNL     1      -3.409  10.931  15.794  0.00  0.00    +0.000 A 
ATOM      2  C   UNL     1      -4.630  11.128  16.440  0.00  0.00    +0.000 A 
ATOM      3  C   UNL     1      -4.672  11.562  17.774  0.00  0.00    +0.000 A 
ATOM      4  C   UNL     1      -3.493  11.761  18.494  0.00  0.00    +0.000 A 
ATOM      5  C   UNL     1      -3.511  12.161  19.832  0.00  0.00    +0.000 A 
ATOM      6  C   UNL     1      -2.318  12.372  20.535  0.00  0.00    +0.000 A 
ATOM      7  C   UNL     1      -1.094  12.174  19.904  0.00  0.00    +0.000 A 
ATOM      8  C   UNL     1      -1.060  11.751  18.576  0.00  0.00    +0.000 A 
ATOM      9  C   UNL     1      -2.250  11.539  17.859  0.00  0.00    +0.000 A 
ATOM     10  C   UNL     1      -2.228  11.101  16.524  0.00  0.00    +0.000 A 
ATOM     11  C   UNL     1      -4.802  12.340  20.524  0.00  0.00    +0.000 C 
ATOM     12  O   UNL     1      -4.802  12.574  21.728  0.00  0.00    +0.000 OA
ATOM     13  N   UNL     1      -5.963  12.213  19.766  0.00  0.00    +0.000 N 
ATOM     14  C   UNL     1      -5.980  11.836  18.419  0.00  0.00    +0.000 C 
ATOM     15  O   UNL     1      -7.002  11.759  17.742  0.00  0.00    +0.000 OA
ENDROOT
BRANCH  13  16
ATOM     16  C   UNL     1      -7.252  12.463  20.431  0.00  0.00    +0.000 C 
ATOM     17  C   UNL     1      -7.450  13.897  20.936  0.00  0.00    +0.000 C 
ATOM     18  C   UNL     1      -7.136  14.110  22.406  0.00  0.00    +0.000 C 
ATOM     19  C   UNL     1      -7.704  13.028  23.290  0.00  0.00    +0.000 C 
ATOM     20  O   UNL     1      -7.914  13.209  24.487  0.00  0.00    +0.000 OA
ATOM     21  N   UNL     1      -7.917  11.799  22.723  0.00  0.00    +0.000 N 
ATOM     22  C   UNL     1      -7.546  11.379  21.470  0.00  0.00    +0.000 C 
ATOM     23  O   UNL     1      -7.459  10.177  21.220  0.00  0.00    +0.000 OA
ATOM     24  H   UNL     1      -8.136  11.064  23.380  0.00  0.00    +0.000 HD
ENDBRANCH  13  16
BRANCH   1  25
ATOM     25  N   UNL     1      -3.365  10.355  14.522  0.00  0.00    +0.000 N 
ATOM     26  H   UNL     1      -4.237  10.407  14.003  0.00  0.00    +0.000 HD
ATOM     27  H   UNL     1      -2.565  10.628  13.958  0.00  0.00    +0.000 HD
ENDBRANCH   1  25
TORSDOF 2
ENDMDL
