MODEL 1
REMARK VINA RESULT:      -8.1      0.000      0.000
REMARK  Name = 
REMARK  8 active torsions:
REMARK  status: ('A' for Active; 'I' for Inactive)
REMARK    1  A    between atoms: C_1  and  N_2
REMARK    2  A    between atoms: N_2  and  C_3
REMARK    3  A    between atoms: N_2  and  C_4
REMARK    4  A    between atoms: C_4  and  C_5
REMARK    5  A    between atoms: C_5  and  C_6
REMARK    6  A    between atoms: C_6  and  N_7
REMARK    7  A    between atoms: C_8  and  C_10
REMARK    8  A    between atoms: C_10  and  N_11
REMARK                            x       y       z     vdW  Elec       q    Type
REMARK                         _______ _______ _______ _____ _____    ______ ____
ROOT
ATOM      1  N   UNL     1       4.595   5.640  16.995  0.00  0.00    +0.000 N 
ATOM      2  C   UNL     1       3.861   6.447  17.858  0.00  0.00    +0.000 C 
ATOM      3  O   UNL     1       3.952   7.670  17.900  0.00  0.00    +0.000 OA
ATOM      4  C   UNL     1       2.941   5.765  18.794  0.00  0.00    +0.000 A 
ATOM      5  C   UNL     1       2.230   6.523  19.733  0.00  0.00    +0.000 A 
ATOM      6  C   UNL     1       1.369   5.894  20.626  0.00  0.00    +0.000 A 
ATOM      7  C   UNL     1       1.214   4.509  20.581  0.00  0.00    +0.000 A 
ATOM      8  C   UNL     1       1.925   3.736  19.651  0.00  0.00    +0.000 A 
ATOM      9  C   UNL     1       1.781   2.341  19.600  0.00  0.00    +0.000 A 
ATOM     10  C   UNL     1       2.497   1.581  18.678  0.00  0.00    +0.000 A 
ATOM     11  C   UNL     1       3.372   2.206  17.791  0.00  0.00    +0.000 A 
ATOM     12  C   UNL     1       3.525   3.598  17.825  0.00  0.00    +0.000 A 
ATOM     13  C   UNL     1       2.808   4.373  18.743  0.00  0.00    +0.000 A 
ATOM     14  C   UNL     1       4.465   4.258  16.887  0.00  0.00    +0.000 C 
ATOM     15  O   UNL     1       5.084   3.585  16.062  0.00  0.00    +0.000 OA
ENDROOT
BRANCH   1  16
ATOM     16  C   UNL     1       5.553   6.299  16.116  0.00  0.00    +0.000 C 
BRANCH  16  18
ATOM     17  N   UNL     1       7.073   7.802  17.299  0.00  0.00    +0.000 N 
ATOM     18  C   UNL     1       6.880   6.513  16.840  0.00  0.00    +0.000 C 
ATOM     19  O   UNL     1       7.684   5.606  17.030  0.00  0.00    +0.000 OA
ATOM     20  H   UNL     1       6.288   8.451  17.277  0.00  0.00    +0.000 HD
BRANCH  17  21
ATOM     21  C   UNL     1       8.278   8.172  18.016  0.00  0.00    +0.000 C 
BRANCH  21  22
ATOM     22  C   UNL     1       8.442   9.691  18.092  0.00  0.00    +0.000 C 
BRANCH  22  23
ATOM     23  C   UNL     1       9.197  10.137  19.353  0.00  0.00    +0.000 C 
BRANCH  23  25
ATOM     24  C   UNL     1      10.151  11.837  17.892  0.00  0.00    +0.000 C 
ATOM     25  N   UNL     1      10.353  11.008  19.085  0.00  0.00    +0.000 NA
ATOM     26  C   UNL     1      10.639  11.862  20.238  0.00  0.00    +0.000 C 
ENDBRANCH  23  25
ENDBRANCH  22  23
ENDBRANCH  21  22
ENDBRANCH  17  21
ENDBRANCH  16  18
ENDBRANCH   1  16
TORSDOF 6
ENDMDL
MODEL 2
REMARK VINA RESULT:      -7.8      0.459      2.674
REMARK  Name = 
REMARK  8 active torsions:
REMARK  status: ('A' for Active; 'I' for Inactive)
REMARK    1  A    between atoms: C_1  and  N_2
REMARK    2  A    between atoms: N_2  and  C_3
REMARK    3  A    between atoms: N_2  and  C_4
REMARK    4  A    between atoms: C_4  and  C_5
REMARK    5  A    between atoms: C_5  and  C_6
REMARK    6  A    between atoms: C_6  and  N_7
REMARK    7  A    between atoms: C_8  and  C_10
REMARK    8  A    between atoms: C_10  and  N_11
REMARK                            x       y       z     vdW  Elec       q    Type
REMARK                         _______ _______ _______ _____ _____    ______ ____
ROOT
ATOM      1  N   UNL     1       4.507   5.692  17.006  0.00  0.00    +0.000 N 
ATOM      2  C   UNL     1       4.459   4.303  16.930  0.00  0.00    +0.000 C 
ATOM      3  O   UNL     1       5.119   3.635  16.140  0.00  0.00    +0.000 OA
ATOM      4  C   UNL     1       3.526   3.614  17.847  0.00  0.00    +0.000 A 
ATOM      5  C   UNL     1       3.385   2.223  17.765  0.00  0.00    +0.000 A 
ATOM      6  C   UNL     1       2.504   1.562  18.614  0.00  0.00    +0.000 A 
ATOM      7  C   UNL     1       1.765   2.287  19.548  0.00  0.00    +0.000 A 
ATOM      8  C   UNL     1       1.891   3.682  19.637  0.00  0.00    +0.000 A 
ATOM      9  C   UNL     1       1.148   4.423  20.570  0.00  0.00    +0.000 A 
ATOM     10  C   UNL     1       1.274   5.808  20.645  0.00  0.00    +0.000 A 
ATOM     11  C   UNL     1       2.145   6.476  19.786  0.00  0.00    +0.000 A 
ATOM     12  C   UNL     1       2.897   5.752  18.853  0.00  0.00    +0.000 A 
ATOM     13  C   UNL     1       2.784   4.359  18.769  0.00  0.00    +0.000 A 
ATOM     14  C   UNL     1       3.814   6.467  17.932  0.00  0.00    +0.000 C 
ATOM     15  O   UNL     1       3.936   7.689  18.013  0.00  0.00    +0.000 OA
ENDROOT
BRANCH   1  16
ATOM     16  C   UNL     1       5.373   6.384  16.060  0.00  0.00    +0.000 C 
BRANCH  16  18
ATOM     17  N   UNL     1       6.921   7.792  17.322  0.00  0.00    +0.000 N 
ATOM     18  C   UNL     1       6.761   6.589  16.661  0.00  0.00    +0.000 C 
ATOM     19  O   UNL     1       7.644   5.738  16.594  0.00  0.00    +0.000 OA
ATOM     20  H   UNL     1       6.097   8.362  17.504  0.00  0.00    +0.000 HD
BRANCH  17  21
ATOM     21  C   UNL     1       8.178   8.141  17.957  0.00  0.00    +0.000 C 
BRANCH  21  22
ATOM     22  C   UNL     1       8.377   9.656  18.014  0.00  0.00    +0.000 C 
BRANCH  22  23
ATOM     23  C   UNL     1       9.190  10.095  19.240  0.00  0.00    +0.000 C 
BRANCH  23  25
ATOM     24  C   UNL     1      10.605  11.407  17.753  0.00  0.00    +0.000 C 
ATOM     25  N   UNL     1       9.928  11.355  19.053  0.00  0.00    +0.000 NA
ATOM     26  C   UNL     1       9.035  12.506  19.191  0.00  0.00    +0.000 C 
ENDBRANCH  23  25
ENDBRANCH  22  23
ENDBRANCH  21  22
ENDBRANCH  17  21
ENDBRANCH  16  18
ENDBRANCH   1  16
TORSDOF 6
ENDMDL
MODEL 3
REMARK VINA RESULT:      -7.2      0.952      1.229
REMARK  Name = 
REMARK  8 active torsions:
REMARK  status: ('A' for Active; 'I' for Inactive)
REMARK    1  A    between atoms: C_1  and  N_2
REMARK    2  A    between atoms: N_2  and  C_3
REMARK    3  A    between atoms: N_2  and  C_4
REMARK    4  A    between atoms: C_4  and  C_5
REMARK    5  A    between atoms: C_5  and  C_6
REMARK    6  A    between atoms: C_6  and  N_7
REMARK    7  A    between atoms: C_8  and  C_10
REMARK    8  A    between atoms: C_10  and  N_11
REMARK                            x       y       z     vdW  Elec       q    Type
REMARK                         _______ _______ _______ _____ _____    ______ ____
ROOT
ATOM      1  N   UNL     1       4.325   5.885  17.138  0.00  0.00    +0.000 N 
ATOM      2  C   UNL     1       3.619   6.932  17.722  0.00  0.00    +0.000 C 
ATOM      3  O   UNL     1       3.659   8.093  17.328  0.00  0.00    +0.000 OA
ATOM      4  C   UNL     1       2.798   6.606  18.909  0.00  0.00    +0.000 A 
ATOM      5  C   UNL     1       2.122   7.633  19.579  0.00  0.00    +0.000 A 
ATOM      6  C   UNL     1       1.355   7.343  20.703  0.00  0.00    +0.000 A 
ATOM      7  C   UNL     1       1.259   6.028  21.156  0.00  0.00    +0.000 A 
ATOM      8  C   UNL     1       1.936   4.990  20.499  0.00  0.00    +0.000 A 
ATOM      9  C   UNL     1       1.850   3.664  20.950  0.00  0.00    +0.000 A 
ATOM     10  C   UNL     1       2.533   2.640  20.295  0.00  0.00    +0.000 A 
ATOM     11  C   UNL     1       3.315   2.929  19.178  0.00  0.00    +0.000 A 
ATOM     12  C   UNL     1       3.407   4.246  18.712  0.00  0.00    +0.000 A 
ATOM     13  C   UNL     1       2.723   5.283  19.357  0.00  0.00    +0.000 A 
ATOM     14  C   UNL     1       4.250   4.551  17.530  0.00  0.00    +0.000 C 
ATOM     15  O   UNL     1       4.837   3.642  16.943  0.00  0.00    +0.000 OA
ENDROOT
BRANCH   1  16
ATOM     16  C   UNL     1       5.189   6.210  16.010  0.00  0.00    +0.000 C 
BRANCH  16  18
ATOM     17  N   UNL     1       6.709   7.610  17.313  0.00  0.00    +0.000 N 
ATOM     18  C   UNL     1       6.607   6.504  16.492  0.00  0.00    +0.000 C 
ATOM     19  O   UNL     1       7.565   5.791  16.205  0.00  0.00    +0.000 OA
ATOM     20  H   UNL     1       5.854   8.038  17.664  0.00  0.00    +0.000 HD
BRANCH  17  21
ATOM     21  C   UNL     1       7.985   8.023  17.865  0.00  0.00    +0.000 C 
BRANCH  21  22
ATOM     22  C   UNL     1       8.162   9.540  17.799  0.00  0.00    +0.000 C 
BRANCH  22  23
ATOM     23  C   UNL     1       9.184  10.057  18.822  0.00  0.00    +0.000 C 
BRANCH  23  25
ATOM     24  C   UNL     1      10.900  11.667  18.190  0.00  0.00    +0.000 C 
ATOM     25  N   UNL     1       9.525  11.481  18.665  0.00  0.00    +0.000 NA
ATOM     26  C   UNL     1       8.592  12.141  17.752  0.00  0.00    +0.000 C 
ENDBRANCH  23  25
ENDBRANCH  22  23
ENDBRANCH  21  22
ENDBRANCH  17  21
ENDBRANCH  16  18
ENDBRANCH   1  16
TORSDOF 6
ENDMDL
MODEL 4
REMARK VINA RESULT:      -7.2      0.908      2.785
REMARK  Name = 
REMARK  8 active torsions:
REMARK  status: ('A' for Active; 'I' for Inactive)
REMARK    1  A    between atoms: C_1  and  N_2
REMARK    2  A    between atoms: N_2  and  C_3
REMARK    3  A    between atoms: N_2  and  C_4
REMARK    4  A    between atoms: C_4  and  C_5
REMARK    5  A    between atoms: C_5  and  C_6
REMARK    6  A    between atoms: C_6  and  N_7
REMARK    7  A    between atoms: C_8  and  C_10
REMARK    8  A    between atoms: C_10  and  N_11
REMARK                            x       y       z     vdW  Elec       q    Type
REMARK                         _______ _______ _______ _____ _____    ______ ____
ROOT
ATOM      1  N   UNL     1       4.311   5.815  17.147  0.00  0.00    +0.000 N 
ATOM      2  C   UNL     1       4.247   4.505  17.611  0.00  0.00    +0.000 C 
ATOM      3  O   UNL     1       4.847   3.564  17.100  0.00  0.00    +0.000 OA
ATOM      4  C   UNL     1       3.373   4.249  18.777  0.00  0.00    +0.000 A 
ATOM      5  C   UNL     1       3.217   2.937  19.243  0.00  0.00    +0.000 A 
ATOM      6  C   UNL     1       2.390   2.681  20.332  0.00  0.00    +0.000 A 
ATOM      7  C   UNL     1       1.721   3.732  20.958  0.00  0.00    +0.000 A 
ATOM      8  C   UNL     1       1.863   5.049  20.498  0.00  0.00    +0.000 A 
ATOM      9  C   UNL     1       1.191   6.114  21.118  0.00  0.00    +0.000 A 
ATOM     10  C   UNL     1       1.332   7.419  20.649  0.00  0.00    +0.000 A 
ATOM     11  C   UNL     1       2.148   7.678  19.549  0.00  0.00    +0.000 A 
ATOM     12  C   UNL     1       2.830   6.628  18.922  0.00  0.00    +0.000 A 
ATOM     13  C   UNL     1       2.701   5.314  19.385  0.00  0.00    +0.000 A 
ATOM     14  C   UNL     1       3.687   6.907  17.744  0.00  0.00    +0.000 C 
ATOM     15  O   UNL     1       3.824   8.063  17.343  0.00  0.00    +0.000 OA
ENDROOT
BRANCH   1  16
ATOM     16  C   UNL     1       5.116   6.064  15.958  0.00  0.00    +0.000 C 
BRANCH  16  18
ATOM     17  N   UNL     1       6.705   7.349  17.298  0.00  0.00    +0.000 N 
ATOM     18  C   UNL     1       6.562   6.357  16.346  0.00  0.00    +0.000 C 
ATOM     19  O   UNL     1       7.512   5.734  15.880  0.00  0.00    +0.000 OA
ATOM     20  H   UNL     1       5.873   7.686  17.779  0.00  0.00    +0.000 HD
BRANCH  17  21
ATOM     21  C   UNL     1       8.013   7.744  17.783  0.00  0.00    +0.000 C 
BRANCH  21  22
ATOM     22  C   UNL     1       8.134   9.264  17.900  0.00  0.00    +0.000 C 
BRANCH  22  23
ATOM     23  C   UNL     1       9.042   9.693  19.061  0.00  0.00    +0.000 C 
BRANCH  23  25
ATOM     24  C   UNL     1       9.013  11.844  17.917  0.00  0.00    +0.000 C 
ATOM     25  N   UNL     1       9.746  10.966  18.835  0.00  0.00    +0.000 NA
ATOM     26  C   UNL     1       9.983  11.661  20.101  0.00  0.00    +0.000 C 
ENDBRANCH  23  25
ENDBRANCH  22  23
ENDBRANCH  21  22
ENDBRANCH  17  21
ENDBRANCH  16  18
ENDBRANCH   1  16
TORSDOF 6
ENDMDL
MODEL 5
REMARK VINA RESULT:      -6.7      3.080      5.536
REMARK  Name = 
REMARK  8 active torsions:
REMARK  status: ('A' for Active; 'I' for Inactive)
REMARK    1  A    between atoms: C_1  and  N_2
REMARK    2  A    between atoms: N_2  and  C_3
REMARK    3  A    between atoms: N_2  and  C_4
REMARK    4  A    between atoms: C_4  and  C_5
REMARK    5  A    between atoms: C_5  and  C_6
REMARK    6  A    between atoms: C_6  and  N_7
REMARK    7  A    between atoms: C_8  and  C_10
REMARK    8  A    between atoms: C_10  and  N_11
REMARK                            x       y       z     vdW  Elec       q    Type
REMARK                         _______ _______ _______ _____ _____    ______ ____
ROOT
ATOM      1  N   UNL     1       5.354   5.995  18.089  0.00  0.00    +0.000 N 
ATOM      2  C   UNL     1       4.143   6.618  18.378  0.00  0.00    +0.000 C 
ATOM      3  O   UNL     1       3.841   7.745  17.997  0.00  0.00    +0.000 OA
ATOM      4  C   UNL     1       3.189   5.867  19.222  0.00  0.00    +0.000 A 
ATOM      5  C   UNL     1       1.984   6.473  19.602  0.00  0.00    +0.000 A 
ATOM      6  C   UNL     1       1.082   5.782  20.404  0.00  0.00    +0.000 A 
ATOM      7  C   UNL     1       1.377   4.486  20.824  0.00  0.00    +0.000 A 
ATOM      8  C   UNL     1       2.582   3.869  20.456  0.00  0.00    +0.000 A 
ATOM      9  C   UNL     1       2.892   2.566  20.878  0.00  0.00    +0.000 A 
ATOM     10  C   UNL     1       4.095   1.965  20.514  0.00  0.00    +0.000 A 
ATOM     11  C   UNL     1       5.009   2.659  19.723  0.00  0.00    +0.000 A 
ATOM     12  C   UNL     1       4.714   3.957  19.290  0.00  0.00    +0.000 A 
ATOM     13  C   UNL     1       3.507   4.572  19.644  0.00  0.00    +0.000 A 
ATOM     14  C   UNL     1       5.694   4.697  18.458  0.00  0.00    +0.000 C 
ATOM     15  O   UNL     1       6.748   4.156  18.124  0.00  0.00    +0.000 OA
ENDROOT
BRANCH   1  16
ATOM     16  C   UNL     1       6.327   6.754  17.315  0.00  0.00    +0.000 C 
BRANCH  16  18
ATOM     17  N   UNL     1       7.193   5.570  15.360  0.00  0.00    +0.000 N 
ATOM     18  C   UNL     1       6.208   6.418  15.831  0.00  0.00    +0.000 C 
ATOM     19  O   UNL     1       5.290   6.834  15.129  0.00  0.00    +0.000 OA
ATOM     20  H   UNL     1       7.805   5.113  16.033  0.00  0.00    +0.000 HD
BRANCH  17  21
ATOM     21  C   UNL     1       7.220   5.145  13.974  0.00  0.00    +0.000 C 
BRANCH  21  22
ATOM     22  C   UNL     1       6.377   3.888  13.756  0.00  0.00    +0.000 C 
BRANCH  22  23
ATOM     23  C   UNL     1       6.385   3.421  12.293  0.00  0.00    +0.000 C 
BRANCH  23  25
ATOM     24  C   UNL     1       4.207   3.115  11.246  0.00  0.00    +0.000 C 
ATOM     25  N   UNL     1       5.314   2.468  11.959  0.00  0.00    +0.000 NA
ATOM     26  C   UNL     1       5.836   1.359  11.160  0.00  0.00    +0.000 C 
ENDBRANCH  23  25
ENDBRANCH  22  23
ENDBRANCH  21  22
ENDBRANCH  17  21
ENDBRANCH  16  18
ENDBRANCH   1  16
TORSDOF 6
ENDMDL
MODEL 6
REMARK VINA RESULT:      -6.7      3.899      6.338
REMARK  Name = 
REMARK  8 active torsions:
REMARK  status: ('A' for Active; 'I' for Inactive)
REMARK    1  A    between atoms: C_1  and  N_2
REMARK    2  A    between atoms: N_2  and  C_3
REMARK    3  A    between atoms: N_2  and  C_4
REMARK    4  A    between atoms: C_4  and  C_5
REMARK    5  A    between atoms: C_5  and  C_6
REMARK    6  A    between atoms: C_6  and  N_7
REMARK    7  A    between atoms: C_8  and  C_10
REMARK    8  A    between atoms: C_10  and  N_11
REMARK                            x       y       z     vdW  Elec       q    Type
REMARK                         _______ _______ _______ _____ _____    ______ ____
ROOT
ATOM      1  N   UNL     1       2.960   7.163  18.450  0.00  0.00    +0.000 N 
ATOM      2  C   UNL     1       3.644   6.340  17.560  0.00  0.00    +0.000 C 
ATOM      3  O   UNL     1       4.298   6.751  16.607  0.00  0.00    +0.000 OA
ATOM      4  C   UNL     1       3.538   4.881  17.780  0.00  0.00    +0.000 A 
ATOM      5  C   UNL     1       4.148   4.004  16.874  0.00  0.00    +0.000 A 
ATOM      6  C   UNL     1       4.048   2.630  17.063  0.00  0.00    +0.000 A 
ATOM      7  C   UNL     1       3.342   2.129  18.157  0.00  0.00    +0.000 A 
ATOM      8  C   UNL     1       2.721   2.996  19.068  0.00  0.00    +0.000 A 
ATOM      9  C   UNL     1       2.004   2.503  20.170  0.00  0.00    +0.000 A 
ATOM     10  C   UNL     1       1.383   3.371  21.065  0.00  0.00    +0.000 A 
ATOM     11  C   UNL     1       1.469   4.749  20.872  0.00  0.00    +0.000 A 
ATOM     12  C   UNL     1       2.184   5.258  19.780  0.00  0.00    +0.000 A 
ATOM     13  C   UNL     1       2.816   4.397  18.876  0.00  0.00    +0.000 A 
ATOM     14  C   UNL     1       2.262   6.724  19.571  0.00  0.00    +0.000 C 
ATOM     15  O   UNL     1       1.728   7.489  20.374  0.00  0.00    +0.000 OA
ENDROOT
BRANCH   1  16
ATOM     16  C   UNL     1       3.004   8.598  18.200  0.00  0.00    +0.000 C 
BRANCH  16  18
ATOM     17  N   UNL     1       1.335  10.227  18.930  0.00  0.00    +0.000 N 
ATOM     18  C   UNL     1       1.591   9.163  18.086  0.00  0.00    +0.000 C 
ATOM     19  O   UNL     1       0.769   8.731  17.282  0.00  0.00    +0.000 OA
ATOM     20  H   UNL     1       2.114  10.654  19.427  0.00  0.00    +0.000 HD
BRANCH  17  21
ATOM     21  C   UNL     1       0.042  10.884  18.940  0.00  0.00    +0.000 C 
BRANCH  21  22
ATOM     22  C   UNL     1      -0.627  10.787  20.312  0.00  0.00    +0.000 C 
BRANCH  22  23
ATOM     23  C   UNL     1       0.311  11.204  21.454  0.00  0.00    +0.000 C 
BRANCH  23  25
ATOM     24  C   UNL     1      -1.605  11.621  22.898  0.00  0.00    +0.000 C 
ATOM     25  N   UNL     1      -0.264  11.035  22.798  0.00  0.00    +0.000 NA
ATOM     26  C   UNL     1      -0.313   9.620  23.168  0.00  0.00    +0.000 C 
ENDBRANCH  23  25
ENDBRANCH  22  23
ENDBRANCH  21  22
ENDBRANCH  17  21
ENDBRANCH  16  18
ENDBRANCH   1  16
TORSDOF 6
ENDMDL
MODEL 7
REMARK VINA RESULT:      -6.5      4.205      7.266
REMARK  Name = 
REMARK  8 active torsions:
REMARK  status: ('A' for Active; 'I' for Inactive)
REMARK    1  A    between atoms: C_1  and  N_2
REMARK    2  A    between atoms: N_2  and  C_3
REMARK    3  A    between atoms: N_2  and  C_4
REMARK    4  A    between atoms: C_4  and  C_5
REMARK    5  A    between atoms: C_5  and  C_6
REMARK    6  A    between atoms: C_6  and  N_7
REMARK    7  A    between atoms: C_8  and  C_10
REMARK    8  A    between atoms: C_10  and  N_11
REMARK                            x       y       z     vdW  Elec       q    Type
REMARK                         _______ _______ _______ _____ _____    ______ ____
ROOT
ATOM      1  N   UNL     1       2.475   7.365  19.177  0.00  0.00    +0.000 N 
ATOM      2  C   UNL     1       3.319   6.893  18.176  0.00  0.00    +0.000 C 
ATOM      3  O   UNL     1       3.958   7.616  17.418  0.00  0.00    +0.000 OA
ATOM      4  C   UNL     1       3.412   5.426  18.015  0.00  0.00    +0.000 A 
ATOM      5  C   UNL     1       4.192   4.897  16.979  0.00  0.00    +0.000 A 
ATOM      6  C   UNL     1       4.280   3.519  16.809  0.00  0.00    +0.000 A 
ATOM      7  C   UNL     1       3.595   2.668  17.675  0.00  0.00    +0.000 A 
ATOM      8  C   UNL     1       2.805   3.184  18.714  0.00  0.00    +0.000 A 
ATOM      9  C   UNL     1       2.106   2.336  19.588  0.00  0.00    +0.000 A 
ATOM     10  C   UNL     1       1.318   2.858  20.611  0.00  0.00    +0.000 A 
ATOM     11  C   UNL     1       1.214   4.238  20.775  0.00  0.00    +0.000 A 
ATOM     12  C   UNL     1       1.908   5.098  19.915  0.00  0.00    +0.000 A 
ATOM     13  C   UNL     1       2.707   4.587  18.886  0.00  0.00    +0.000 A 
ATOM     14  C   UNL     1       1.786   6.566  20.085  0.00  0.00    +0.000 C 
ATOM     15  O   UNL     1       1.103   7.024  21.001  0.00  0.00    +0.000 OA
ENDROOT
BRANCH   1  16
ATOM     16  C   UNL     1       2.325   8.809  19.298  0.00  0.00    +0.000 C 
BRANCH  16  18
ATOM     17  N   UNL     1       0.459  10.353  18.970  0.00  0.00    +0.000 N 
ATOM     18  C   UNL     1       1.171   9.300  18.427  0.00  0.00    +0.000 C 
ATOM     19  O   UNL     1       0.926   8.824  17.322  0.00  0.00    +0.000 OA
ATOM     20  H   UNL     1       0.833  10.822  19.793  0.00  0.00    +0.000 HD
BRANCH  17  21
ATOM     21  C   UNL     1      -0.663  10.944  18.267  0.00  0.00    +0.000 C 
BRANCH  21  22
ATOM     22  C   UNL     1      -1.986  10.296  18.675  0.00  0.00    +0.000 C 
BRANCH  22  23
ATOM     23  C   UNL     1      -2.811   9.831  17.466  0.00  0.00    +0.000 C 
BRANCH  23  25
ATOM     24  C   UNL     1      -2.912  10.480  15.121  0.00  0.00    +0.000 C 
ATOM     25  N   UNL     1      -3.131  10.902  16.508  0.00  0.00    +0.000 NA
ATOM     26  C   UNL     1      -4.513  11.352  16.676  0.00  0.00    +0.000 C 
ENDBRANCH  23  25
ENDBRANCH  22  23
ENDBRANCH  21  22
ENDBRANCH  17  21
ENDBRANCH  16  18
ENDBRANCH   1  16
TORSDOF 6
ENDMDL
MODEL 8
REMARK VINA RESULT:      -6.5      3.619      6.478
REMARK  Name = 
REMARK  8 active torsions:
REMARK  status: ('A' for Active; 'I' for Inactive)
REMARK    1  A    between atoms: C_1  and  N_2
REMARK    2  A    between atoms: N_2  and  C_3
REMARK    3  A    between atoms: N_2  and  C_4
REMARK    4  A    between atoms: C_4  and  C_5
REMARK    5  A    between atoms: C_5  and  C_6
REMARK    6  A    between atoms: C_6  and  N_7
REMARK    7  A    between atoms: C_8  and  C_10
REMARK    8  A    between atoms: C_10  and  N_11
REMARK                            x       y       z     vdW  Elec       q    Type
REMARK                         _______ _______ _______ _____ _____    ______ ____
ROOT
ATOM      1  N   UNL     1       5.858   4.732  16.278  0.00  0.00    +0.000 N 
ATOM      2  C   UNL     1       5.468   6.039  16.554  0.00  0.00    +0.000 C 
ATOM      3  O   UNL     1       6.127   7.030  16.256  0.00  0.00    +0.000 OA
ATOM      4  C   UNL     1       4.191   6.218  17.278  0.00  0.00    +0.000 A 
ATOM      5  C   UNL     1       3.785   7.508  17.644  0.00  0.00    +0.000 A 
ATOM      6  C   UNL     1       2.591   7.690  18.335  0.00  0.00    +0.000 A 
ATOM      7  C   UNL     1       1.801   6.588  18.657  0.00  0.00    +0.000 A 
ATOM      8  C   UNL     1       2.198   5.290  18.303  0.00  0.00    +0.000 A 
ATOM      9  C   UNL     1       1.413   4.173  18.627  0.00  0.00    +0.000 A 
ATOM     10  C   UNL     1       1.820   2.887  18.278  0.00  0.00    +0.000 A 
ATOM     11  C   UNL     1       3.023   2.699  17.599  0.00  0.00    +0.000 A 
ATOM     12  C   UNL     1       3.817   3.802  17.264  0.00  0.00    +0.000 A 
ATOM     13  C   UNL     1       3.417   5.100  17.604  0.00  0.00    +0.000 A 
ATOM     14  C   UNL     1       5.101   3.596  16.552  0.00  0.00    +0.000 C 
ATOM     15  O   UNL     1       5.450   2.460  16.229  0.00  0.00    +0.000 OA
ENDROOT
BRANCH   1  16
ATOM     16  C   UNL     1       7.147   4.543  15.625  0.00  0.00    +0.000 C 
BRANCH  16  18
ATOM     17  N   UNL     1       6.413   3.525  13.528  0.00  0.00    +0.000 N 
ATOM     18  C   UNL     1       6.995   4.636  14.109  0.00  0.00    +0.000 C 
ATOM     19  O   UNL     1       7.327   5.630  13.470  0.00  0.00    +0.000 OA
ATOM     20  H   UNL     1       5.989   2.824  14.133  0.00  0.00    +0.000 HD
BRANCH  17  21
ATOM     21  C   UNL     1       6.188   3.455  12.097  0.00  0.00    +0.000 C 
BRANCH  21  22
ATOM     22  C   UNL     1       4.750   3.045  11.774  0.00  0.00    +0.000 C 
BRANCH  22  23
ATOM     23  C   UNL     1       3.969   4.156  11.059  0.00  0.00    +0.000 C 
BRANCH  23  25
ATOM     24  C   UNL     1       2.612   2.486   9.918  0.00  0.00    +0.000 C 
ATOM     25  N   UNL     1       3.361   3.740   9.784  0.00  0.00    +0.000 NA
ATOM     26  C   UNL     1       2.483   4.787   9.261  0.00  0.00    +0.000 C 
ENDBRANCH  23  25
ENDBRANCH  22  23
ENDBRANCH  21  22
ENDBRANCH  17  21
ENDBRANCH  16  18
ENDBRANCH   1  16
TORSDOF 6
ENDMDL
MODEL 9
REMARK VINA RESULT:      -6.5      4.184      6.575
REMARK  Name = 
REMARK  8 active torsions:
REMARK  status: ('A' for Active; 'I' for Inactive)
REMARK    1  A    between atoms: C_1  and  N_2
REMARK    2  A    between atoms: N_2  and  C_3
REMARK    3  A    between atoms: N_2  and  C_4
REMARK    4  A    between atoms: C_4  and  C_5
REMARK    5  A    between atoms: C_5  and  C_6
REMARK    6  A    between atoms: C_6  and  N_7
REMARK    7  A    between atoms: C_8  and  C_10
REMARK    8  A    between atoms: C_10  and  N_11
REMARK                            x       y       z     vdW  Elec       q    Type
REMARK                         _______ _______ _______ _____ _____    ______ ____
ROOT
ATOM      1  N   UNL     1       2.471   7.240  19.236  0.00  0.00    +0.000 N 
ATOM      2  C   UNL     1       1.741   6.449  20.118  0.00  0.00    +0.000 C 
ATOM      3  O   UNL     1       1.035   6.894  21.017  0.00  0.00    +0.000 OA
ATOM      4  C   UNL     1       1.863   4.983  19.961  0.00  0.00    +0.000 A 
ATOM      5  C   UNL     1       1.206   4.139  20.865  0.00  0.00    +0.000 A 
ATOM      6  C   UNL     1       1.320   2.759  20.736  0.00  0.00    +0.000 A 
ATOM      7  C   UNL     1       2.086   2.219  19.703  0.00  0.00    +0.000 A 
ATOM      8  C   UNL     1       2.755   3.053  18.794  0.00  0.00    +0.000 A 
ATOM      9  C   UNL     1       3.533   2.521  17.754  0.00  0.00    +0.000 A 
ATOM     10  C   UNL     1       4.200   3.357  16.861  0.00  0.00    +0.000 A 
ATOM     11  C   UNL     1       4.100   4.741  16.996  0.00  0.00    +0.000 A 
ATOM     12  C   UNL     1       3.325   5.288  18.025  0.00  0.00    +0.000 A 
ATOM     13  C   UNL     1       2.646   4.460  18.926  0.00  0.00    +0.000 A 
ATOM     14  C   UNL     1       3.231   6.761  18.173  0.00  0.00    +0.000 C 
ATOM     15  O   UNL     1       3.807   7.497  17.372  0.00  0.00    +0.000 OA
ENDROOT
BRANCH   1  16
ATOM     16  C   UNL     1       2.410   8.683  19.427  0.00  0.00    +0.000 C 
BRANCH  16  18
ATOM     17  N   UNL     1       0.233   9.751  19.729  0.00  0.00    +0.000 N 
ATOM     18  C   UNL     1       1.135   9.249  18.809  0.00  0.00    +0.000 C 
ATOM     19  O   UNL     1       0.948   9.290  17.596  0.00  0.00    +0.000 OA
ATOM     20  H   UNL     1       0.533   9.861  20.695  0.00  0.00    +0.000 HD
BRANCH  17  21
ATOM     21  C   UNL     1      -1.026  10.334  19.307  0.00  0.00    +0.000 C 
BRANCH  21  22
ATOM     22  C   UNL     1      -1.206  11.747  19.863  0.00  0.00    +0.000 C 
BRANCH  22  23
ATOM     23  C   UNL     1      -0.687  11.882  21.302  0.00  0.00    +0.000 C 
BRANCH  23  25
ATOM     24  C   UNL     1      -0.643  10.288  23.143  0.00  0.00    +0.000 C 
ATOM     25  N   UNL     1      -1.481  11.146  22.300  0.00  0.00    +0.000 NA
ATOM     26  C   UNL     1      -2.245  12.070  23.139  0.00  0.00    +0.000 C 
ENDBRANCH  23  25
ENDBRANCH  22  23
ENDBRANCH  21  22
ENDBRANCH  17  21
ENDBRANCH  16  18
ENDBRANCH   1  16
TORSDOF 6
ENDMDL
