MODEL 1
REMARK VINA RESULT:      -7.7      0.000      0.000
REMARK  Name = 
REMARK  3 active torsions:
REMARK  status: ('A' for Active; 'I' for Inactive)
REMARK    1  A    between atoms: C_2  and  C_3
REMARK    2  A    between atoms: C_3  and  C_4
REMARK    3  A    between atoms: C_4  and  N_5
REMARK                            x       y       z     vdW  Elec       q    Type
REMARK                         _______ _______ _______ _____ _____    ______ ____
ROOT
ATOM      1  O   UNL     1       2.672  10.807  17.563  0.00  0.00    +0.000 OA
ATOM      2  C   UNL     1       1.816  10.067  18.065  0.00  0.00    +0.000 C 
ATOM      3  N   UNL     1       0.833  10.579  18.888  0.00  0.00    +0.000 N 
ATOM      4  C   UNL     1      -0.282   9.821  19.498  0.00  0.00    +0.000 C 
ATOM      5  C   UNL     1      -0.540  10.250  20.963  0.00  0.00    +0.000 C 
ATOM      6  N   UNL     1      -0.721  11.700  20.961  0.00  0.00    +0.000 N 
ATOM      7  C   UNL     1      -1.631  12.285  21.812  0.00  0.00    +0.000 A 
ATOM      8  C   UNL     1      -2.212  13.504  21.453  0.00  0.00    +0.000 A 
ATOM      9  C   UNL     1      -3.200  14.074  22.250  0.00  0.00    +0.000 A 
ATOM     10  C   UNL     1      -3.580  13.421  23.409  0.00  0.00    +0.000 A 
ATOM     11  C   UNL     1      -2.961  12.219  23.705  0.00  0.00    +0.000 A 
ATOM     12  N   UNL     1      -2.017  11.637  22.929  0.00  0.00    +0.000 NA
ATOM     13  C   UNL     1       0.454  12.450  20.510  0.00  0.00    +0.000 C 
ATOM     14  C   UNL     1       0.742  12.047  19.054  0.00  0.00    +0.000 C 
ENDROOT
BRANCH   2  15
ATOM     15  C   UNL     1       1.807   8.581  17.746  0.00  0.00    +0.000 C 
BRANCH  15  16
ATOM     16  C   UNL     1       3.007   7.938  18.428  0.00  0.00    +0.000 C 
BRANCH  16  17
ATOM     17  N   UNL     1       2.822   6.567  18.870  0.00  0.00    +0.000 N 
ATOM     18  C   UNL     1       3.332   5.488  18.210  0.00  0.00    +0.000 C 
ATOM     19  O   UNL     1       3.762   5.478  17.066  0.00  0.00    +0.000 OA
ATOM     20  C   UNL     1       3.368   4.317  19.165  0.00  0.00    +0.000 C 
ATOM     21  C   UNL     1       3.017   2.985  18.511  0.00  0.00    +0.000 C 
ATOM     22  C   UNL     1       1.767   2.330  18.996  0.00  0.00    +0.000 C 
ATOM     23  C   UNL     1       1.049   2.757  20.038  0.00  0.00    +0.000 C 
ATOM     24  C   UNL     1       1.392   3.949  20.870  0.00  0.00    +0.000 C 
ATOM     25  C   UNL     1       2.559   4.796  20.374  0.00  0.00    +0.000 C 
ATOM     26  C   UNL     1       2.167   6.212  20.012  0.00  0.00    +0.000 C 
ATOM     27  O   UNL     1       1.438   6.933  20.677  0.00  0.00    +0.000 OA
ENDBRANCH  16  17
ENDBRANCH  15  16
ENDBRANCH   2  15
TORSDOF 3
ENDMDL
MODEL 2
REMARK VINA RESULT:      -7.7      2.822      9.526
REMARK  Name = 
REMARK  3 active torsions:
REMARK  status: ('A' for Active; 'I' for Inactive)
REMARK    1  A    between atoms: C_2  and  C_3
REMARK    2  A    between atoms: C_3  and  C_4
REMARK    3  A    between atoms: C_4  and  N_5
REMARK                            x       y       z     vdW  Elec       q    Type
REMARK                         _______ _______ _______ _____ _____    ______ ____
ROOT
ATOM      1  O   UNL     1       1.583   5.939  20.797  0.00  0.00    +0.000 OA
ATOM      2  C   UNL     1       2.026   6.808  20.036  0.00  0.00    +0.000 C 
ATOM      3  N   UNL     1       2.758   6.463  18.918  0.00  0.00    +0.000 N 
ATOM      4  C   UNL     1       3.289   7.393  17.897  0.00  0.00    +0.000 C 
ATOM      5  C   UNL     1       4.720   7.007  17.451  0.00  0.00    +0.000 C 
ATOM      6  N   UNL     1       4.679   5.607  17.034  0.00  0.00    +0.000 N 
ATOM      7  C   UNL     1       5.443   5.179  15.972  0.00  0.00    +0.000 A 
ATOM      8  C   UNL     1       5.017   4.075  15.231  0.00  0.00    +0.000 A 
ATOM      9  C   UNL     1       5.721   3.673  14.100  0.00  0.00    +0.000 A 
ATOM     10  C   UNL     1       6.857   4.375  13.738  0.00  0.00    +0.000 A 
ATOM     11  C   UNL     1       7.223   5.457  14.520  0.00  0.00    +0.000 A 
ATOM     12  N   UNL     1       6.536   5.877  15.608  0.00  0.00    +0.000 NA
ATOM     13  C   UNL     1       4.311   4.674  18.103  0.00  0.00    +0.000 C 
ATOM     14  C   UNL     1       2.890   5.030  18.572  0.00  0.00    +0.000 C 
ENDROOT
BRANCH   2  15
ATOM     15  C   UNL     1       1.734   8.276  20.299  0.00  0.00    +0.000 C 
BRANCH  15  16
ATOM     16  C   UNL     1       0.446   8.371  21.105  0.00  0.00    +0.000 C 
BRANCH  16  17
ATOM     17  N   UNL     1      -0.132   9.699  21.219  0.00  0.00    +0.000 N 
ATOM     18  C   UNL     1      -0.169  10.407  22.384  0.00  0.00    +0.000 C 
ATOM     19  O   UNL     1       0.016   9.960  23.506  0.00  0.00    +0.000 OA
ATOM     20  C   UNL     1      -0.381  11.865  22.050  0.00  0.00    +0.000 C 
ATOM     21  C   UNL     1      -1.295  12.589  23.031  0.00  0.00    +0.000 C 
ATOM     22  C   UNL     1      -2.587  13.087  22.474  0.00  0.00    +0.000 C 
ATOM     23  C   UNL     1      -2.905  13.065  21.176  0.00  0.00    +0.000 C 
ATOM     24  C   UNL     1      -2.015  12.543  20.097  0.00  0.00    +0.000 C 
ATOM     25  C   UNL     1      -0.733  11.860  20.560  0.00  0.00    +0.000 C 
ATOM     26  C   UNL     1      -0.653  10.399  20.172  0.00  0.00    +0.000 C 
ATOM     27  O   UNL     1      -0.944   9.945  19.075  0.00  0.00    +0.000 OA
ENDBRANCH  16  17
ENDBRANCH  15  16
ENDBRANCH   2  15
TORSDOF 3
ENDMDL
MODEL 3
REMARK VINA RESULT:      -7.6      3.490      9.812
REMARK  Name = 
REMARK  3 active torsions:
REMARK  status: ('A' for Active; 'I' for Inactive)
REMARK    1  A    between atoms: C_2  and  C_3
REMARK    2  A    between atoms: C_3  and  C_4
REMARK    3  A    between atoms: C_4  and  N_5
REMARK                            x       y       z     vdW  Elec       q    Type
REMARK                         _______ _______ _______ _____ _____    ______ ____
ROOT
ATOM      1  O   UNL     1       2.524   4.994  19.653  0.00  0.00    +0.000 OA
ATOM      2  C   UNL     1       3.043   5.931  19.034  0.00  0.00    +0.000 C 
ATOM      3  N   UNL     1       3.688   5.714  17.833  0.00  0.00    +0.000 N 
ATOM      4  C   UNL     1       4.292   6.749  16.963  0.00  0.00    +0.000 C 
ATOM      5  C   UNL     1       5.649   6.291  16.376  0.00  0.00    +0.000 C 
ATOM      6  N   UNL     1       5.423   5.004  15.722  0.00  0.00    +0.000 N 
ATOM      7  C   UNL     1       6.091   4.691  14.560  0.00  0.00    +0.000 A 
ATOM      8  C   UNL     1       5.508   3.796  13.661  0.00  0.00    +0.000 A 
ATOM      9  C   UNL     1       6.118   3.529  12.439  0.00  0.00    +0.000 A 
ATOM     10  C   UNL     1       7.317   4.152  12.143  0.00  0.00    +0.000 A 
ATOM     11  C   UNL     1       7.839   5.025  13.081  0.00  0.00    +0.000 A 
ATOM     12  N   UNL     1       7.248   5.316  14.263  0.00  0.00    +0.000 NA
ATOM     13  C   UNL     1       4.982   3.940  16.629  0.00  0.00    +0.000 C 
ATOM     14  C   UNL     1       3.633   4.363  17.233  0.00  0.00    +0.000 C 
ENDROOT
BRANCH   2  15
ATOM     15  C   UNL     1       2.941   7.351  19.568  0.00  0.00    +0.000 C 
BRANCH  15  16
ATOM     16  C   UNL     1       1.596   7.505  20.263  0.00  0.00    +0.000 C 
BRANCH  16  17
ATOM     17  N   UNL     1       1.055   8.853  20.302  0.00  0.00    +0.000 N 
ATOM     18  C   UNL     1       0.740   9.505  21.457  0.00  0.00    +0.000 C 
ATOM     19  O   UNL     1       0.609   8.996  22.561  0.00  0.00    +0.000 OA
ATOM     20  C   UNL     1       0.674  10.987  21.167  0.00  0.00    +0.000 C 
ATOM     21  C   UNL     1      -0.439  11.707  21.919  0.00  0.00    +0.000 C 
ATOM     22  C   UNL     1      -1.522  12.294  21.076  0.00  0.00    +0.000 C 
ATOM     23  C   UNL     1      -1.489  12.350  19.742  0.00  0.00    +0.000 C 
ATOM     24  C   UNL     1      -0.367  11.838  18.901  0.00  0.00    +0.000 C 
ATOM     25  C   UNL     1       0.724  11.070  19.639  0.00  0.00    +0.000 C 
ATOM     26  C   UNL     1       0.852   9.628  19.199  0.00  0.00    +0.000 C 
ATOM     27  O   UNL     1       0.842   9.242  18.039  0.00  0.00    +0.000 OA
ENDBRANCH  16  17
ENDBRANCH  15  16
ENDBRANCH   2  15
TORSDOF 3
ENDMDL
MODEL 4
REMARK VINA RESULT:      -7.5      0.672      1.851
REMARK  Name = 
REMARK  3 active torsions:
REMARK  status: ('A' for Active; 'I' for Inactive)
REMARK    1  A    between atoms: C_2  and  C_3
REMARK    2  A    between atoms: C_3  and  C_4
REMARK    3  A    between atoms: C_4  and  N_5
REMARK                            x       y       z     vdW  Elec       q    Type
REMARK                         _______ _______ _______ _____ _____    ______ ____
ROOT
ATOM      1  O   UNL     1       2.581  10.742  17.710  0.00  0.00    +0.000 OA
ATOM      2  C   UNL     1       1.677  10.034  18.170  0.00  0.00    +0.000 C 
ATOM      3  N   UNL     1       0.714  10.568  19.001  0.00  0.00    +0.000 N 
ATOM      4  C   UNL     1      -0.452   9.851  19.565  0.00  0.00    +0.000 C 
ATOM      5  C   UNL     1      -0.707  10.234  21.043  0.00  0.00    +0.000 C 
ATOM      6  N   UNL     1      -0.805  11.691  21.100  0.00  0.00    +0.000 N 
ATOM      7  C   UNL     1      -1.692  12.292  21.963  0.00  0.00    +0.000 A 
ATOM      8  C   UNL     1      -2.196  13.556  21.649  0.00  0.00    +0.000 A 
ATOM      9  C   UNL     1      -3.161  14.149  22.456  0.00  0.00    +0.000 A 
ATOM     10  C   UNL     1      -3.595  13.473  23.582  0.00  0.00    +0.000 A 
ATOM     11  C   UNL     1      -3.051  12.226  23.835  0.00  0.00    +0.000 A 
ATOM     12  N   UNL     1      -2.131  11.622  23.047  0.00  0.00    +0.000 NA
ATOM     13  C   UNL     1       0.419  12.389  20.696  0.00  0.00    +0.000 C 
ATOM     14  C   UNL     1       0.704  12.030  19.227  0.00  0.00    +0.000 C 
ENDROOT
BRANCH   2  15
ATOM     15  C   UNL     1       1.588   8.565  17.789  0.00  0.00    +0.000 C 
BRANCH  15  16
ATOM     16  C   UNL     1       2.915   7.901  18.126  0.00  0.00    +0.000 C 
BRANCH  16  17
ATOM     17  N   UNL     1       2.840   6.506  18.525  0.00  0.00    +0.000 N 
ATOM     18  C   UNL     1       2.144   6.070  19.614  0.00  0.00    +0.000 C 
ATOM     19  O   UNL     1       1.726   6.764  20.529  0.00  0.00    +0.000 OA
ATOM     20  C   UNL     1       1.887   4.590  19.455  0.00  0.00    +0.000 C 
ATOM     21  C   UNL     1       1.990   3.809  20.761  0.00  0.00    +0.000 C 
ATOM     22  C   UNL     1       3.095   2.809  20.837  0.00  0.00    +0.000 C 
ATOM     23  C   UNL     1       3.873   2.467  19.806  0.00  0.00    +0.000 C 
ATOM     24  C   UNL     1       3.751   3.033  18.430  0.00  0.00    +0.000 C 
ATOM     25  C   UNL     1       2.763   4.184  18.267  0.00  0.00    +0.000 C 
ATOM     26  C   UNL     1       3.412   5.480  17.833  0.00  0.00    +0.000 C 
ATOM     27  O   UNL     1       4.257   5.586  16.956  0.00  0.00    +0.000 OA
ENDBRANCH  16  17
ENDBRANCH  15  16
ENDBRANCH   2  15
TORSDOF 3
ENDMDL
MODEL 5
REMARK VINA RESULT:      -7.4      3.481      9.854
REMARK  Name = 
REMARK  3 active torsions:
REMARK  status: ('A' for Active; 'I' for Inactive)
REMARK    1  A    between atoms: C_2  and  C_3
REMARK    2  A    between atoms: C_3  and  C_4
REMARK    3  A    between atoms: C_4  and  N_5
REMARK                            x       y       z     vdW  Elec       q    Type
REMARK                         _______ _______ _______ _____ _____    ______ ____
ROOT
ATOM      1  O   UNL     1       0.833  11.252  20.696  0.00  0.00    +0.000 OA
ATOM      2  C   UNL     1       1.245  11.028  19.552  0.00  0.00    +0.000 C 
ATOM      3  N   UNL     1       1.446   9.734  19.113  0.00  0.00    +0.000 N 
ATOM      4  C   UNL     1       1.871   9.325  17.756  0.00  0.00    +0.000 C 
ATOM      5  C   UNL     1       2.905   8.174  17.796  0.00  0.00    +0.000 C 
ATOM      6  N   UNL     1       2.323   7.100  18.599  0.00  0.00    +0.000 N 
ATOM      7  C   UNL     1       2.547   5.785  18.262  0.00  0.00    +0.000 A 
ATOM      8  C   UNL     1       1.602   4.821  18.621  0.00  0.00    +0.000 A 
ATOM      9  C   UNL     1       1.758   3.499  18.217  0.00  0.00    +0.000 A 
ATOM     10  C   UNL     1       2.871   3.157  17.472  0.00  0.00    +0.000 A 
ATOM     11  C   UNL     1       3.769   4.161  17.154  0.00  0.00    +0.000 A 
ATOM     12  N   UNL     1       3.621   5.457  17.516  0.00  0.00    +0.000 NA
ATOM     13  C   UNL     1       2.060   7.470  19.992  0.00  0.00    +0.000 C 
ATOM     14  C   UNL     1       1.034   8.616  19.990  0.00  0.00    +0.000 C 
ENDROOT
BRANCH   2  15
ATOM     15  C   UNL     1       1.497  12.177  18.590  0.00  0.00    +0.000 C 
BRANCH  15  16
ATOM     16  C   UNL     1       2.120  13.326  19.369  0.00  0.00    +0.000 C 
BRANCH  16  17
ATOM     17  N   UNL     1       1.735  14.661  18.945  0.00  0.00    +0.000 N 
ATOM     18  C   UNL     1       0.543  15.239  19.269  0.00  0.00    +0.000 C 
ATOM     19  O   UNL     1      -0.443  14.665  19.706  0.00  0.00    +0.000 OA
ATOM     20  C   UNL     1       0.673  16.734  19.089  0.00  0.00    +0.000 C 
ATOM     21  C   UNL     1      -0.579  17.392  18.522  0.00  0.00    +0.000 C 
ATOM     22  C   UNL     1      -0.437  18.011  17.172  0.00  0.00    +0.000 C 
ATOM     23  C   UNL     1       0.724  18.145  16.525  0.00  0.00    +0.000 C 
ATOM     24  C   UNL     1       2.046  17.700  17.058  0.00  0.00    +0.000 C 
ATOM     25  C   UNL     1       2.008  16.908  18.360  0.00  0.00    +0.000 C 
ATOM     26  C   UNL     1       2.536  15.496  18.223  0.00  0.00    +0.000 C 
ATOM     27  O   UNL     1       3.551  15.178  17.621  0.00  0.00    +0.000 OA
ENDBRANCH  16  17
ENDBRANCH  15  16
ENDBRANCH   2  15
TORSDOF 3
ENDMDL
MODEL 6
REMARK VINA RESULT:      -7.4      2.473      9.562
REMARK  Name = 
REMARK  3 active torsions:
REMARK  status: ('A' for Active; 'I' for Inactive)
REMARK    1  A    between atoms: C_2  and  C_3
REMARK    2  A    between atoms: C_3  and  C_4
REMARK    3  A    between atoms: C_4  and  N_5
REMARK                            x       y       z     vdW  Elec       q    Type
REMARK                         _______ _______ _______ _____ _____    ______ ____
ROOT
ATOM      1  O   UNL     1       1.342   7.707  21.346  0.00  0.00    +0.000 OA
ATOM      2  C   UNL     1       1.545   8.214  20.236  0.00  0.00    +0.000 C 
ATOM      3  N   UNL     1       2.248   7.531  19.264  0.00  0.00    +0.000 N 
ATOM      4  C   UNL     1       2.505   7.993  17.882  0.00  0.00    +0.000 C 
ATOM      5  C   UNL     1       3.949   7.673  17.424  0.00  0.00    +0.000 C 
ATOM      6  N   UNL     1       4.161   6.242  17.636  0.00  0.00    +0.000 N 
ATOM      7  C   UNL     1       4.918   5.516  16.745  0.00  0.00    +0.000 A 
ATOM      8  C   UNL     1       4.671   4.148  16.602  0.00  0.00    +0.000 A 
ATOM      9  C   UNL     1       5.358   3.406  15.646  0.00  0.00    +0.000 A 
ATOM     10  C   UNL     1       6.299   4.044  14.858  0.00  0.00    +0.000 A 
ATOM     11  C   UNL     1       6.495   5.399  15.056  0.00  0.00    +0.000 A 
ATOM     12  N   UNL     1       5.818   6.143  15.962  0.00  0.00    +0.000 NA
ATOM     13  C   UNL     1       4.068   5.825  19.038  0.00  0.00    +0.000 C 
ATOM     14  C   UNL     1       2.642   6.130  19.527  0.00  0.00    +0.000 C 
ENDROOT
BRANCH   2  15
ATOM     15  C   UNL     1       0.981   9.587  19.908  0.00  0.00    +0.000 C 
BRANCH  15  16
ATOM     16  C   UNL     1      -0.421   9.681  20.491  0.00  0.00    +0.000 C 
BRANCH  16  17
ATOM     17  N   UNL     1      -0.825  10.996  20.958  0.00  0.00    +0.000 N 
ATOM     18  C   UNL     1      -0.582  11.455  22.219  0.00  0.00    +0.000 C 
ATOM     19  O   UNL     1      -0.254  10.779  23.182  0.00  0.00    +0.000 OA
ATOM     20  C   UNL     1      -0.692  12.962  22.208  0.00  0.00    +0.000 C 
ATOM     21  C   UNL     1      -1.339  13.536  23.463  0.00  0.00    +0.000 C 
ATOM     22  C   UNL     1      -2.647  14.225  23.266  0.00  0.00    +0.000 C 
ATOM     23  C   UNL     1      -3.187  14.489  22.073  0.00  0.00    +0.000 C 
ATOM     24  C   UNL     1      -2.560  14.134  20.765  0.00  0.00    +0.000 C 
ATOM     25  C   UNL     1      -1.298  13.282  20.838  0.00  0.00    +0.000 C 
ATOM     26  C   UNL     1      -1.443  11.928  20.178  0.00  0.00    +0.000 C 
ATOM     27  O   UNL     1      -1.968  11.726  19.093  0.00  0.00    +0.000 OA
ENDBRANCH  16  17
ENDBRANCH  15  16
ENDBRANCH   2  15
TORSDOF 3
ENDMDL
MODEL 7
REMARK VINA RESULT:      -7.3      2.978      9.482
REMARK  Name = 
REMARK  3 active torsions:
REMARK  status: ('A' for Active; 'I' for Inactive)
REMARK    1  A    between atoms: C_2  and  C_3
REMARK    2  A    between atoms: C_3  and  C_4
REMARK    3  A    between atoms: C_4  and  N_5
REMARK                            x       y       z     vdW  Elec       q    Type
REMARK                         _______ _______ _______ _____ _____    ______ ____
ROOT
ATOM      1  O   UNL     1       1.626   5.680  20.339  0.00  0.00    +0.000 OA
ATOM      2  C   UNL     1       2.199   6.571  19.701  0.00  0.00    +0.000 C 
ATOM      3  N   UNL     1       2.924   6.272  18.565  0.00  0.00    +0.000 N 
ATOM      4  C   UNL     1       3.602   7.244  17.677  0.00  0.00    +0.000 C 
ATOM      5  C   UNL     1       4.991   6.738  17.219  0.00  0.00    +0.000 C 
ATOM      6  N   UNL     1       4.796   5.414  16.633  0.00  0.00    +0.000 N 
ATOM      7  C   UNL     1       5.541   5.022  15.544  0.00  0.00    +0.000 A 
ATOM      8  C   UNL     1       5.012   4.076  14.664  0.00  0.00    +0.000 A 
ATOM      9  C   UNL     1       5.704   3.727  13.508  0.00  0.00    +0.000 A 
ATOM     10  C   UNL     1       6.928   4.319  13.260  0.00  0.00    +0.000 A 
ATOM     11  C   UNL     1       7.394   5.246  14.176  0.00  0.00    +0.000 A 
ATOM     12  N   UNL     1       6.724   5.617  15.292  0.00  0.00    +0.000 NA
ATOM     13  C   UNL     1       4.279   4.414  17.571  0.00  0.00    +0.000 C 
ATOM     14  C   UNL     1       2.895   4.886  18.049  0.00  0.00    +0.000 C 
ENDROOT
BRANCH   2  15
ATOM     15  C   UNL     1       2.077   8.023  20.135  0.00  0.00    +0.000 C 
BRANCH  15  16
ATOM     16  C   UNL     1       0.836   8.159  21.005  0.00  0.00    +0.000 C 
BRANCH  16  17
ATOM     17  N   UNL     1       0.234   9.481  21.043  0.00  0.00    +0.000 N 
ATOM     18  C   UNL     1      -0.167  10.159  19.930  0.00  0.00    +0.000 C 
ATOM     19  O   UNL     1       0.147   9.902  18.777  0.00  0.00    +0.000 OA
ATOM     20  C   UNL     1      -1.148  11.229  20.349  0.00  0.00    +0.000 C 
ATOM     21  C   UNL     1      -0.999  12.532  19.571  0.00  0.00    +0.000 C 
ATOM     22  C   UNL     1      -0.571  13.721  20.365  0.00  0.00    +0.000 C 
ATOM     23  C   UNL     1      -0.462  13.737  21.696  0.00  0.00    +0.000 C 
ATOM     24  C   UNL     1      -0.755  12.571  22.583  0.00  0.00    +0.000 C 
ATOM     25  C   UNL     1      -1.045  11.252  21.877  0.00  0.00    +0.000 C 
ATOM     26  C   UNL     1      -0.041  10.164  22.191  0.00  0.00    +0.000 C 
ATOM     27  O   UNL     1       0.391   9.905  23.304  0.00  0.00    +0.000 OA
ENDBRANCH  16  17
ENDBRANCH  15  16
ENDBRANCH   2  15
TORSDOF 3
ENDMDL
MODEL 8
REMARK VINA RESULT:      -7.2      1.475      1.889
REMARK  Name = 
REMARK  3 active torsions:
REMARK  status: ('A' for Active; 'I' for Inactive)
REMARK    1  A    between atoms: C_2  and  C_3
REMARK    2  A    between atoms: C_3  and  C_4
REMARK    3  A    between atoms: C_4  and  N_5
REMARK                            x       y       z     vdW  Elec       q    Type
REMARK                         _______ _______ _______ _____ _____    ______ ____
ROOT
ATOM      1  O   UNL     1       1.737   9.408  17.473  0.00  0.00    +0.000 OA
ATOM      2  C   UNL     1       1.455   9.078  18.631  0.00  0.00    +0.000 C 
ATOM      3  N   UNL     1       0.496   9.766  19.348  0.00  0.00    +0.000 N 
ATOM      4  C   UNL     1       0.019   9.439  20.710  0.00  0.00    +0.000 C 
ATOM      5  C   UNL     1      -0.176  10.708  21.575  0.00  0.00    +0.000 C 
ATOM      6  N   UNL     1      -1.048  11.610  20.826  0.00  0.00    +0.000 N 
ATOM      7  C   UNL     1      -1.976  12.383  21.487  0.00  0.00    +0.000 A 
ATOM      8  C   UNL     1      -3.133  12.781  20.813  0.00  0.00    +0.000 A 
ATOM      9  C   UNL     1      -4.129  13.486  21.481  0.00  0.00    +0.000 A 
ATOM     10  C   UNL     1      -3.942  13.800  22.815  0.00  0.00    +0.000 A 
ATOM     11  C   UNL     1      -2.771  13.377  23.419  0.00  0.00    +0.000 A 
ATOM     12  N   UNL     1      -1.803  12.668  22.793  0.00  0.00    +0.000 NA
ATOM     13  C   UNL     1      -0.489  12.060  19.548  0.00  0.00    +0.000 C 
ATOM     14  C   UNL     1      -0.281  10.821  18.661  0.00  0.00    +0.000 C 
ENDROOT
BRANCH   2  15
ATOM     15  C   UNL     1       2.130   7.877  19.271  0.00  0.00    +0.000 C 
BRANCH  15  16
ATOM     16  C   UNL     1       2.637   6.965  18.163  0.00  0.00    +0.000 C 
BRANCH  16  17
ATOM     17  N   UNL     1       2.785   5.564  18.515  0.00  0.00    +0.000 N 
ATOM     18  C   UNL     1       3.766   5.094  19.338  0.00  0.00    +0.000 C 
ATOM     19  O   UNL     1       4.779   5.692  19.669  0.00  0.00    +0.000 OA
ATOM     20  C   UNL     1       3.346   3.737  19.855  0.00  0.00    +0.000 C 
ATOM     21  C   UNL     1       4.497   2.744  19.969  0.00  0.00    +0.000 C 
ATOM     22  C   UNL     1       4.422   1.553  19.074  0.00  0.00    +0.000 C 
ATOM     23  C   UNL     1       3.365   1.246  18.317  0.00  0.00    +0.000 C 
ATOM     24  C   UNL     1       2.106   2.047  18.258  0.00  0.00    +0.000 C 
ATOM     25  C   UNL     1       2.124   3.375  19.006  0.00  0.00    +0.000 C 
ATOM     26  C   UNL     1       1.937   4.578  18.106  0.00  0.00    +0.000 C 
ATOM     27  O   UNL     1       1.111   4.665  17.209  0.00  0.00    +0.000 OA
ENDBRANCH  16  17
ENDBRANCH  15  16
ENDBRANCH   2  15
TORSDOF 3
ENDMDL
MODEL 9
REMARK VINA RESULT:      -7.2      3.236      9.631
REMARK  Name = 
REMARK  3 active torsions:
REMARK  status: ('A' for Active; 'I' for Inactive)
REMARK    1  A    between atoms: C_2  and  C_3
REMARK    2  A    between atoms: C_3  and  C_4
REMARK    3  A    between atoms: C_4  and  N_5
REMARK                            x       y       z     vdW  Elec       q    Type
REMARK                         _______ _______ _______ _____ _____    ______ ____
ROOT
ATOM      1  O   UNL     1       2.161   4.853  19.880  0.00  0.00    +0.000 OA
ATOM      2  C   UNL     1       2.700   5.815  19.319  0.00  0.00    +0.000 C 
ATOM      3  N   UNL     1       3.393   5.648  18.138  0.00  0.00    +0.000 N 
ATOM      4  C   UNL     1       4.026   6.717  17.333  0.00  0.00    +0.000 C 
ATOM      5  C   UNL     1       5.407   6.287  16.784  0.00  0.00    +0.000 C 
ATOM      6  N   UNL     1       5.214   5.025  16.072  0.00  0.00    +0.000 N 
ATOM      7  C   UNL     1       5.930   4.761  14.927  0.00  0.00    +0.000 A 
ATOM      8  C   UNL     1       5.388   3.899  13.971  0.00  0.00    +0.000 A 
ATOM      9  C   UNL     1       6.047   3.682  12.765  0.00  0.00    +0.000 A 
ATOM     10  C   UNL     1       7.254   4.320  12.541  0.00  0.00    +0.000 A 
ATOM     11  C   UNL     1       7.734   5.158  13.533  0.00  0.00    +0.000 A 
ATOM     12  N   UNL     1       7.094   5.401  14.701  0.00  0.00    +0.000 NA
ATOM     13  C   UNL     1       4.743   3.926  16.918  0.00  0.00    +0.000 C 
ATOM     14  C   UNL     1       3.368   4.320  17.484  0.00  0.00    +0.000 C 
ENDROOT
BRANCH   2  15
ATOM     15  C   UNL     1       2.569   7.213  19.903  0.00  0.00    +0.000 C 
BRANCH  15  16
ATOM     16  C   UNL     1       1.336   7.870  19.300  0.00  0.00    +0.000 C 
BRANCH  16  17
ATOM     17  N   UNL     1       1.276   9.318  19.404  0.00  0.00    +0.000 N 
ATOM     18  C   UNL     1       1.657  10.161  18.402  0.00  0.00    +0.000 C 
ATOM     19  O   UNL     1       2.325   9.865  17.423  0.00  0.00    +0.000 OA
ATOM     20  C   UNL     1       1.031  11.514  18.653  0.00  0.00    +0.000 C 
ATOM     21  C   UNL     1       1.941  12.683  18.297  0.00  0.00    +0.000 C 
ATOM     22  C   UNL     1       2.370  13.547  19.436  0.00  0.00    +0.000 C 
ATOM     23  C   UNL     1       1.893  13.443  20.680  0.00  0.00    +0.000 C 
ATOM     24  C   UNL     1       0.863  12.451  21.111  0.00  0.00    +0.000 C 
ATOM     25  C   UNL     1       0.466  11.407  20.073  0.00  0.00    +0.000 C 
ATOM     26  C   UNL     1       0.790   9.988  20.488  0.00  0.00    +0.000 C 
ATOM     27  O   UNL     1       0.582   9.513  21.594  0.00  0.00    +0.000 OA
ENDBRANCH  16  17
ENDBRANCH  15  16
ENDBRANCH   2  15
TORSDOF 3
ENDMDL
