MODEL 1
REMARK VINA RESULT:      -6.9      0.000      0.000
REMARK  Name = 
REMARK  11 active torsions:
REMARK  status: ('A' for Active; 'I' for Inactive)
REMARK    1  A    between atoms: C_1  and  C_2
REMARK    2  A    between atoms: C_2  and  C_3
REMARK    3  A    between atoms: C_3  and  C_4
REMARK    4  A    between atoms: N_8  and  C_9
REMARK    5  A    between atoms: C_9  and  C_10
REMARK    6  A    between atoms: C_9  and  C_12
REMARK    7  A    between atoms: C_10  and  O_11
REMARK    8  A    between atoms: C_12  and  S_13
REMARK    9  A    between atoms: S_13  and  C_16
REMARK   10  A    between atoms: C_19  and  N_20
REMARK   11  A    between atoms: C_21  and  C_22
REMARK                            x       y       z     vdW  Elec       q    Type
REMARK                         _______ _______ _______ _____ _____    ______ ____
ROOT
ATOM      1  S   UNL     1       2.356   5.447  19.778  0.00  0.00    +0.000 S 
ATOM      2  O   UNL     1       1.803   4.629  18.715  0.00  0.00    +0.000 OA
ATOM      3  O   UNL     1       1.966   5.229  21.156  0.00  0.00    +0.000 OA
ENDROOT
BRANCH   1   4
ATOM      4  C   UNL     1       1.979   7.154  19.417  0.00  0.00    +0.000 A 
ATOM      5  C   UNL     1       2.188   7.654  18.137  0.00  0.00    +0.000 A 
ATOM      6  C   UNL     1       1.876   8.991  17.856  0.00  0.00    +0.000 A 
ATOM      7  C   UNL     1       1.345   9.831  18.837  0.00  0.00    +0.000 A 
ATOM      8  C   UNL     1       1.133   9.310  20.124  0.00  0.00    +0.000 A 
ATOM      9  C   UNL     1       1.441   7.973  20.415  0.00  0.00    +0.000 A 
BRANCH   7  10
ATOM     10  N   UNL     1       0.985  11.179  18.610  0.00  0.00    +0.000 N 
ATOM     11  C   UNL     1      -0.298  11.705  18.592  0.00  0.00    +0.000 C 
ATOM     12  C   UNL     1      -0.331  13.196  18.358  0.00  0.00    +0.000 C 
ATOM     13  O   UNL     1      -1.347  11.084  18.720  0.00  0.00    +0.000 OA
ATOM     14  H   UNL     1       1.749  11.824  18.458  0.00  0.00    +0.000 HD
ENDBRANCH   7  10
ENDBRANCH   1   4
BRANCH   1  15
ATOM     15  C   UNL     1       4.123   5.398  19.631  0.00  0.00    +0.000 C 
BRANCH  15  16
ATOM     16  C   UNL     1       4.638   4.893  18.271  0.00  0.00    +0.000 C 
BRANCH  16  21
ATOM     17  C   UNL     1       6.180   6.154  16.630  0.00  0.00    +0.000 A 
ATOM     18  N   UNL     1       7.340   6.785  16.689  0.00  0.00    +0.000 NA
ATOM     19  C   UNL     1       7.816   6.611  17.952  0.00  0.00    +0.000 A 
ATOM     20  C   UNL     1       6.934   5.872  18.692  0.00  0.00    +0.000 A 
ATOM     21  N   UNL     1       5.854   5.630  17.869  0.00  0.00    +0.000 N 
BRANCH  17  22
ATOM     22  C   UNL     1       5.390   6.033  15.363  0.00  0.00    +0.000 C 
BRANCH  22  24
ATOM     23  C   UNL     1       6.828   4.485  13.954  0.00  0.00    +0.000 C 
ATOM     24  C   UNL     1       5.547   4.628  14.762  0.00  0.00    +0.000 C 
ENDBRANCH  22  24
ENDBRANCH  17  22
ENDBRANCH  16  21
BRANCH  16  25
ATOM     25  C   UNL     1       4.932   3.385  18.247  0.00  0.00    +0.000 C 
BRANCH  25  26
ATOM     26  O   UNL     1       5.125   2.884  19.565  0.00  0.00    +0.000 OA
ATOM     27  H   UNL     1       4.381   3.201  20.110  0.00  0.00    +0.000 HD
ENDBRANCH  25  26
ENDBRANCH  16  25
ENDBRANCH  15  16
ENDBRANCH   1  15
TORSDOF 9
ENDMDL
MODEL 2
REMARK VINA RESULT:      -6.9      1.001      2.382
REMARK  Name = 
REMARK  11 active torsions:
REMARK  status: ('A' for Active; 'I' for Inactive)
REMARK    1  A    between atoms: C_1  and  C_2
REMARK    2  A    between atoms: C_2  and  C_3
REMARK    3  A    between atoms: C_3  and  C_4
REMARK    4  A    between atoms: N_8  and  C_9
REMARK    5  A    between atoms: C_9  and  C_10
REMARK    6  A    between atoms: C_9  and  C_12
REMARK    7  A    between atoms: C_10  and  O_11
REMARK    8  A    between atoms: C_12  and  S_13
REMARK    9  A    between atoms: S_13  and  C_16
REMARK   10  A    between atoms: C_19  and  N_20
REMARK   11  A    between atoms: C_21  and  C_22
REMARK                            x       y       z     vdW  Elec       q    Type
REMARK                         _______ _______ _______ _____ _____    ______ ____
ROOT
ATOM      1  S   UNL     1       2.782   5.665  18.905  0.00  0.00    +0.000 S 
ATOM      2  O   UNL     1       1.810   4.855  18.195  0.00  0.00    +0.000 OA
ATOM      3  O   UNL     1       3.165   5.338  20.262  0.00  0.00    +0.000 OA
ENDROOT
BRANCH   1   4
ATOM      4  C   UNL     1       2.177   7.343  18.947  0.00  0.00    +0.000 A 
ATOM      5  C   UNL     1       1.658   7.864  20.128  0.00  0.00    +0.000 A 
ATOM      6  C   UNL     1       1.199   9.187  20.158  0.00  0.00    +0.000 A 
ATOM      7  C   UNL     1       1.264  10.001  19.025  0.00  0.00    +0.000 A 
ATOM      8  C   UNL     1       1.795   9.464  17.842  0.00  0.00    +0.000 A 
ATOM      9  C   UNL     1       2.260   8.141  17.802  0.00  0.00    +0.000 A 
BRANCH   7  10
ATOM     10  N   UNL     1       0.841  11.351  18.999  0.00  0.00    +0.000 N 
ATOM     11  C   UNL     1      -0.459  11.811  18.869  0.00  0.00    +0.000 C 
ATOM     12  C   UNL     1      -0.569  13.316  18.918  0.00  0.00    +0.000 C 
ATOM     13  O   UNL     1      -1.466  11.131  18.704  0.00  0.00    +0.000 OA
ATOM     14  H   UNL     1       1.568  12.046  19.099  0.00  0.00    +0.000 HD
ENDBRANCH   7  10
ENDBRANCH   1   4
BRANCH   1  15
ATOM     15  C   UNL     1       4.224   5.795  17.881  0.00  0.00    +0.000 C 
BRANCH  15  16
ATOM     16  C   UNL     1       4.536   4.537  17.051  0.00  0.00    +0.000 C 
BRANCH  16  21
ATOM     17  C   UNL     1       6.818   5.497  16.325  0.00  0.00    +0.000 A 
ATOM     18  N   UNL     1       7.580   5.461  15.245  0.00  0.00    +0.000 NA
ATOM     19  C   UNL     1       6.874   4.795  14.291  0.00  0.00    +0.000 A 
ATOM     20  C   UNL     1       5.661   4.401  14.788  0.00  0.00    +0.000 A 
ATOM     21  N   UNL     1       5.646   4.794  16.110  0.00  0.00    +0.000 N 
BRANCH  17  22
ATOM     22  C   UNL     1       7.212   6.238  17.565  0.00  0.00    +0.000 C 
BRANCH  22  24
ATOM     23  C   UNL     1       8.287   8.472  18.115  0.00  0.00    +0.000 C 
ATOM     24  C   UNL     1       7.215   7.753  17.311  0.00  0.00    +0.000 C 
ENDBRANCH  22  24
ENDBRANCH  17  22
ENDBRANCH  16  21
BRANCH  16  25
ATOM     25  C   UNL     1       4.875   3.306  17.905  0.00  0.00    +0.000 C 
BRANCH  25  26
ATOM     26  O   UNL     1       5.546   3.687  19.102  0.00  0.00    +0.000 OA
ATOM     27  H   UNL     1       5.658   2.882  19.642  0.00  0.00    +0.000 HD
ENDBRANCH  25  26
ENDBRANCH  16  25
ENDBRANCH  15  16
ENDBRANCH   1  15
TORSDOF 9
ENDMDL
MODEL 3
REMARK VINA RESULT:      -6.9      1.405      1.582
REMARK  Name = 
REMARK  11 active torsions:
REMARK  status: ('A' for Active; 'I' for Inactive)
REMARK    1  A    between atoms: C_1  and  C_2
REMARK    2  A    between atoms: C_2  and  C_3
REMARK    3  A    between atoms: C_3  and  C_4
REMARK    4  A    between atoms: N_8  and  C_9
REMARK    5  A    between atoms: C_9  and  C_10
REMARK    6  A    between atoms: C_9  and  C_12
REMARK    7  A    between atoms: C_10  and  O_11
REMARK    8  A    between atoms: C_12  and  S_13
REMARK    9  A    between atoms: S_13  and  C_16
REMARK   10  A    between atoms: C_19  and  N_20
REMARK   11  A    between atoms: C_21  and  C_22
REMARK                            x       y       z     vdW  Elec       q    Type
REMARK                         _______ _______ _______ _____ _____    ______ ____
ROOT
ATOM      1  S   UNL     1       3.189   5.532  19.271  0.00  0.00    +0.000 S 
ATOM      2  O   UNL     1       2.285   4.675  20.014  0.00  0.00    +0.000 OA
ATOM      3  O   UNL     1       4.548   5.741  19.725  0.00  0.00    +0.000 OA
ENDROOT
BRANCH   1   4
ATOM      4  C   UNL     1       2.448   7.151  19.154  0.00  0.00    +0.000 A 
ATOM      5  C   UNL     1       2.531   7.868  17.966  0.00  0.00    +0.000 A 
ATOM      6  C   UNL     1       1.933   9.132  17.876  0.00  0.00    +0.000 A 
ATOM      7  C   UNL     1       1.243   9.684  18.958  0.00  0.00    +0.000 A 
ATOM      8  C   UNL     1       1.162   8.946  20.150  0.00  0.00    +0.000 A 
ATOM      9  C   UNL     1       1.756   7.679  20.249  0.00  0.00    +0.000 A 
BRANCH   7  10
ATOM     10  N   UNL     1       0.597  10.941  18.922  0.00  0.00    +0.000 N 
ATOM     11  C   UNL     1      -0.729  11.185  18.601  0.00  0.00    +0.000 C 
ATOM     12  C   UNL     1      -1.111  12.642  18.696  0.00  0.00    +0.000 C 
ATOM     13  O   UNL     1      -1.561  10.359  18.243  0.00  0.00    +0.000 OA
ATOM     14  H   UNL     1       1.165  11.740  19.170  0.00  0.00    +0.000 HD
ENDBRANCH   7  10
ENDBRANCH   1   4
BRANCH   1  15
ATOM     15  C   UNL     1       3.190   4.980  17.585  0.00  0.00    +0.000 C 
BRANCH  15  16
ATOM     16  C   UNL     1       4.064   3.742  17.317  0.00  0.00    +0.000 C 
BRANCH  16  21
ATOM     17  C   UNL     1       6.020   4.411  15.772  0.00  0.00    +0.000 A 
ATOM     18  N   UNL     1       7.280   4.782  15.917  0.00  0.00    +0.000 NA
ATOM     19  C   UNL     1       7.565   4.685  17.244  0.00  0.00    +0.000 A 
ATOM     20  C   UNL     1       6.464   4.258  17.935  0.00  0.00    +0.000 A 
ATOM     21  N   UNL     1       5.452   4.141  17.004  0.00  0.00    +0.000 N 
BRANCH  17  22
ATOM     22  C   UNL     1       5.364   4.288  14.431  0.00  0.00    +0.000 C 
BRANCH  22  24
ATOM     23  C   UNL     1       5.758   3.201  12.170  0.00  0.00    +0.000 C 
ATOM     24  C   UNL     1       6.395   3.903  13.359  0.00  0.00    +0.000 C 
ENDBRANCH  22  24
ENDBRANCH  17  22
ENDBRANCH  16  21
BRANCH  16  25
ATOM     25  C   UNL     1       4.080   2.738  18.480  0.00  0.00    +0.000 C 
BRANCH  25  26
ATOM     26  O   UNL     1       4.004   1.400  17.997  0.00  0.00    +0.000 OA
ATOM     27  H   UNL     1       4.896   1.012  18.073  0.00  0.00    +0.000 HD
ENDBRANCH  25  26
ENDBRANCH  16  25
ENDBRANCH  15  16
ENDBRANCH   1  15
TORSDOF 9
ENDMDL
MODEL 4
REMARK VINA RESULT:      -6.9      1.355      1.798
REMARK  Name = 
REMARK  11 active torsions:
REMARK  status: ('A' for Active; 'I' for Inactive)
REMARK    1  A    between atoms: C_1  and  C_2
REMARK    2  A    between atoms: C_2  and  C_3
REMARK    3  A    between atoms: C_3  and  C_4
REMARK    4  A    between atoms: N_8  and  C_9
REMARK    5  A    between atoms: C_9  and  C_10
REMARK    6  A    between atoms: C_9  and  C_12
REMARK    7  A    between atoms: C_10  and  O_11
REMARK    8  A    between atoms: C_12  and  S_13
REMARK    9  A    between atoms: S_13  and  C_16
REMARK   10  A    between atoms: C_19  and  N_20
REMARK   11  A    between atoms: C_21  and  C_22
REMARK                            x       y       z     vdW  Elec       q    Type
REMARK                         _______ _______ _______ _____ _____    ______ ____
ROOT
ATOM      1  S   UNL     1       2.907   5.514  19.239  0.00  0.00    +0.000 S 
ATOM      2  O   UNL     1       1.870   4.616  19.711  0.00  0.00    +0.000 OA
ATOM      3  O   UNL     1       4.170   5.615  19.939  0.00  0.00    +0.000 OA
ENDROOT
BRANCH   1   4
ATOM      4  C   UNL     1       2.230   7.165  19.191  0.00  0.00    +0.000 A 
ATOM      5  C   UNL     1       1.687   7.726  20.342  0.00  0.00    +0.000 A 
ATOM      6  C   UNL     1       1.170   9.027  20.301  0.00  0.00    +0.000 A 
ATOM      7  C   UNL     1       1.201   9.781  19.125  0.00  0.00    +0.000 A 
ATOM      8  C   UNL     1       1.757   9.203  17.972  0.00  0.00    +0.000 A 
ATOM      9  C   UNL     1       2.279   7.901  18.004  0.00  0.00    +0.000 A 
BRANCH   7  10
ATOM     10  N   UNL     1       0.721  11.107  19.026  0.00  0.00    +0.000 N 
ATOM     11  C   UNL     1      -0.579  11.501  18.748  0.00  0.00    +0.000 C 
ATOM     12  C   UNL     1      -0.764  12.999  18.753  0.00  0.00    +0.000 C 
ATOM     13  O   UNL     1      -1.528  10.770  18.489  0.00  0.00    +0.000 OA
ATOM     14  H   UNL     1       1.399  11.839  19.189  0.00  0.00    +0.000 HD
ENDBRANCH   7  10
ENDBRANCH   1   4
BRANCH   1  15
ATOM     15  C   UNL     1       3.189   5.158  17.525  0.00  0.00    +0.000 C 
BRANCH  15  16
ATOM     16  C   UNL     1       4.007   3.881  17.263  0.00  0.00    +0.000 C 
BRANCH  16  21
ATOM     17  C   UNL     1       6.049   4.439  15.786  0.00  0.00    +0.000 A 
ATOM     18  N   UNL     1       7.318   4.757  15.975  0.00  0.00    +0.000 NA
ATOM     19  C   UNL     1       7.547   4.668  17.314  0.00  0.00    +0.000 A 
ATOM     20  C   UNL     1       6.402   4.301  17.967  0.00  0.00    +0.000 A 
ATOM     21  N   UNL     1       5.423   4.214  16.999  0.00  0.00    +0.000 N 
BRANCH  17  22
ATOM     22  C   UNL     1       5.441   4.324  14.422  0.00  0.00    +0.000 C 
BRANCH  22  24
ATOM     23  C   UNL     1       5.900   3.224  12.180  0.00  0.00    +0.000 C 
ATOM     24  C   UNL     1       6.503   3.921  13.389  0.00  0.00    +0.000 C 
ENDBRANCH  22  24
ENDBRANCH  17  22
ENDBRANCH  16  21
BRANCH  16  25
ATOM     25  C   UNL     1       3.936   2.859  18.408  0.00  0.00    +0.000 C 
BRANCH  25  26
ATOM     26  O   UNL     1       2.787   2.029  18.277  0.00  0.00    +0.000 OA
ATOM     27  H   UNL     1       2.043   2.600  18.009  0.00  0.00    +0.000 HD
ENDBRANCH  25  26
ENDBRANCH  16  25
ENDBRANCH  15  16
ENDBRANCH   1  15
TORSDOF 9
ENDMDL
MODEL 5
REMARK VINA RESULT:      -6.8      2.509      4.166
REMARK  Name = 
REMARK  11 active torsions:
REMARK  status: ('A' for Active; 'I' for Inactive)
REMARK    1  A    between atoms: C_1  and  C_2
REMARK    2  A    between atoms: C_2  and  C_3
REMARK    3  A    between atoms: C_3  and  C_4
REMARK    4  A    between atoms: N_8  and  C_9
REMARK    5  A    between atoms: C_9  and  C_10
REMARK    6  A    between atoms: C_9  and  C_12
REMARK    7  A    between atoms: C_10  and  O_11
REMARK    8  A    between atoms: C_12  and  S_13
REMARK    9  A    between atoms: S_13  and  C_16
REMARK   10  A    between atoms: C_19  and  N_20
REMARK   11  A    between atoms: C_21  and  C_22
REMARK                            x       y       z     vdW  Elec       q    Type
REMARK                         _______ _______ _______ _____ _____    ______ ____
ROOT
ATOM      1  S   UNL     1       3.185   6.375  18.099  0.00  0.00    +0.000 S 
ATOM      2  O   UNL     1       4.138   6.944  17.166  0.00  0.00    +0.000 OA
ATOM      3  O   UNL     1       2.217   5.392  17.659  0.00  0.00    +0.000 OA
ENDROOT
BRANCH   1   4
ATOM      4  C   UNL     1       2.246   7.713  18.816  0.00  0.00    +0.000 A 
ATOM      5  C   UNL     1       1.853   8.786  18.025  0.00  0.00    +0.000 A 
ATOM      6  C   UNL     1       1.104   9.826  18.590  0.00  0.00    +0.000 A 
ATOM      7  C   UNL     1       0.732   9.800  19.937  0.00  0.00    +0.000 A 
ATOM      8  C   UNL     1       1.131   8.707  20.722  0.00  0.00    +0.000 A 
ATOM      9  C   UNL     1       1.880   7.660  20.165  0.00  0.00    +0.000 A 
BRANCH   7  10
ATOM     10  N   UNL     1      -0.045  10.804  20.559  0.00  0.00    +0.000 N 
ATOM     11  C   UNL     1       0.419  11.981  21.126  0.00  0.00    +0.000 C 
ATOM     12  C   UNL     1      -0.682  12.856  21.673  0.00  0.00    +0.000 C 
ATOM     13  O   UNL     1       1.588  12.333  21.232  0.00  0.00    +0.000 OA
ATOM     14  H   UNL     1      -1.044  10.647  20.577  0.00  0.00    +0.000 HD
ENDBRANCH   7  10
ENDBRANCH   1   4
BRANCH   1  15
ATOM     15  C   UNL     1       4.097   5.751  19.487  0.00  0.00    +0.000 C 
BRANCH  15  16
ATOM     16  C   UNL     1       4.968   4.520  19.179  0.00  0.00    +0.000 C 
BRANCH  16  21
ATOM     17  C   UNL     1       3.256   2.641  19.625  0.00  0.00    +0.000 A 
ATOM     18  N   UNL     1       2.649   1.702  18.920  0.00  0.00    +0.000 NA
ATOM     19  C   UNL     1       3.176   1.754  17.666  0.00  0.00    +0.000 A 
ATOM     20  C   UNL     1       4.114   2.746  17.588  0.00  0.00    +0.000 A 
ATOM     21  N   UNL     1       4.125   3.360  18.823  0.00  0.00    +0.000 N 
BRANCH  17  22
ATOM     22  C   UNL     1       3.016   2.831  21.092  0.00  0.00    +0.000 C 
BRANCH  22  24
ATOM     23  C   UNL     1       0.917   4.154  20.554  0.00  0.00    +0.000 C 
ATOM     24  C   UNL     1       1.519   3.024  21.374  0.00  0.00    +0.000 C 
ENDBRANCH  22  24
ENDBRANCH  17  22
ENDBRANCH  16  21
BRANCH  16  25
ATOM     25  C   UNL     1       5.994   4.757  18.060  0.00  0.00    +0.000 C 
BRANCH  25  26
ATOM     26  O   UNL     1       7.265   4.222  18.413  0.00  0.00    +0.000 OA
ATOM     27  H   UNL     1       7.808   4.959  18.751  0.00  0.00    +0.000 HD
ENDBRANCH  25  26
ENDBRANCH  16  25
ENDBRANCH  15  16
ENDBRANCH   1  15
TORSDOF 9
ENDMDL
MODEL 6
REMARK VINA RESULT:      -6.8      0.908      2.045
REMARK  Name = 
REMARK  11 active torsions:
REMARK  status: ('A' for Active; 'I' for Inactive)
REMARK    1  A    between atoms: C_1  and  C_2
REMARK    2  A    between atoms: C_2  and  C_3
REMARK    3  A    between atoms: C_3  and  C_4
REMARK    4  A    between atoms: N_8  and  C_9
REMARK    5  A    between atoms: C_9  and  C_10
REMARK    6  A    between atoms: C_9  and  C_12
REMARK    7  A    between atoms: C_10  and  O_11
REMARK    8  A    between atoms: C_12  and  S_13
REMARK    9  A    between atoms: S_13  and  C_16
REMARK   10  A    between atoms: C_19  and  N_20
REMARK   11  A    between atoms: C_21  and  C_22
REMARK                            x       y       z     vdW  Elec       q    Type
REMARK                         _______ _______ _______ _____ _____    ______ ____
ROOT
ATOM      1  S   UNL     1       2.630   5.407  19.201  0.00  0.00    +0.000 S 
ATOM      2  O   UNL     1       1.680   4.644  18.415  0.00  0.00    +0.000 OA
ATOM      3  O   UNL     1       2.841   5.105  20.601  0.00  0.00    +0.000 OA
ENDROOT
BRANCH   1   4
ATOM      4  C   UNL     1       2.156   7.126  19.127  0.00  0.00    +0.000 A 
ATOM      5  C   UNL     1       2.337   7.845  17.951  0.00  0.00    +0.000 A 
ATOM      6  C   UNL     1       1.948   9.190  17.895  0.00  0.00    +0.000 A 
ATOM      7  C   UNL     1       1.370   9.822  18.998  0.00  0.00    +0.000 A 
ATOM      8  C   UNL     1       1.189   9.082  20.177  0.00  0.00    +0.000 A 
ATOM      9  C   UNL     1       1.573   7.734  20.242  0.00  0.00    +0.000 A 
BRANCH   7  10
ATOM     10  N   UNL     1       0.933  11.167  18.996  0.00  0.00    +0.000 N 
ATOM     11  C   UNL     1      -0.352  11.623  18.748  0.00  0.00    +0.000 C 
ATOM     12  C   UNL     1      -0.488  13.122  18.863  0.00  0.00    +0.000 C 
ATOM     13  O   UNL     1      -1.324  10.944  18.437  0.00  0.00    +0.000 OA
ATOM     14  H   UNL     1       1.635  11.863  19.212  0.00  0.00    +0.000 HD
ENDBRANCH   7  10
ENDBRANCH   1   4
BRANCH   1  15
ATOM     15  C   UNL     1       4.179   5.392  18.336  0.00  0.00    +0.000 C 
BRANCH  15  16
ATOM     16  C   UNL     1       4.356   4.214  17.361  0.00  0.00    +0.000 C 
BRANCH  16  21
ATOM     17  C   UNL     1       6.823   4.778  16.856  0.00  0.00    +0.000 A 
ATOM     18  N   UNL     1       7.603   4.823  15.790  0.00  0.00    +0.000 NA
ATOM     19  C   UNL     1       6.808   4.572  14.714  0.00  0.00    +0.000 A 
ATOM     20  C   UNL     1       5.519   4.358  15.118  0.00  0.00    +0.000 A 
ATOM     21  N   UNL     1       5.535   4.426  16.495  0.00  0.00    +0.000 N 
BRANCH  17  22
ATOM     22  C   UNL     1       7.318   5.103  18.232  0.00  0.00    +0.000 C 
BRANCH  22  24
ATOM     23  C   UNL     1       7.020   7.484  17.400  0.00  0.00    +0.000 C 
ATOM     24  C   UNL     1       7.822   6.552  18.296  0.00  0.00    +0.000 C 
ENDBRANCH  22  24
ENDBRANCH  17  22
ENDBRANCH  16  21
BRANCH  16  25
ATOM     25  C   UNL     1       4.484   2.851  18.060  0.00  0.00    +0.000 C 
BRANCH  25  26
ATOM     26  O   UNL     1       5.016   3.001  19.372  0.00  0.00    +0.000 OA
ATOM     27  H   UNL     1       5.292   2.116  19.677  0.00  0.00    +0.000 HD
ENDBRANCH  25  26
ENDBRANCH  16  25
ENDBRANCH  15  16
ENDBRANCH   1  15
TORSDOF 9
ENDMDL
MODEL 7
REMARK VINA RESULT:      -6.8      1.396      2.393
REMARK  Name = 
REMARK  11 active torsions:
REMARK  status: ('A' for Active; 'I' for Inactive)
REMARK    1  A    between atoms: C_1  and  C_2
REMARK    2  A    between atoms: C_2  and  C_3
REMARK    3  A    between atoms: C_3  and  C_4
REMARK    4  A    between atoms: N_8  and  C_9
REMARK    5  A    between atoms: C_9  and  C_10
REMARK    6  A    between atoms: C_9  and  C_12
REMARK    7  A    between atoms: C_10  and  O_11
REMARK    8  A    between atoms: C_12  and  S_13
REMARK    9  A    between atoms: S_13  and  C_16
REMARK   10  A    between atoms: C_19  and  N_20
REMARK   11  A    between atoms: C_21  and  C_22
REMARK                            x       y       z     vdW  Elec       q    Type
REMARK                         _______ _______ _______ _____ _____    ______ ____
ROOT
ATOM      1  S   UNL     1       2.741   5.772  18.883  0.00  0.00    +0.000 S 
ATOM      2  O   UNL     1       1.770   4.976  18.156  0.00  0.00    +0.000 OA
ATOM      3  O   UNL     1       3.097   5.438  20.246  0.00  0.00    +0.000 OA
ENDROOT
BRANCH   1   4
ATOM      4  C   UNL     1       2.158   7.458  18.919  0.00  0.00    +0.000 A 
ATOM      5  C   UNL     1       2.197   8.230  17.763  0.00  0.00    +0.000 A 
ATOM      6  C   UNL     1       1.724   9.549  17.794  0.00  0.00    +0.000 A 
ATOM      7  C   UNL     1       1.201  10.102  18.966  0.00  0.00    +0.000 A 
ATOM      8  C   UNL     1       1.163   9.309  20.123  0.00  0.00    +0.000 A 
ATOM      9  C   UNL     1       1.632   7.987  20.102  0.00  0.00    +0.000 A 
BRANCH   7  10
ATOM     10  N   UNL     1       0.685  11.415  19.054  0.00  0.00    +0.000 N 
ATOM     11  C   UNL     1       1.380  12.596  18.847  0.00  0.00    +0.000 C 
ATOM     12  C   UNL     1       0.519  13.829  18.983  0.00  0.00    +0.000 C 
ATOM     13  O   UNL     1       2.575  12.711  18.600  0.00  0.00    +0.000 OA
ATOM     14  H   UNL     1      -0.297  11.493  19.281  0.00  0.00    +0.000 HD
ENDBRANCH   7  10
ENDBRANCH   1   4
BRANCH   1  15
ATOM     15  C   UNL     1       4.201   5.884  17.883  0.00  0.00    +0.000 C 
BRANCH  15  16
ATOM     16  C   UNL     1       4.610   4.569  17.196  0.00  0.00    +0.000 C 
BRANCH  16  21
ATOM     17  C   UNL     1       6.857   5.501  16.337  0.00  0.00    +0.000 A 
ATOM     18  N   UNL     1       7.556   5.453  15.215  0.00  0.00    +0.000 NA
ATOM     19  C   UNL     1       6.788   4.793  14.306  0.00  0.00    +0.000 A 
ATOM     20  C   UNL     1       5.601   4.415  14.873  0.00  0.00    +0.000 A 
ATOM     21  N   UNL     1       5.667   4.811  16.192  0.00  0.00    +0.000 N 
BRANCH  17  22
ATOM     22  C   UNL     1       7.330   6.240  17.550  0.00  0.00    +0.000 C 
BRANCH  22  24
ATOM     23  C   UNL     1       8.296   8.517  18.126  0.00  0.00    +0.000 C 
ATOM     24  C   UNL     1       7.252   7.757  17.322  0.00  0.00    +0.000 C 
ENDBRANCH  22  24
ENDBRANCH  17  22
ENDBRANCH  16  21
BRANCH  16  25
ATOM     25  C   UNL     1       5.085   3.485  18.176  0.00  0.00    +0.000 C 
BRANCH  25  26
ATOM     26  O   UNL     1       5.608   4.069  19.365  0.00  0.00    +0.000 OA
ATOM     27  H   UNL     1       5.609   5.036  19.239  0.00  0.00    +0.000 HD
ENDBRANCH  25  26
ENDBRANCH  16  25
ENDBRANCH  15  16
ENDBRANCH   1  15
TORSDOF 9
ENDMDL
MODEL 8
REMARK VINA RESULT:      -6.7      0.727      1.232
REMARK  Name = 
REMARK  11 active torsions:
REMARK  status: ('A' for Active; 'I' for Inactive)
REMARK    1  A    between atoms: C_1  and  C_2
REMARK    2  A    between atoms: C_2  and  C_3
REMARK    3  A    between atoms: C_3  and  C_4
REMARK    4  A    between atoms: N_8  and  C_9
REMARK    5  A    between atoms: C_9  and  C_10
REMARK    6  A    between atoms: C_9  and  C_12
REMARK    7  A    between atoms: C_10  and  O_11
REMARK    8  A    between atoms: C_12  and  S_13
REMARK    9  A    between atoms: S_13  and  C_16
REMARK   10  A    between atoms: C_19  and  N_20
REMARK   11  A    between atoms: C_21  and  C_22
REMARK                            x       y       z     vdW  Elec       q    Type
REMARK                         _______ _______ _______ _____ _____    ______ ____
ROOT
ATOM      1  S   UNL     1       2.449   4.748  19.923  0.00  0.00    +0.000 S 
ATOM      2  O   UNL     1       1.722   3.963  18.943  0.00  0.00    +0.000 OA
ATOM      3  O   UNL     1       2.268   4.512  21.340  0.00  0.00    +0.000 OA
ENDROOT
BRANCH   1   4
ATOM      4  C   UNL     1       2.061   6.469  19.650  0.00  0.00    +0.000 A 
ATOM      5  C   UNL     1       1.552   7.238  20.690  0.00  0.00    +0.000 A 
ATOM      6  C   UNL     1       1.264   8.592  20.474  0.00  0.00    +0.000 A 
ATOM      7  C   UNL     1       1.491   9.190  19.232  0.00  0.00    +0.000 A 
ATOM      8  C   UNL     1       2.011   8.402  18.193  0.00  0.00    +0.000 A 
ATOM      9  C   UNL     1       2.304   7.046  18.400  0.00  0.00    +0.000 A 
BRANCH   7  10
ATOM     10  N   UNL     1       1.246  10.556  18.958  0.00  0.00    +0.000 N 
ATOM     11  C   UNL     1       0.009  11.167  18.827  0.00  0.00    +0.000 C 
ATOM     12  C   UNL     1       0.100  12.652  18.573  0.00  0.00    +0.000 C 
ATOM     13  O   UNL     1      -1.088  10.622  18.876  0.00  0.00    +0.000 OA
ATOM     14  H   UNL     1       2.063  11.143  18.861  0.00  0.00    +0.000 HD
ENDBRANCH   7  10
ENDBRANCH   1   4
BRANCH   1  15
ATOM     15  C   UNL     1       4.172   4.665  19.509  0.00  0.00    +0.000 C 
BRANCH  15  16
ATOM     16  C   UNL     1       4.468   4.680  17.998  0.00  0.00    +0.000 C 
BRANCH  16  21
ATOM     17  C   UNL     1       6.219   5.844  16.502  0.00  0.00    +0.000 A 
ATOM     18  N   UNL     1       7.345   6.514  16.678  0.00  0.00    +0.000 NA
ATOM     19  C   UNL     1       7.625   6.464  18.009  0.00  0.00    +0.000 A 
ATOM     20  C   UNL     1       6.654   5.764  18.671  0.00  0.00    +0.000 A 
ATOM     21  N   UNL     1       5.718   5.417  17.719  0.00  0.00    +0.000 N 
BRANCH  17  22
ATOM     22  C   UNL     1       5.635   5.589  15.147  0.00  0.00    +0.000 C 
BRANCH  22  24
ATOM     23  C   UNL     1       5.994   3.722  13.463  0.00  0.00    +0.000 C 
ATOM     24  C   UNL     1       6.642   4.846  14.256  0.00  0.00    +0.000 C 
ENDBRANCH  22  24
ENDBRANCH  17  22
ENDBRANCH  16  21
BRANCH  16  25
ATOM     25  C   UNL     1       4.562   3.277  17.378  0.00  0.00    +0.000 C 
BRANCH  25  26
ATOM     26  O   UNL     1       4.321   2.271  18.355  0.00  0.00    +0.000 OA
ATOM     27  H   UNL     1       3.763   1.587  17.939  0.00  0.00    +0.000 HD
ENDBRANCH  25  26
ENDBRANCH  16  25
ENDBRANCH  15  16
ENDBRANCH   1  15
TORSDOF 9
ENDMDL
MODEL 9
REMARK VINA RESULT:      -6.6      1.493      2.559
REMARK  Name = 
REMARK  11 active torsions:
REMARK  status: ('A' for Active; 'I' for Inactive)
REMARK    1  A    between atoms: C_1  and  C_2
REMARK    2  A    between atoms: C_2  and  C_3
REMARK    3  A    between atoms: C_3  and  C_4
REMARK    4  A    between atoms: N_8  and  C_9
REMARK    5  A    between atoms: C_9  and  C_10
REMARK    6  A    between atoms: C_9  and  C_12
REMARK    7  A    between atoms: C_10  and  O_11
REMARK    8  A    between atoms: C_12  and  S_13
REMARK    9  A    between atoms: S_13  and  C_16
REMARK   10  A    between atoms: C_19  and  N_20
REMARK   11  A    between atoms: C_21  and  C_22
REMARK                            x       y       z     vdW  Elec       q    Type
REMARK                         _______ _______ _______ _____ _____    ______ ____
ROOT
ATOM      1  S   UNL     1       2.637   5.705  19.001  0.00  0.00    +0.000 S 
ATOM      2  O   UNL     1       1.616   4.891  18.368  0.00  0.00    +0.000 OA
ATOM      3  O   UNL     1       3.094   5.403  20.342  0.00  0.00    +0.000 OA
ENDROOT
BRANCH   1   4
ATOM      4  C   UNL     1       2.055   7.391  19.040  0.00  0.00    +0.000 A 
ATOM      5  C   UNL     1       1.619   7.948  20.237  0.00  0.00    +0.000 A 
ATOM      6  C   UNL     1       1.178   9.277  20.263  0.00  0.00    +0.000 A 
ATOM      7  C   UNL     1       1.178  10.062  19.108  0.00  0.00    +0.000 A 
ATOM      8  C   UNL     1       1.626   9.488  17.907  0.00  0.00    +0.000 A 
ATOM      9  C   UNL     1       2.072   8.159  17.871  0.00  0.00    +0.000 A 
BRANCH   7  10
ATOM     10  N   UNL     1       0.770  11.415  19.074  0.00  0.00    +0.000 N 
ATOM     11  C   UNL     1       1.528  12.501  18.664  0.00  0.00    +0.000 C 
ATOM     12  C   UNL     1       0.777  13.809  18.716  0.00  0.00    +0.000 C 
ATOM     13  O   UNL     1       2.700  12.484  18.306  0.00  0.00    +0.000 OA
ATOM     14  H   UNL     1      -0.178  11.601  19.370  0.00  0.00    +0.000 HD
ENDBRANCH   7  10
ENDBRANCH   1   4
BRANCH   1  15
ATOM     15  C   UNL     1       4.019   5.794  17.893  0.00  0.00    +0.000 C 
BRANCH  15  16
ATOM     16  C   UNL     1       4.255   4.521  17.060  0.00  0.00    +0.000 C 
BRANCH  16  21
ATOM     17  C   UNL     1       6.791   4.865  16.732  0.00  0.00    +0.000 A 
ATOM     18  N   UNL     1       7.644   4.847  15.722  0.00  0.00    +0.000 NA
ATOM     19  C   UNL     1       6.905   4.675  14.591  0.00  0.00    +0.000 A 
ATOM     20  C   UNL     1       5.577   4.574  14.903  0.00  0.00    +0.000 A 
ATOM     21  N   UNL     1       5.504   4.632  16.280  0.00  0.00    +0.000 N 
BRANCH  17  22
ATOM     22  C   UNL     1       7.216   5.136  18.142  0.00  0.00    +0.000 C 
BRANCH  22  24
ATOM     23  C   UNL     1       7.096   7.585  17.482  0.00  0.00    +0.000 C 
ATOM     24  C   UNL     1       7.865   6.524  18.253  0.00  0.00    +0.000 C 
ENDBRANCH  22  24
ENDBRANCH  17  22
ENDBRANCH  16  21
BRANCH  16  25
ATOM     25  C   UNL     1       4.299   3.236  17.901  0.00  0.00    +0.000 C 
BRANCH  25  26
ATOM     26  O   UNL     1       3.163   2.418  17.641  0.00  0.00    +0.000 OA
ATOM     27  H   UNL     1       3.487   1.516  17.461  0.00  0.00    +0.000 HD
ENDBRANCH  25  26
ENDBRANCH  16  25
ENDBRANCH  15  16
ENDBRANCH   1  15
TORSDOF 9
ENDMDL
