MODEL 1
REMARK VINA RESULT:      -7.9      0.000      0.000
REMARK  Name = 
REMARK  6 active torsions:
REMARK  status: ('A' for Active; 'I' for Inactive)
REMARK    1  A    between atoms: C_1  and  O_2
REMARK    2  A    between atoms: O_2  and  C_3
REMARK    3  A    between atoms: C_6  and  C_7
REMARK    4  A    between atoms: C_14  and  C_15
REMARK    5  A    between atoms: C_18  and  C_20
REMARK    6  A    between atoms: C_25  and  O_26
REMARK                            x       y       z     vdW  Elec       q    Type
REMARK                         _______ _______ _______ _____ _____    ______ ____
ROOT
ATOM      1  C   UNL     1       0.607  12.125  20.943  0.00  0.00    +0.000 C 
ATOM      2  S   UNL     1       1.084  13.333  19.659  0.00  0.00    +0.000 S 
ATOM      3  C   UNL     1       1.822  12.351  18.415  0.00  0.00    +0.000 C 
ATOM      4  N   UNL     1       2.621  12.958  17.605  0.00  0.00    +0.000 NA
ATOM      5  N   UNL     1       1.577  11.018  18.318  0.00  0.00    +0.000 N 
ATOM      6  C   UNL     1       1.190  10.247  19.353  0.00  0.00    +0.000 A 
ATOM      7  C   UNL     1       0.752  10.687  20.578  0.00  0.00    +0.000 A 
ATOM      8  C   UNL     1       0.643   9.496  21.349  0.00  0.00    +0.000 A 
ATOM      9  C   UNL     1       0.259   9.332  22.773  0.00  0.00    +0.000 C 
ATOM     10  N   UNL     1       1.001   8.406  20.652  0.00  0.00    +0.000 NA
ATOM     11  N   UNL     1       1.407   8.887  19.441  0.00  0.00    +0.000 N 
ATOM     12  C   UNL     1       2.040   8.060  18.494  0.00  0.00    +0.000 C 
ATOM     13  O   UNL     1       1.984   8.405  17.312  0.00  0.00    +0.000 OA
ATOM     14  H   UNL     1       2.656  13.937  17.906  0.00  0.00    +0.000 HD
ATOM     15  H   UNL     1       2.016  10.586  17.504  0.00  0.00    +0.000 HD
ENDROOT
BRANCH   1  19
ATOM     16  C   UNL     1      -3.484  12.610  22.319  0.00  0.00    +0.000 A 
ATOM     17  C   UNL     1      -3.211  12.558  20.952  0.00  0.00    +0.000 A 
ATOM     18  C   UNL     1      -1.902  12.403  20.494  0.00  0.00    +0.000 A 
ATOM     19  C   UNL     1      -0.830  12.322  21.398  0.00  0.00    +0.000 A 
ATOM     20  C   UNL     1      -1.116  12.429  22.773  0.00  0.00    +0.000 A 
ATOM     21  C   UNL     1      -2.430  12.556  23.231  0.00  0.00    +0.000 A 
BRANCH  16  23
ATOM     22  C   UNL     1      -5.728  12.651  21.571  0.00  0.00    +0.000 C 
ATOM     23  O   UNL     1      -4.804  12.752  22.649  0.00  0.00    +0.000 OA
ENDBRANCH  16  23
ENDBRANCH   1  19
BRANCH  12  24
ATOM     24  C   UNL     1       2.855   6.878  18.847  0.00  0.00    +0.000 A 
ATOM     25  C   UNL     1       2.361   5.959  19.782  0.00  0.00    +0.000 A 
ATOM     26  C   UNL     1       3.054   4.771  20.023  0.00  0.00    +0.000 A 
ATOM     27  C   UNL     1       4.239   4.499  19.336  0.00  0.00    +0.000 A 
ATOM     28  C   UNL     1       4.727   5.402  18.391  0.00  0.00    +0.000 A 
ATOM     29  C   UNL     1       4.020   6.576  18.130  0.00  0.00    +0.000 A 
BRANCH  29  30
ATOM     30  O   UNL     1       4.424   7.386  17.105  0.00  0.00    +0.000 OA
ATOM     31  H   UNL     1       3.745   7.389  16.411  0.00  0.00    +0.000 HD
ENDBRANCH  29  30
ENDBRANCH  12  24
TORSDOF 4
ENDMDL
MODEL 2
REMARK VINA RESULT:      -7.9      0.455      1.051
REMARK  Name = 
REMARK  6 active torsions:
REMARK  status: ('A' for Active; 'I' for Inactive)
REMARK    1  A    between atoms: C_1  and  O_2
REMARK    2  A    between atoms: O_2  and  C_3
REMARK    3  A    between atoms: C_6  and  C_7
REMARK    4  A    between atoms: C_14  and  C_15
REMARK    5  A    between atoms: C_18  and  C_20
REMARK    6  A    between atoms: C_25  and  O_26
REMARK                            x       y       z     vdW  Elec       q    Type
REMARK                         _______ _______ _______ _____ _____    ______ ____
ROOT
ATOM      1  C   UNL     1       0.578  12.010  20.982  0.00  0.00    +0.000 C 
ATOM      2  S   UNL     1       1.029  13.242  19.712  0.00  0.00    +0.000 S 
ATOM      3  C   UNL     1       1.777  12.287  18.452  0.00  0.00    +0.000 C 
ATOM      4  N   UNL     1       2.561  12.917  17.645  0.00  0.00    +0.000 NA
ATOM      5  N   UNL     1       1.552  10.952  18.339  0.00  0.00    +0.000 N 
ATOM      6  C   UNL     1       1.183  10.162  19.366  0.00  0.00    +0.000 A 
ATOM      7  C   UNL     1       0.744  10.579  20.598  0.00  0.00    +0.000 A 
ATOM      8  C   UNL     1       0.658   9.377  21.355  0.00  0.00    +0.000 A 
ATOM      9  C   UNL     1       0.284   9.189  22.779  0.00  0.00    +0.000 C 
ATOM     10  N   UNL     1       1.029   8.302  20.642  0.00  0.00    +0.000 NA
ATOM     11  N   UNL     1       1.421   8.804  19.436  0.00  0.00    +0.000 N 
ATOM     12  C   UNL     1       2.063   8.000  18.475  0.00  0.00    +0.000 C 
ATOM     13  O   UNL     1       1.995   8.358  17.297  0.00  0.00    +0.000 OA
ATOM     14  H   UNL     1       2.582  13.893  17.959  0.00  0.00    +0.000 HD
ATOM     15  H   UNL     1       1.993  10.537  17.518  0.00  0.00    +0.000 HD
ENDROOT
BRANCH   1  19
ATOM     16  C   UNL     1      -3.540  12.577  22.241  0.00  0.00    +0.000 A 
ATOM     17  C   UNL     1      -2.543  12.372  23.194  0.00  0.00    +0.000 A 
ATOM     18  C   UNL     1      -1.215  12.187  22.806  0.00  0.00    +0.000 A 
ATOM     19  C   UNL     1      -0.859  12.179  21.447  0.00  0.00    +0.000 A 
ATOM     20  C   UNL     1      -1.886  12.335  20.494  0.00  0.00    +0.000 A 
ATOM     21  C   UNL     1      -3.210  12.547  20.886  0.00  0.00    +0.000 A 
BRANCH  16  23
ATOM     22  C   UNL     1      -4.896  12.887  24.154  0.00  0.00    +0.000 C 
ATOM     23  O   UNL     1      -4.801  12.756  22.740  0.00  0.00    +0.000 OA
ENDBRANCH  16  23
ENDBRANCH   1  19
BRANCH  12  24
ATOM     24  C   UNL     1       2.898   6.826  18.808  0.00  0.00    +0.000 A 
ATOM     25  C   UNL     1       2.433   5.899  19.750  0.00  0.00    +0.000 A 
ATOM     26  C   UNL     1       3.144   4.718  19.974  0.00  0.00    +0.000 A 
ATOM     27  C   UNL     1       4.318   4.462  19.264  0.00  0.00    +0.000 A 
ATOM     28  C   UNL     1       4.777   5.374  18.312  0.00  0.00    +0.000 A 
ATOM     29  C   UNL     1       4.052   6.540  18.069  0.00  0.00    +0.000 A 
BRANCH  29  30
ATOM     30  O   UNL     1       4.427   7.357  17.038  0.00  0.00    +0.000 OA
ATOM     31  H   UNL     1       3.971   8.211  17.122  0.00  0.00    +0.000 HD
ENDBRANCH  29  30
ENDBRANCH  12  24
TORSDOF 4
ENDMDL
MODEL 3
REMARK VINA RESULT:      -7.2      2.711      8.354
REMARK  Name = 
REMARK  6 active torsions:
REMARK  status: ('A' for Active; 'I' for Inactive)
REMARK    1  A    between atoms: C_1  and  O_2
REMARK    2  A    between atoms: O_2  and  C_3
REMARK    3  A    between atoms: C_6  and  C_7
REMARK    4  A    between atoms: C_14  and  C_15
REMARK    5  A    between atoms: C_18  and  C_20
REMARK    6  A    between atoms: C_25  and  O_26
REMARK                            x       y       z     vdW  Elec       q    Type
REMARK                         _______ _______ _______ _____ _____    ______ ____
ROOT
ATOM      1  C   UNL     1       0.552  11.582  18.882  0.00  0.00    +0.000 C 
ATOM      2  S   UNL     1       1.422  12.724  20.010  0.00  0.00    +0.000 S 
ATOM      3  C   UNL     1       0.129  13.549  20.850  0.00  0.00    +0.000 C 
ATOM      4  N   UNL     1       0.424  14.686  21.381  0.00  0.00    +0.000 NA
ATOM      5  N   UNL     1      -1.122  13.023  20.926  0.00  0.00    +0.000 N 
ATOM      6  C   UNL     1      -1.627  12.151  20.032  0.00  0.00    +0.000 A 
ATOM      7  C   UNL     1      -0.924  11.473  19.068  0.00  0.00    +0.000 A 
ATOM      8  C   UNL     1      -1.933  10.834  18.294  0.00  0.00    +0.000 A 
ATOM      9  C   UNL     1      -1.793   9.993  17.080  0.00  0.00    +0.000 C 
ATOM     10  N   UNL     1      -3.167  11.112  18.744  0.00  0.00    +0.000 NA
ATOM     11  N   UNL     1      -2.973  11.984  19.774  0.00  0.00    +0.000 N 
ATOM     12  C   UNL     1      -4.048  12.658  20.383  0.00  0.00    +0.000 C 
ATOM     13  O   UNL     1      -3.885  13.064  21.535  0.00  0.00    +0.000 OA
ATOM     14  H   UNL     1       1.409  14.867  21.159  0.00  0.00    +0.000 HD
ATOM     15  H   UNL     1      -1.756  13.574  21.506  0.00  0.00    +0.000 HD
ENDROOT
BRANCH   1  19
ATOM     16  C   UNL     1       2.201   7.578  19.208  0.00  0.00    +0.000 A 
ATOM     17  C   UNL     1       2.285   8.269  17.999  0.00  0.00    +0.000 A 
ATOM     18  C   UNL     1       1.759   9.557  17.878  0.00  0.00    +0.000 A 
ATOM     19  C   UNL     1       1.113  10.172  18.963  0.00  0.00    +0.000 A 
ATOM     20  C   UNL     1       0.990   9.441  20.161  0.00  0.00    +0.000 A 
ATOM     21  C   UNL     1       1.541   8.163  20.288  0.00  0.00    +0.000 A 
BRANCH  16  23
ATOM     22  C   UNL     1       3.632   6.038  18.123  0.00  0.00    +0.000 C 
ATOM     23  O   UNL     1       2.761   6.330  19.210  0.00  0.00    +0.000 OA
ENDBRANCH  16  23
ENDBRANCH   1  19
BRANCH  12  24
ATOM     24  C   UNL     1      -5.307  12.999  19.686  0.00  0.00    +0.000 A 
ATOM     25  C   UNL     1      -6.215  11.980  19.371  0.00  0.00    +0.000 A 
ATOM     26  C   UNL     1      -7.465  12.301  18.838  0.00  0.00    +0.000 A 
ATOM     27  C   UNL     1      -7.810  13.636  18.616  0.00  0.00    +0.000 A 
ATOM     28  C   UNL     1      -6.916  14.657  18.943  0.00  0.00    +0.000 A 
ATOM     29  C   UNL     1      -5.679  14.337  19.501  0.00  0.00    +0.000 A 
BRANCH  29  30
ATOM     30  O   UNL     1      -4.869  15.342  19.951  0.00  0.00    +0.000 OA
ATOM     31  H   UNL     1      -4.109  15.435  19.354  0.00  0.00    +0.000 HD
ENDBRANCH  29  30
ENDBRANCH  12  24
TORSDOF 4
ENDMDL
MODEL 4
REMARK VINA RESULT:      -7.1      0.947      1.669
REMARK  Name = 
REMARK  6 active torsions:
REMARK  status: ('A' for Active; 'I' for Inactive)
REMARK    1  A    between atoms: C_1  and  O_2
REMARK    2  A    between atoms: O_2  and  C_3
REMARK    3  A    between atoms: C_6  and  C_7
REMARK    4  A    between atoms: C_14  and  C_15
REMARK    5  A    between atoms: C_18  and  C_20
REMARK    6  A    between atoms: C_25  and  O_26
REMARK                            x       y       z     vdW  Elec       q    Type
REMARK                         _______ _______ _______ _____ _____    ______ ____
ROOT
ATOM      1  C   UNL     1       0.884  11.793  20.866  0.00  0.00    +0.000 C 
ATOM      2  S   UNL     1       1.287  13.065  19.619  0.00  0.00    +0.000 S 
ATOM      3  C   UNL     1       1.998  12.154  18.307  0.00  0.00    +0.000 C 
ATOM      4  N   UNL     1       2.752  12.813  17.495  0.00  0.00    +0.000 NA
ATOM      5  N   UNL     1       1.777  10.821  18.162  0.00  0.00    +0.000 N 
ATOM      6  C   UNL     1       1.447   9.998  19.176  0.00  0.00    +0.000 A 
ATOM      7  C   UNL     1       1.047  10.375  20.433  0.00  0.00    +0.000 A 
ATOM      8  C   UNL     1       0.992   9.150  21.156  0.00  0.00    +0.000 A 
ATOM      9  C   UNL     1       0.667   8.917  22.585  0.00  0.00    +0.000 C 
ATOM     10  N   UNL     1       1.347   8.100  20.399  0.00  0.00    +0.000 NA
ATOM     11  N   UNL     1       1.696   8.640  19.196  0.00  0.00    +0.000 N 
ATOM     12  C   UNL     1       2.310   7.870  18.192  0.00  0.00    +0.000 C 
ATOM     13  O   UNL     1       2.201   8.263  17.028  0.00  0.00    +0.000 OA
ATOM     14  H   UNL     1       2.778  13.779  17.837  0.00  0.00    +0.000 HD
ATOM     15  H   UNL     1       2.194  10.434  17.314  0.00  0.00    +0.000 HD
ENDROOT
BRANCH   1  19
ATOM     16  C   UNL     1      -3.188  12.301  22.285  0.00  0.00    +0.000 A 
ATOM     17  C   UNL     1      -2.183  11.924  23.176  0.00  0.00    +0.000 A 
ATOM     18  C   UNL     1      -0.869  11.756  22.735  0.00  0.00    +0.000 A 
ATOM     19  C   UNL     1      -0.538  11.938  21.382  0.00  0.00    +0.000 A 
ATOM     20  C   UNL     1      -1.574  12.267  20.486  0.00  0.00    +0.000 A 
ATOM     21  C   UNL     1      -2.883  12.462  20.934  0.00  0.00    +0.000 A 
BRANCH  16  23
ATOM     22  C   UNL     1      -4.468  12.774  24.218  0.00  0.00    +0.000 C 
ATOM     23  O   UNL     1      -4.433  12.446  22.833  0.00  0.00    +0.000 OA
ENDBRANCH  16  23
ENDBRANCH   1  19
BRANCH  12  24
ATOM     24  C   UNL     1       3.163   6.692  18.462  0.00  0.00    +0.000 A 
ATOM     25  C   UNL     1       4.549   6.796  18.290  0.00  0.00    +0.000 A 
ATOM     26  C   UNL     1       5.379   5.739  18.671  0.00  0.00    +0.000 A 
ATOM     27  C   UNL     1       4.828   4.580  19.220  0.00  0.00    +0.000 A 
ATOM     28  C   UNL     1       3.449   4.477  19.410  0.00  0.00    +0.000 A 
ATOM     29  C   UNL     1       2.624   5.544  19.055  0.00  0.00    +0.000 A 
BRANCH  29  30
ATOM     30  O   UNL     1       1.295   5.496  19.374  0.00  0.00    +0.000 OA
ATOM     31  H   UNL     1       0.772   5.391  18.563  0.00  0.00    +0.000 HD
ENDBRANCH  29  30
ENDBRANCH  12  24
TORSDOF 4
ENDMDL
MODEL 5
REMARK VINA RESULT:      -7.0      4.542      8.928
REMARK  Name = 
REMARK  6 active torsions:
REMARK  status: ('A' for Active; 'I' for Inactive)
REMARK    1  A    between atoms: C_1  and  O_2
REMARK    2  A    between atoms: O_2  and  C_3
REMARK    3  A    between atoms: C_6  and  C_7
REMARK    4  A    between atoms: C_14  and  C_15
REMARK    5  A    between atoms: C_18  and  C_20
REMARK    6  A    between atoms: C_25  and  O_26
REMARK                            x       y       z     vdW  Elec       q    Type
REMARK                         _______ _______ _______ _____ _____    ______ ____
ROOT
ATOM      1  C   UNL     1      -1.614  11.328  18.880  0.00  0.00    +0.000 C 
ATOM      2  S   UNL     1      -2.372  10.885  17.279  0.00  0.00    +0.000 S 
ATOM      3  C   UNL     1      -4.011  11.480  17.415  0.00  0.00    +0.000 C 
ATOM      4  N   UNL     1      -4.882  10.943  16.630  0.00  0.00    +0.000 NA
ATOM      5  N   UNL     1      -4.348  12.446  18.308  0.00  0.00    +0.000 N 
ATOM      6  C   UNL     1      -3.668  12.689  19.446  0.00  0.00    +0.000 A 
ATOM      7  C   UNL     1      -2.428  12.201  19.773  0.00  0.00    +0.000 A 
ATOM      8  C   UNL     1      -2.248  12.606  21.126  0.00  0.00    +0.000 A 
ATOM      9  C   UNL     1      -1.116  12.332  22.045  0.00  0.00    +0.000 C 
ATOM     10  N   UNL     1      -3.308  13.282  21.597  0.00  0.00    +0.000 NA
ATOM     11  N   UNL     1      -4.211  13.268  20.575  0.00  0.00    +0.000 N 
ATOM     12  C   UNL     1      -5.533  13.715  20.753  0.00  0.00    +0.000 C 
ATOM     13  O   UNL     1      -6.147  14.086  19.751  0.00  0.00    +0.000 OA
ATOM     14  H   UNL     1      -4.385  10.231  16.084  0.00  0.00    +0.000 HD
ATOM     15  H   UNL     1      -5.320  12.747  18.229  0.00  0.00    +0.000 HD
ENDROOT
BRANCH   1  19
ATOM     16  C   UNL     1       2.267  13.227  18.445  0.00  0.00    +0.000 A 
ATOM     17  C   UNL     1       1.107  13.997  18.393  0.00  0.00    +0.000 A 
ATOM     18  C   UNL     1      -0.149  13.402  18.530  0.00  0.00    +0.000 A 
ATOM     19  C   UNL     1      -0.269  12.013  18.698  0.00  0.00    +0.000 A 
ATOM     20  C   UNL     1       0.910  11.242  18.697  0.00  0.00    +0.000 A 
ATOM     21  C   UNL     1       2.167  11.843  18.587  0.00  0.00    +0.000 A 
BRANCH  16  23
ATOM     22  C   UNL     1       3.910  14.578  19.481  0.00  0.00    +0.000 C 
ATOM     23  O   UNL     1       3.439  13.921  18.310  0.00  0.00    +0.000 OA
ENDBRANCH  16  23
ENDBRANCH   1  19
BRANCH  12  24
ATOM     24  C   UNL     1      -6.255  13.659  22.043  0.00  0.00    +0.000 A 
ATOM     25  C   UNL     1      -6.384  14.826  22.807  0.00  0.00    +0.000 A 
ATOM     26  C   UNL     1      -7.178  14.821  23.956  0.00  0.00    +0.000 A 
ATOM     27  C   UNL     1      -7.840  13.655  24.345  0.00  0.00    +0.000 A 
ATOM     28  C   UNL     1      -7.729  12.494  23.578  0.00  0.00    +0.000 A 
ATOM     29  C   UNL     1      -6.959  12.507  22.416  0.00  0.00    +0.000 A 
BRANCH  29  30
ATOM     30  O   UNL     1      -6.969  11.414  21.595  0.00  0.00    +0.000 OA
ATOM     31  H   UNL     1      -6.107  11.332  21.156  0.00  0.00    +0.000 HD
ENDBRANCH  29  30
ENDBRANCH  12  24
TORSDOF 4
ENDMDL
MODEL 6
REMARK VINA RESULT:      -7.0      2.593      8.404
REMARK  Name = 
REMARK  6 active torsions:
REMARK  status: ('A' for Active; 'I' for Inactive)
REMARK    1  A    between atoms: C_1  and  O_2
REMARK    2  A    between atoms: O_2  and  C_3
REMARK    3  A    between atoms: C_6  and  C_7
REMARK    4  A    between atoms: C_14  and  C_15
REMARK    5  A    between atoms: C_18  and  C_20
REMARK    6  A    between atoms: C_25  and  O_26
REMARK                            x       y       z     vdW  Elec       q    Type
REMARK                         _______ _______ _______ _____ _____    ______ ____
ROOT
ATOM      1  C   UNL     1       0.544  12.057  19.370  0.00  0.00    +0.000 C 
ATOM      2  S   UNL     1       1.540  12.974  20.596  0.00  0.00    +0.000 S 
ATOM      3  C   UNL     1       0.344  13.727  21.626  0.00  0.00    +0.000 C 
ATOM      4  N   UNL     1       0.734  14.757  22.297  0.00  0.00    +0.000 NA
ATOM      5  N   UNL     1      -0.929  13.259  21.703  0.00  0.00    +0.000 N 
ATOM      6  C   UNL     1      -1.532  12.556  20.724  0.00  0.00    +0.000 A 
ATOM      7  C   UNL     1      -0.923  11.995  19.630  0.00  0.00    +0.000 A 
ATOM      8  C   UNL     1      -2.008  11.529  18.836  0.00  0.00    +0.000 A 
ATOM      9  C   UNL     1      -1.984  10.872  17.506  0.00  0.00    +0.000 C 
ATOM     10  N   UNL     1      -3.198  11.797  19.398  0.00  0.00    +0.000 NA
ATOM     11  N   UNL     1      -2.898  12.496  20.530  0.00  0.00    +0.000 N 
ATOM     12  C   UNL     1      -3.897  13.124  21.297  0.00  0.00    +0.000 C 
ATOM     13  O   UNL     1      -3.647  13.345  22.483  0.00  0.00    +0.000 OA
ATOM     14  H   UNL     1       1.714  14.919  22.043  0.00  0.00    +0.000 HD
ATOM     15  H   UNL     1      -1.497  13.748  22.395  0.00  0.00    +0.000 HD
ENDROOT
BRANCH   1  19
ATOM     16  C   UNL     1       1.971   7.972  19.006  0.00  0.00    +0.000 A 
ATOM     17  C   UNL     1       2.054   8.837  17.916  0.00  0.00    +0.000 A 
ATOM     18  C   UNL     1       1.600  10.153  18.017  0.00  0.00    +0.000 A 
ATOM     19  C   UNL     1       1.025  10.624  19.209  0.00  0.00    +0.000 A 
ATOM     20  C   UNL     1       0.900   9.722  20.284  0.00  0.00    +0.000 A 
ATOM     21  C   UNL     1       1.381   8.414  20.190  0.00  0.00    +0.000 A 
BRANCH  16  23
ATOM     22  C   UNL     1       2.400   5.827  19.907  0.00  0.00    +0.000 C 
ATOM     23  O   UNL     1       2.457   6.711  18.793  0.00  0.00    +0.000 OA
ENDBRANCH  16  23
ENDBRANCH   1  19
BRANCH  12  24
ATOM     24  C   UNL     1      -5.170  13.627  20.737  0.00  0.00    +0.000 A 
ATOM     25  C   UNL     1      -5.225  14.928  20.221  0.00  0.00    +0.000 A 
ATOM     26  C   UNL     1      -6.377  15.369  19.566  0.00  0.00    +0.000 A 
ATOM     27  C   UNL     1      -7.474  14.517  19.429  0.00  0.00    +0.000 A 
ATOM     28  C   UNL     1      -7.419  13.214  19.926  0.00  0.00    +0.000 A 
ATOM     29  C   UNL     1      -6.259  12.765  20.555  0.00  0.00    +0.000 A 
BRANCH  29  30
ATOM     30  O   UNL     1      -6.158  11.448  20.911  0.00  0.00    +0.000 OA
ATOM     31  H   UNL     1      -6.137  11.377  21.879  0.00  0.00    +0.000 HD
ENDBRANCH  29  30
ENDBRANCH  12  24
TORSDOF 4
ENDMDL
MODEL 7
REMARK VINA RESULT:      -7.0      2.876      8.309
REMARK  Name = 
REMARK  6 active torsions:
REMARK  status: ('A' for Active; 'I' for Inactive)
REMARK    1  A    between atoms: C_1  and  O_2
REMARK    2  A    between atoms: O_2  and  C_3
REMARK    3  A    between atoms: C_6  and  C_7
REMARK    4  A    between atoms: C_14  and  C_15
REMARK    5  A    between atoms: C_18  and  C_20
REMARK    6  A    between atoms: C_25  and  O_26
REMARK                            x       y       z     vdW  Elec       q    Type
REMARK                         _______ _______ _______ _____ _____    ______ ____
ROOT
ATOM      1  C   UNL     1       0.348  11.732  18.886  0.00  0.00    +0.000 C 
ATOM      2  S   UNL     1       1.172  12.897  20.026  0.00  0.00    +0.000 S 
ATOM      3  C   UNL     1      -0.155  13.705  20.829  0.00  0.00    +0.000 C 
ATOM      4  N   UNL     1       0.109  14.851  21.358  0.00  0.00    +0.000 NA
ATOM      5  N   UNL     1      -1.398  13.159  20.879  0.00  0.00    +0.000 N 
ATOM      6  C   UNL     1      -1.867  12.272  19.979  0.00  0.00    +0.000 A 
ATOM      7  C   UNL     1      -1.129  11.600  19.037  0.00  0.00    +0.000 A 
ATOM      8  C   UNL     1      -2.109  10.938  18.245  0.00  0.00    +0.000 A 
ATOM      9  C   UNL     1      -1.926  10.091  17.040  0.00  0.00    +0.000 C 
ATOM     10  N   UNL     1      -3.357  11.197  18.664  0.00  0.00    +0.000 NA
ATOM     11  N   UNL     1      -3.203  12.080  19.692  0.00  0.00    +0.000 N 
ATOM     12  C   UNL     1      -4.304  12.739  20.270  0.00  0.00    +0.000 C 
ATOM     13  O   UNL     1      -4.174  13.156  21.423  0.00  0.00    +0.000 OA
ATOM     14  H   UNL     1       1.095  15.047  21.158  0.00  0.00    +0.000 HD
ATOM     15  H   UNL     1      -2.054  13.703  21.440  0.00  0.00    +0.000 HD
ENDROOT
BRANCH   1  19
ATOM     16  C   UNL     1       2.058   7.760  19.279  0.00  0.00    +0.000 A 
ATOM     17  C   UNL     1       2.149   8.439  18.065  0.00  0.00    +0.000 A 
ATOM     18  C   UNL     1       1.604   9.716  17.922  0.00  0.00    +0.000 A 
ATOM     19  C   UNL     1       0.931  10.332  18.990  0.00  0.00    +0.000 A 
ATOM     20  C   UNL     1       0.802   9.612  20.194  0.00  0.00    +0.000 A 
ATOM     21  C   UNL     1       1.373   8.345  20.343  0.00  0.00    +0.000 A 
BRANCH  16  23
ATOM     22  C   UNL     1       2.436   5.718  18.146  0.00  0.00    +0.000 C 
ATOM     23  O   UNL     1       2.638   6.521  19.303  0.00  0.00    +0.000 OA
ENDBRANCH  16  23
ENDBRANCH   1  19
BRANCH  12  24
ATOM     24  C   UNL     1      -5.551  13.054  19.541  0.00  0.00    +0.000 A 
ATOM     25  C   UNL     1      -5.745  14.348  19.040  0.00  0.00    +0.000 A 
ATOM     26  C   UNL     1      -6.851  14.625  18.234  0.00  0.00    +0.000 A 
ATOM     27  C   UNL     1      -7.765  13.615  17.929  0.00  0.00    +0.000 A 
ATOM     28  C   UNL     1      -7.569  12.319  18.410  0.00  0.00    +0.000 A 
ATOM     29  C   UNL     1      -6.449  12.037  19.193  0.00  0.00    +0.000 A 
BRANCH  29  30
ATOM     30  O   UNL     1      -6.186  10.741  19.541  0.00  0.00    +0.000 OA
ATOM     31  H   UNL     1      -6.432  10.155  18.807  0.00  0.00    +0.000 HD
ENDBRANCH  29  30
ENDBRANCH  12  24
TORSDOF 4
ENDMDL
MODEL 8
REMARK VINA RESULT:      -6.9      2.725      8.304
REMARK  Name = 
REMARK  6 active torsions:
REMARK  status: ('A' for Active; 'I' for Inactive)
REMARK    1  A    between atoms: C_1  and  O_2
REMARK    2  A    between atoms: O_2  and  C_3
REMARK    3  A    between atoms: C_6  and  C_7
REMARK    4  A    between atoms: C_14  and  C_15
REMARK    5  A    between atoms: C_18  and  C_20
REMARK    6  A    between atoms: C_25  and  O_26
REMARK                            x       y       z     vdW  Elec       q    Type
REMARK                         _______ _______ _______ _____ _____    ______ ____
ROOT
ATOM      1  C   UNL     1       0.557  11.572  18.726  0.00  0.00    +0.000 C 
ATOM      2  S   UNL     1       1.403  12.830  19.745  0.00  0.00    +0.000 S 
ATOM      3  C   UNL     1       0.091  13.696  20.513  0.00  0.00    +0.000 C 
ATOM      4  N   UNL     1       0.361  14.882  20.939  0.00  0.00    +0.000 NA
ATOM      5  N   UNL     1      -1.147  13.151  20.639  0.00  0.00    +0.000 N 
ATOM      6  C   UNL     1      -1.633  12.192  19.827  0.00  0.00    +0.000 A 
ATOM      7  C   UNL     1      -0.915  11.447  18.925  0.00  0.00    +0.000 A 
ATOM      8  C   UNL     1      -1.910  10.719  18.215  0.00  0.00    +0.000 A 
ATOM      9  C   UNL     1      -1.753   9.777  17.079  0.00  0.00    +0.000 C 
ATOM     10  N   UNL     1      -3.150  11.007  18.642  0.00  0.00    +0.000 NA
ATOM     11  N   UNL     1      -2.975  11.972  19.590  0.00  0.00    +0.000 N 
ATOM     12  C   UNL     1      -4.065  12.672  20.140  0.00  0.00    +0.000 C 
ATOM     13  O   UNL     1      -3.909  13.182  21.251  0.00  0.00    +0.000 OA
ATOM     14  H   UNL     1       1.341  15.065  20.699  0.00  0.00    +0.000 HD
ATOM     15  H   UNL     1      -1.793  13.736  21.170  0.00  0.00    +0.000 HD
ENDROOT
BRANCH   1  19
ATOM     16  C   UNL     1       2.211   7.586  19.209  0.00  0.00    +0.000 A 
ATOM     17  C   UNL     1       1.541   8.194  20.270  0.00  0.00    +0.000 A 
ATOM     18  C   UNL     1       1.004   9.475  20.131  0.00  0.00    +0.000 A 
ATOM     19  C   UNL     1       1.150  10.188  18.929  0.00  0.00    +0.000 A 
ATOM     20  C   UNL     1       1.876   9.581  17.885  0.00  0.00    +0.000 A 
ATOM     21  C   UNL     1       2.388   8.288  18.017  0.00  0.00    +0.000 A 
BRANCH  16  23
ATOM     22  C   UNL     1       1.934   5.555  20.390  0.00  0.00    +0.000 C 
ATOM     23  O   UNL     1       2.684   6.327  19.458  0.00  0.00    +0.000 OA
ENDBRANCH  16  23
ENDBRANCH   1  19
BRANCH  12  24
ATOM     24  C   UNL     1      -5.332  12.921  19.420  0.00  0.00    +0.000 A 
ATOM     25  C   UNL     1      -5.361  12.808  18.024  0.00  0.00    +0.000 A 
ATOM     26  C   UNL     1      -6.576  12.906  17.342  0.00  0.00    +0.000 A 
ATOM     27  C   UNL     1      -7.760  13.118  18.050  0.00  0.00    +0.000 A 
ATOM     28  C   UNL     1      -7.740  13.214  19.442  0.00  0.00    +0.000 A 
ATOM     29  C   UNL     1      -6.531  13.090  20.124  0.00  0.00    +0.000 A 
BRANCH  29  30
ATOM     30  O   UNL     1      -6.536  13.041  21.491  0.00  0.00    +0.000 OA
ATOM     31  H   UNL     1      -7.031  13.801  21.838  0.00  0.00    +0.000 HD
ENDBRANCH  29  30
ENDBRANCH  12  24
TORSDOF 4
ENDMDL
MODEL 9
REMARK VINA RESULT:      -6.8      2.670      8.426
REMARK  Name = 
REMARK  6 active torsions:
REMARK  status: ('A' for Active; 'I' for Inactive)
REMARK    1  A    between atoms: C_1  and  O_2
REMARK    2  A    between atoms: O_2  and  C_3
REMARK    3  A    between atoms: C_6  and  C_7
REMARK    4  A    between atoms: C_14  and  C_15
REMARK    5  A    between atoms: C_18  and  C_20
REMARK    6  A    between atoms: C_25  and  O_26
REMARK                            x       y       z     vdW  Elec       q    Type
REMARK                         _______ _______ _______ _____ _____    ______ ____
ROOT
ATOM      1  C   UNL     1       0.455  11.935  19.353  0.00  0.00    +0.000 C 
ATOM      2  S   UNL     1       1.351  12.956  20.573  0.00  0.00    +0.000 S 
ATOM      3  C   UNL     1       0.076  13.710  21.504  0.00  0.00    +0.000 C 
ATOM      4  N   UNL     1       0.390  14.789  22.136  0.00  0.00    +0.000 NA
ATOM      5  N   UNL     1      -1.179  13.192  21.545  0.00  0.00    +0.000 N 
ATOM      6  C   UNL     1      -1.704  12.413  20.579  0.00  0.00    +0.000 A 
ATOM      7  C   UNL     1      -1.019  11.823  19.546  0.00  0.00    +0.000 A 
ATOM      8  C   UNL     1      -2.045  11.270  18.729  0.00  0.00    +0.000 A 
ATOM      9  C   UNL     1      -1.928  10.547  17.438  0.00  0.00    +0.000 C 
ATOM     10  N   UNL     1      -3.270  11.515  19.218  0.00  0.00    +0.000 NA
ATOM     11  N   UNL     1      -3.055  12.284  20.324  0.00  0.00    +0.000 N 
ATOM     12  C   UNL     1      -4.116  12.907  21.007  0.00  0.00    +0.000 C 
ATOM     13  O   UNL     1      -3.934  13.201  22.191  0.00  0.00    +0.000 OA
ATOM     14  H   UNL     1       1.374  14.980  21.920  0.00  0.00    +0.000 HD
ATOM     15  H   UNL     1      -1.801  13.691  22.183  0.00  0.00    +0.000 HD
ENDROOT
BRANCH   1  19
ATOM     16  C   UNL     1       1.967   7.873  19.082  0.00  0.00    +0.000 A 
ATOM     17  C   UNL     1       1.401   8.326  20.273  0.00  0.00    +0.000 A 
ATOM     18  C   UNL     1       0.911   9.629  20.376  0.00  0.00    +0.000 A 
ATOM     19  C   UNL     1       1.001  10.518  19.293  0.00  0.00    +0.000 A 
ATOM     20  C   UNL     1       1.623  10.062  18.114  0.00  0.00    +0.000 A 
ATOM     21  C   UNL     1       2.088   8.748  18.003  0.00  0.00    +0.000 A 
BRANCH  16  23
ATOM     22  C   UNL     1       3.258   6.198  18.023  0.00  0.00    +0.000 C 
ATOM     23  O   UNL     1       2.402   6.576  19.095  0.00  0.00    +0.000 OA
ENDBRANCH  16  23
ENDBRANCH   1  19
BRANCH  12  24
ATOM     24  C   UNL     1      -5.379  13.326  20.362  0.00  0.00    +0.000 A 
ATOM     25  C   UNL     1      -5.476  14.612  19.815  0.00  0.00    +0.000 A 
ATOM     26  C   UNL     1      -6.610  14.973  19.084  0.00  0.00    +0.000 A 
ATOM     27  C   UNL     1      -7.646  14.056  18.899  0.00  0.00    +0.000 A 
ATOM     28  C   UNL     1      -7.547  12.768  19.427  0.00  0.00    +0.000 A 
ATOM     29  C   UNL     1      -6.404  12.398  20.134  0.00  0.00    +0.000 A 
BRANCH  29  30
ATOM     30  O   UNL     1      -6.250  11.097  20.523  0.00  0.00    +0.000 OA
ATOM     31  H   UNL     1      -6.069  11.065  21.477  0.00  0.00    +0.000 HD
ENDBRANCH  29  30
ENDBRANCH  12  24
TORSDOF 4
ENDMDL
