MODEL 1
REMARK VINA RESULT:      -8.1      0.000      0.000
REMARK  Name = 
REMARK  8 active torsions:
REMARK  status: ('A' for Active; 'I' for Inactive)
REMARK    1  A    between atoms: C_1  and  O_2
REMARK    2  A    between atoms: O_2  and  C_3
REMARK    3  A    between atoms: C_6  and  C_7
REMARK    4  A    between atoms: C_7  and  N_8
REMARK    5  A    between atoms: N_8  and  C_9
REMARK    6  A    between atoms: C_16  and  C_17
REMARK    7  A    between atoms: C_24  and  O_25
REMARK    8  A    between atoms: O_25  and  C_26
REMARK                            x       y       z     vdW  Elec       q    Type
REMARK                         _______ _______ _______ _____ _____    ______ ____
ROOT
ATOM      1  C   UNL     1       2.534   3.563  19.748  0.00  0.00    +0.000 A 
ATOM      2  N   UNL     1       1.550   2.972  19.094  0.00  0.00    +0.000 NA
ATOM      3  C   UNL     1       1.229   3.622  17.976  0.00  0.00    +0.000 A 
ATOM      4  N   UNL     1       1.685   4.843  17.650  0.00  0.00    +0.000 NA
ATOM      5  C   UNL     1       2.186   5.556  18.629  0.00  0.00    +0.000 A 
ATOM      6  C   UNL     1       2.170   6.932  18.389  0.00  0.00    +0.000 A 
ATOM      7  C   UNL     1       1.998   7.898  19.378  0.00  0.00    +0.000 A 
ATOM      8  C   UNL     1       1.774   7.507  20.691  0.00  0.00    +0.000 A 
ATOM      9  C   UNL     1       2.113   6.119  20.966  0.00  0.00    +0.000 A 
ATOM     10  C   UNL     1       2.445   5.054  19.886  0.00  0.00    +0.000 A 
ENDROOT
BRANCH   8  11
ATOM     11  C   UNL     1       1.023   8.537  21.510  0.00  0.00    +0.000 A 
ATOM     12  C   UNL     1      -0.425   8.704  21.635  0.00  0.00    +0.000 A 
ATOM     13  C   UNL     1      -0.689   9.549  22.684  0.00  0.00    +0.000 A 
ATOM     14  O   UNL     1       0.484   9.985  23.200  0.00  0.00    +0.000 OA
ATOM     15  C   UNL     1       1.500   9.380  22.502  0.00  0.00    +0.000 A 
ENDBRANCH   8  11
BRANCH   1  16
ATOM     16  N   UNL     1       3.756   2.821  19.503  0.00  0.00    +0.000 N 
ATOM     17  H   UNL     1       3.561   2.280  18.664  0.00  0.00    +0.000 HD
BRANCH  16  18
ATOM     18  C   UNL     1       5.138   3.553  19.153  0.00  0.00    +0.000 C 
BRANCH  18  22
ATOM     19  C   UNL     1       6.707   4.756  15.068  0.00  0.00    +0.000 A 
ATOM     20  C   UNL     1       5.420   4.248  15.259  0.00  0.00    +0.000 A 
ATOM     21  C   UNL     1       4.920   3.840  16.535  0.00  0.00    +0.000 A 
ATOM     22  C   UNL     1       5.675   3.961  17.710  0.00  0.00    +0.000 A 
ATOM     23  C   UNL     1       7.005   4.508  17.499  0.00  0.00    +0.000 A 
ATOM     24  C   UNL     1       7.505   4.857  16.196  0.00  0.00    +0.000 A 
BRANCH  19  26
ATOM     25  C   UNL     1       6.830   4.201  12.699  0.00  0.00    +0.000 C 
ATOM     26  O   UNL     1       7.034   5.111  13.789  0.00  0.00    +0.000 OA
ENDBRANCH  19  26
BRANCH  23  27
ATOM     27  O   UNL     1       7.826   4.681  18.603  0.00  0.00    +0.000 OA
ATOM     28  C   UNL     1       7.907   6.022  19.127  0.00  0.00    +0.000 C 
ENDBRANCH  23  27
ENDBRANCH  18  22
ENDBRANCH  16  18
ENDBRANCH   1  16
TORSDOF 6
ENDMDL
MODEL 2
REMARK VINA RESULT:      -7.8      1.486      2.545
REMARK  Name = 
REMARK  8 active torsions:
REMARK  status: ('A' for Active; 'I' for Inactive)
REMARK    1  A    between atoms: C_1  and  O_2
REMARK    2  A    between atoms: O_2  and  C_3
REMARK    3  A    between atoms: C_6  and  C_7
REMARK    4  A    between atoms: C_7  and  N_8
REMARK    5  A    between atoms: N_8  and  C_9
REMARK    6  A    between atoms: C_16  and  C_17
REMARK    7  A    between atoms: C_24  and  O_25
REMARK    8  A    between atoms: O_25  and  C_26
REMARK                            x       y       z     vdW  Elec       q    Type
REMARK                         _______ _______ _______ _____ _____    ______ ____
ROOT
ATOM      1  C   UNL     1       2.565   3.786  19.995  0.00  0.00    +0.000 A 
ATOM      2  N   UNL     1       1.625   3.103  19.365  0.00  0.00    +0.000 NA
ATOM      3  C   UNL     1       1.409   3.564  18.135  0.00  0.00    +0.000 A 
ATOM      4  N   UNL     1       1.914   4.713  17.654  0.00  0.00    +0.000 NA
ATOM      5  C   UNL     1       2.347   5.573  18.544  0.00  0.00    +0.000 A 
ATOM      6  C   UNL     1       2.378   6.891  18.084  0.00  0.00    +0.000 A 
ATOM      7  C   UNL     1       2.145   8.006  18.886  0.00  0.00    +0.000 A 
ATOM      8  C   UNL     1       1.807   7.835  20.222  0.00  0.00    +0.000 A 
ATOM      9  C   UNL     1       2.096   6.508  20.745  0.00  0.00    +0.000 A 
ATOM     10  C   UNL     1       2.493   5.280  19.882  0.00  0.00    +0.000 A 
ENDROOT
BRANCH   8  11
ATOM     11  C   UNL     1       1.013   8.989  20.799  0.00  0.00    +0.000 A 
ATOM     12  C   UNL     1       0.271  10.021  20.073  0.00  0.00    +0.000 A 
ATOM     13  C   UNL     1      -0.537  10.695  20.954  0.00  0.00    +0.000 A 
ATOM     14  O   UNL     1      -0.321  10.213  22.201  0.00  0.00    +0.000 OA
ATOM     15  C   UNL     1       0.599   9.198  22.105  0.00  0.00    +0.000 A 
ENDBRANCH   8  11
BRANCH   1  16
ATOM     16  N   UNL     1       3.788   3.007  19.976  0.00  0.00    +0.000 N 
ATOM     17  H   UNL     1       3.473   2.040  19.931  0.00  0.00    +0.000 HD
BRANCH  16  18
ATOM     18  C   UNL     1       4.839   3.105  18.770  0.00  0.00    +0.000 C 
BRANCH  18  22
ATOM     19  C   UNL     1       7.094   6.766  17.321  0.00  0.00    +0.000 A 
ATOM     20  C   UNL     1       7.104   6.358  18.657  0.00  0.00    +0.000 A 
ATOM     21  C   UNL     1       6.377   5.222  19.134  0.00  0.00    +0.000 A 
ATOM     22  C   UNL     1       5.629   4.398  18.281  0.00  0.00    +0.000 A 
ATOM     23  C   UNL     1       5.644   4.824  16.892  0.00  0.00    +0.000 A 
ATOM     24  C   UNL     1       6.336   6.004  16.447  0.00  0.00    +0.000 A 
BRANCH  19  26
ATOM     25  C   UNL     1       8.292   8.758  18.052  0.00  0.00    +0.000 C 
ATOM     26  O   UNL     1       7.847   7.866  17.020  0.00  0.00    +0.000 OA
ENDBRANCH  19  26
BRANCH  23  27
ATOM     27  O   UNL     1       4.944   4.066  15.965  0.00  0.00    +0.000 OA
ATOM     28  C   UNL     1       5.489   4.038  14.631  0.00  0.00    +0.000 C 
ENDBRANCH  23  27
ENDBRANCH  18  22
ENDBRANCH  16  18
ENDBRANCH   1  16
TORSDOF 6
ENDMDL
MODEL 3
REMARK VINA RESULT:      -7.8      1.933      7.899
REMARK  Name = 
REMARK  8 active torsions:
REMARK  status: ('A' for Active; 'I' for Inactive)
REMARK    1  A    between atoms: C_1  and  O_2
REMARK    2  A    between atoms: O_2  and  C_3
REMARK    3  A    between atoms: C_6  and  C_7
REMARK    4  A    between atoms: C_7  and  N_8
REMARK    5  A    between atoms: N_8  and  C_9
REMARK    6  A    between atoms: C_16  and  C_17
REMARK    7  A    between atoms: C_24  and  O_25
REMARK    8  A    between atoms: O_25  and  C_26
REMARK                            x       y       z     vdW  Elec       q    Type
REMARK                         _______ _______ _______ _____ _____    ______ ____
ROOT
ATOM      1  C   UNL     1       2.827   3.893  18.468  0.00  0.00    +0.000 A 
ATOM      2  N   UNL     1       2.952   2.722  19.065  0.00  0.00    +0.000 NA
ATOM      3  C   UNL     1       4.136   2.585  19.659  0.00  0.00    +0.000 A 
ATOM      4  N   UNL     1       5.170   3.428  19.497  0.00  0.00    +0.000 NA
ATOM      5  C   UNL     1       5.117   4.216  18.449  0.00  0.00    +0.000 A 
ATOM      6  C   UNL     1       6.365   4.681  18.032  0.00  0.00    +0.000 A 
ATOM      7  C   UNL     1       6.703   4.935  16.704  0.00  0.00    +0.000 A 
ATOM      8  C   UNL     1       5.784   4.670  15.698  0.00  0.00    +0.000 A 
ATOM      9  C   UNL     1       4.417   4.503  16.167  0.00  0.00    +0.000 A 
ATOM     10  C   UNL     1       4.000   4.357  17.655  0.00  0.00    +0.000 A 
ENDROOT
BRANCH   8  11
ATOM     11  C   UNL     1       6.423   4.397  14.351  0.00  0.00    +0.000 A 
ATOM     12  C   UNL     1       5.924   3.537  13.277  0.00  0.00    +0.000 A 
ATOM     13  C   UNL     1       6.638   3.790  12.133  0.00  0.00    +0.000 A 
ATOM     14  O   UNL     1       7.598   4.704  12.410  0.00  0.00    +0.000 OA
ATOM     15  C   UNL     1       7.467   5.064  13.729  0.00  0.00    +0.000 A 
ENDBRANCH   8  11
BRANCH   1  16
ATOM     16  N   UNL     1       2.002   4.746  19.300  0.00  0.00    +0.000 N 
ATOM     17  H   UNL     1       1.827   4.193  20.136  0.00  0.00    +0.000 HD
BRANCH  16  18
ATOM     18  C   UNL     1       2.539   6.137  19.888  0.00  0.00    +0.000 C 
BRANCH  18  22
ATOM     19  C   UNL     1       1.252  10.315  18.673  0.00  0.00    +0.000 A 
ATOM     20  C   UNL     1       1.977   9.475  17.823  0.00  0.00    +0.000 A 
ATOM     21  C   UNL     1       2.412   8.166  18.201  0.00  0.00    +0.000 A 
ATOM     22  C   UNL     1       2.104   7.604  19.448  0.00  0.00    +0.000 A 
ATOM     23  C   UNL     1       1.334   8.482  20.313  0.00  0.00    +0.000 A 
ATOM     24  C   UNL     1       0.958   9.817  19.931  0.00  0.00    +0.000 A 
BRANCH  19  26
ATOM     25  C   UNL     1       0.232  12.507  18.976  0.00  0.00    +0.000 C 
ATOM     26  O   UNL     1       0.901  11.533  18.162  0.00  0.00    +0.000 OA
ENDBRANCH  19  26
BRANCH  23  27
ATOM     27  O   UNL     1       0.966   8.012  21.565  0.00  0.00    +0.000 OA
ATOM     28  C   UNL     1      -0.270   8.531  22.097  0.00  0.00    +0.000 C 
ENDBRANCH  23  27
ENDBRANCH  18  22
ENDBRANCH  16  18
ENDBRANCH   1  16
TORSDOF 6
ENDMDL
MODEL 4
REMARK VINA RESULT:      -7.7      1.970      7.687
REMARK  Name = 
REMARK  8 active torsions:
REMARK  status: ('A' for Active; 'I' for Inactive)
REMARK    1  A    between atoms: C_1  and  O_2
REMARK    2  A    between atoms: O_2  and  C_3
REMARK    3  A    between atoms: C_6  and  C_7
REMARK    4  A    between atoms: C_7  and  N_8
REMARK    5  A    between atoms: N_8  and  C_9
REMARK    6  A    between atoms: C_16  and  C_17
REMARK    7  A    between atoms: C_24  and  O_25
REMARK    8  A    between atoms: O_25  and  C_26
REMARK                            x       y       z     vdW  Elec       q    Type
REMARK                         _______ _______ _______ _____ _____    ______ ____
ROOT
ATOM      1  C   UNL     1       2.828   3.543  18.619  0.00  0.00    +0.000 A 
ATOM      2  N   UNL     1       3.059   2.392  19.226  0.00  0.00    +0.000 NA
ATOM      3  C   UNL     1       4.256   2.363  19.809  0.00  0.00    +0.000 A 
ATOM      4  N   UNL     1       5.213   3.289  19.627  0.00  0.00    +0.000 NA
ATOM      5  C   UNL     1       5.082   4.058  18.572  0.00  0.00    +0.000 A 
ATOM      6  C   UNL     1       6.283   4.623  18.137  0.00  0.00    +0.000 A 
ATOM      7  C   UNL     1       6.584   4.891  16.804  0.00  0.00    +0.000 A 
ATOM      8  C   UNL     1       5.681   4.538  15.809  0.00  0.00    +0.000 A 
ATOM      9  C   UNL     1       4.339   4.261  16.295  0.00  0.00    +0.000 A 
ATOM     10  C   UNL     1       3.950   4.096  17.789  0.00  0.00    +0.000 A 
ENDROOT
BRANCH   8  11
ATOM     11  C   UNL     1       6.328   4.306  14.459  0.00  0.00    +0.000 A 
ATOM     12  C   UNL     1       5.839   3.473  13.360  0.00  0.00    +0.000 A 
ATOM     13  C   UNL     1       6.556   3.763  12.226  0.00  0.00    +0.000 A 
ATOM     14  O   UNL     1       7.510   4.674  12.532  0.00  0.00    +0.000 OA
ATOM     15  C   UNL     1       7.371   4.996  13.860  0.00  0.00    +0.000 A 
ENDBRANCH   8  11
BRANCH   1  16
ATOM     16  N   UNL     1       1.942   4.332  19.452  0.00  0.00    +0.000 N 
ATOM     17  H   UNL     1       1.674   3.702  20.205  0.00  0.00    +0.000 HD
BRANCH  16  18
ATOM     18  C   UNL     1       2.446   5.638  20.230  0.00  0.00    +0.000 C 
BRANCH  18  22
ATOM     19  C   UNL     1       0.990   9.900  19.677  0.00  0.00    +0.000 A 
ATOM     20  C   UNL     1       0.893   9.225  20.896  0.00  0.00    +0.000 A 
ATOM     21  C   UNL     1       1.323   7.874  21.080  0.00  0.00    +0.000 A 
ATOM     22  C   UNL     1       1.922   7.131  20.052  0.00  0.00    +0.000 A 
ATOM     23  C   UNL     1       2.033   7.853  18.796  0.00  0.00    +0.000 A 
ATOM     24  C   UNL     1       1.539   9.192  18.621  0.00  0.00    +0.000 A 
BRANCH  19  26
ATOM     25  C   UNL     1       1.331  12.236  19.074  0.00  0.00    +0.000 C 
ATOM     26  O   UNL     1       0.544  11.192  19.664  0.00  0.00    +0.000 OA
ENDBRANCH  19  26
BRANCH  23  27
ATOM     27  O   UNL     1       2.625   7.208  17.719  0.00  0.00    +0.000 OA
ATOM     28  C   UNL     1       3.968   7.620  17.397  0.00  0.00    +0.000 C 
ENDBRANCH  23  27
ENDBRANCH  18  22
ENDBRANCH  16  18
ENDBRANCH   1  16
TORSDOF 6
ENDMDL
MODEL 5
REMARK VINA RESULT:      -7.6      1.061      1.139
REMARK  Name = 
REMARK  8 active torsions:
REMARK  status: ('A' for Active; 'I' for Inactive)
REMARK    1  A    between atoms: C_1  and  O_2
REMARK    2  A    between atoms: O_2  and  C_3
REMARK    3  A    between atoms: C_6  and  C_7
REMARK    4  A    between atoms: C_7  and  N_8
REMARK    5  A    between atoms: N_8  and  C_9
REMARK    6  A    between atoms: C_16  and  C_17
REMARK    7  A    between atoms: C_24  and  O_25
REMARK    8  A    between atoms: O_25  and  C_26
REMARK                            x       y       z     vdW  Elec       q    Type
REMARK                         _______ _______ _______ _____ _____    ______ ____
ROOT
ATOM      1  C   UNL     1       2.570   4.311  19.850  0.00  0.00    +0.000 A 
ATOM      2  N   UNL     1       1.780   3.658  19.017  0.00  0.00    +0.000 NA
ATOM      3  C   UNL     1       1.640   4.294  17.855  0.00  0.00    +0.000 A 
ATOM      4  N   UNL     1       2.060   5.549  17.620  0.00  0.00    +0.000 NA
ATOM      5  C   UNL     1       2.303   6.286  18.677  0.00  0.00    +0.000 A 
ATOM      6  C   UNL     1       2.234   7.659  18.433  0.00  0.00    +0.000 A 
ATOM      7  C   UNL     1       1.800   8.600  19.365  0.00  0.00    +0.000 A 
ATOM      8  C   UNL     1       1.349   8.179  20.609  0.00  0.00    +0.000 A 
ATOM      9  C   UNL     1       1.728   6.817  20.951  0.00  0.00    +0.000 A 
ATOM     10  C   UNL     1       2.345   5.791  19.962  0.00  0.00    +0.000 A 
ENDROOT
BRANCH   8  11
ATOM     11  C   UNL     1       0.377   9.143  21.259  0.00  0.00    +0.000 A 
ATOM     12  C   UNL     1       0.030   9.250  22.676  0.00  0.00    +0.000 A 
ATOM     13  C   UNL     1      -0.653  10.423  22.882  0.00  0.00    +0.000 A 
ATOM     14  O   UNL     1      -0.822  11.045  21.691  0.00  0.00    +0.000 OA
ATOM     15  C   UNL     1      -0.207  10.283  20.729  0.00  0.00    +0.000 A 
ENDBRANCH   8  11
BRANCH   1  16
ATOM     16  N   UNL     1       3.867   3.664  19.856  0.00  0.00    +0.000 N 
ATOM     17  H   UNL     1       3.750   2.857  19.246  0.00  0.00    +0.000 HD
BRANCH  16  18
ATOM     18  C   UNL     1       5.176   4.378  19.270  0.00  0.00    +0.000 C 
BRANCH  18  22
ATOM     19  C   UNL     1       6.504   4.636  14.938  0.00  0.00    +0.000 A 
ATOM     20  C   UNL     1       5.603   3.669  15.391  0.00  0.00    +0.000 A 
ATOM     21  C   UNL     1       5.194   3.559  16.758  0.00  0.00    +0.000 A 
ATOM     22  C   UNL     1       5.637   4.448  17.747  0.00  0.00    +0.000 A 
ATOM     23  C   UNL     1       6.559   5.459  17.256  0.00  0.00    +0.000 A 
ATOM     24  C   UNL     1       6.999   5.514  15.888  0.00  0.00    +0.000 A 
BRANCH  19  26
ATOM     25  C   UNL     1       6.206   3.630  12.739  0.00  0.00    +0.000 C 
ATOM     26  O   UNL     1       6.787   4.618  13.601  0.00  0.00    +0.000 OA
ENDBRANCH  19  26
BRANCH  23  27
ATOM     27  O   UNL     1       7.044   6.397  18.156  0.00  0.00    +0.000 OA
ATOM     28  C   UNL     1       7.689   7.551  17.581  0.00  0.00    +0.000 C 
ENDBRANCH  23  27
ENDBRANCH  18  22
ENDBRANCH  16  18
ENDBRANCH   1  16
TORSDOF 6
ENDMDL
MODEL 6
REMARK VINA RESULT:      -7.6      2.086      8.354
REMARK  Name = 
REMARK  8 active torsions:
REMARK  status: ('A' for Active; 'I' for Inactive)
REMARK    1  A    between atoms: C_1  and  O_2
REMARK    2  A    between atoms: O_2  and  C_3
REMARK    3  A    between atoms: C_6  and  C_7
REMARK    4  A    between atoms: C_7  and  N_8
REMARK    5  A    between atoms: N_8  and  C_9
REMARK    6  A    between atoms: C_16  and  C_17
REMARK    7  A    between atoms: C_24  and  O_25
REMARK    8  A    between atoms: O_25  and  C_26
REMARK                            x       y       z     vdW  Elec       q    Type
REMARK                         _______ _______ _______ _____ _____    ______ ____
ROOT
ATOM      1  C   UNL     1       3.228   4.882  18.424  0.00  0.00    +0.000 A 
ATOM      2  N   UNL     1       3.063   3.705  19.001  0.00  0.00    +0.000 NA
ATOM      3  C   UNL     1       4.192   3.248  19.539  0.00  0.00    +0.000 A 
ATOM      4  N   UNL     1       5.405   3.792  19.339  0.00  0.00    +0.000 NA
ATOM      5  C   UNL     1       5.518   4.590  18.304  0.00  0.00    +0.000 A 
ATOM      6  C   UNL     1       6.827   4.720  17.836  0.00  0.00    +0.000 A 
ATOM      7  C   UNL     1       7.165   4.907  16.497  0.00  0.00    +0.000 A 
ATOM      8  C   UNL     1       6.169   4.918  15.531  0.00  0.00    +0.000 A 
ATOM      9  C   UNL     1       4.827   5.105  16.060  0.00  0.00    +0.000 A 
ATOM     10  C   UNL     1       4.447   5.040  17.564  0.00  0.00    +0.000 A 
ENDROOT
BRANCH   8  11
ATOM     11  C   UNL     1       6.657   4.517  14.153  0.00  0.00    +0.000 A 
ATOM     12  C   UNL     1       6.046   3.566  13.224  0.00  0.00    +0.000 A 
ATOM     13  C   UNL     1       6.629   3.709  11.990  0.00  0.00    +0.000 A 
ATOM     14  O   UNL     1       7.611   4.637  12.075  0.00  0.00    +0.000 OA
ATOM     15  C   UNL     1       7.624   5.117  13.361  0.00  0.00    +0.000 A 
ENDBRANCH   8  11
BRANCH   1  16
ATOM     16  N   UNL     1       2.692   5.903  19.304  0.00  0.00    +0.000 N 
ATOM     17  H   UNL     1       3.253   5.829  20.150  0.00  0.00    +0.000 HD
BRANCH  16  18
ATOM     18  C   UNL     1       2.776   7.462  18.946  0.00  0.00    +0.000 C 
BRANCH  18  22
ATOM     19  C   UNL     1      -0.619  10.469  19.105  0.00  0.00    +0.000 A 
ATOM     20  C   UNL     1      -0.002  10.096  17.909  0.00  0.00    +0.000 A 
ATOM     21  C   UNL     1       1.086   9.170  17.844  0.00  0.00    +0.000 A 
ATOM     22  C   UNL     1       1.591   8.526  18.984  0.00  0.00    +0.000 A 
ATOM     23  C   UNL     1       0.927   8.911  20.217  0.00  0.00    +0.000 A 
ATOM     24  C   UNL     1      -0.127   9.889  20.262  0.00  0.00    +0.000 A 
BRANCH  19  26
ATOM     25  C   UNL     1      -2.280  11.610  17.735  0.00  0.00    +0.000 C 
ATOM     26  O   UNL     1      -1.652  11.358  19.000  0.00  0.00    +0.000 OA
ENDBRANCH  19  26
BRANCH  23  27
ATOM     27  O   UNL     1       1.345   8.319  21.400  0.00  0.00    +0.000 OA
ATOM     28  C   UNL     1       1.337   9.165  22.568  0.00  0.00    +0.000 C 
ENDBRANCH  23  27
ENDBRANCH  18  22
ENDBRANCH  16  18
ENDBRANCH   1  16
TORSDOF 6
ENDMDL
MODEL 7
REMARK VINA RESULT:      -7.6      1.545      1.713
REMARK  Name = 
REMARK  8 active torsions:
REMARK  status: ('A' for Active; 'I' for Inactive)
REMARK    1  A    between atoms: C_1  and  O_2
REMARK    2  A    between atoms: O_2  and  C_3
REMARK    3  A    between atoms: C_6  and  C_7
REMARK    4  A    between atoms: C_7  and  N_8
REMARK    5  A    between atoms: N_8  and  C_9
REMARK    6  A    between atoms: C_16  and  C_17
REMARK    7  A    between atoms: C_24  and  O_25
REMARK    8  A    between atoms: O_25  and  C_26
REMARK                            x       y       z     vdW  Elec       q    Type
REMARK                         _______ _______ _______ _____ _____    ______ ____
ROOT
ATOM      1  C   UNL     1       2.359   4.754  20.204  0.00  0.00    +0.000 A 
ATOM      2  N   UNL     1       1.532   3.947  19.563  0.00  0.00    +0.000 NA
ATOM      3  C   UNL     1       1.469   4.223  18.262  0.00  0.00    +0.000 A 
ATOM      4  N   UNL     1       1.998   5.318  17.691  0.00  0.00    +0.000 NA
ATOM      5  C   UNL     1       2.284   6.312  18.497  0.00  0.00    +0.000 A 
ATOM      6  C   UNL     1       2.336   7.554  17.861  0.00  0.00    +0.000 A 
ATOM      7  C   UNL     1       1.966   8.757  18.459  0.00  0.00    +0.000 A 
ATOM      8  C   UNL     1       1.458   8.755  19.751  0.00  0.00    +0.000 A 
ATOM      9  C   UNL     1       1.713   7.529  20.491  0.00  0.00    +0.000 A 
ATOM     10  C   UNL     1       2.259   6.214  19.871  0.00  0.00    +0.000 A 
ENDROOT
BRANCH   8  11
ATOM     11  C   UNL     1       0.560   9.938  20.050  0.00  0.00    +0.000 A 
ATOM     12  C   UNL     1       0.718  10.943  21.102  0.00  0.00    +0.000 A 
ATOM     13  C   UNL     1      -0.131  11.992  20.850  0.00  0.00    +0.000 A 
ATOM     14  O   UNL     1      -0.866  11.704  19.749  0.00  0.00    +0.000 OA
ATOM     15  C   UNL     1      -0.452  10.484  19.275  0.00  0.00    +0.000 A 
ENDBRANCH   8  11
BRANCH   1  16
ATOM     16  N   UNL     1       3.596   4.040  20.453  0.00  0.00    +0.000 N 
ATOM     17  H   UNL     1       3.336   3.299  21.100  0.00  0.00    +0.000 HD
BRANCH  16  18
ATOM     18  C   UNL     1       4.372   3.255  19.292  0.00  0.00    +0.000 C 
BRANCH  18  22
ATOM     19  C   UNL     1       6.797   5.097  15.928  0.00  0.00    +0.000 A 
ATOM     20  C   UNL     1       5.716   4.243  15.694  0.00  0.00    +0.000 A 
ATOM     21  C   UNL     1       4.958   3.634  16.743  0.00  0.00    +0.000 A 
ATOM     22  C   UNL     1       5.217   3.885  18.099  0.00  0.00    +0.000 A 
ATOM     23  C   UNL     1       6.332   4.790  18.325  0.00  0.00    +0.000 A 
ATOM     24  C   UNL     1       7.115   5.344  17.253  0.00  0.00    +0.000 A 
BRANCH  19  26
ATOM     25  C   UNL     1       7.358   4.918  13.563  0.00  0.00    +0.000 C 
ATOM     26  O   UNL     1       7.414   5.607  14.820  0.00  0.00    +0.000 OA
ENDBRANCH  19  26
BRANCH  23  27
ATOM     27  O   UNL     1       6.660   5.113  19.633  0.00  0.00    +0.000 OA
ATOM     28  C   UNL     1       7.989   5.630  19.842  0.00  0.00    +0.000 C 
ENDBRANCH  23  27
ENDBRANCH  18  22
ENDBRANCH  16  18
ENDBRANCH   1  16
TORSDOF 6
ENDMDL
MODEL 8
REMARK VINA RESULT:      -7.5      1.749      8.455
REMARK  Name = 
REMARK  8 active torsions:
REMARK  status: ('A' for Active; 'I' for Inactive)
REMARK    1  A    between atoms: C_1  and  O_2
REMARK    2  A    between atoms: O_2  and  C_3
REMARK    3  A    between atoms: C_6  and  C_7
REMARK    4  A    between atoms: C_7  and  N_8
REMARK    5  A    between atoms: N_8  and  C_9
REMARK    6  A    between atoms: C_16  and  C_17
REMARK    7  A    between atoms: C_24  and  O_25
REMARK    8  A    between atoms: O_25  and  C_26
REMARK                            x       y       z     vdW  Elec       q    Type
REMARK                         _______ _______ _______ _____ _____    ______ ____
ROOT
ATOM      1  C   UNL     1       2.890   4.376  18.622  0.00  0.00    +0.000 A 
ATOM      2  N   UNL     1       2.850   3.185  19.193  0.00  0.00    +0.000 NA
ATOM      3  C   UNL     1       4.012   2.860  19.757  0.00  0.00    +0.000 A 
ATOM      4  N   UNL     1       5.157   3.544  19.589  0.00  0.00    +0.000 NA
ATOM      5  C   UNL     1       5.201   4.355  18.560  0.00  0.00    +0.000 A 
ATOM      6  C   UNL     1       6.497   4.640  18.125  0.00  0.00    +0.000 A 
ATOM      7  C   UNL     1       6.844   4.872  16.796  0.00  0.00    +0.000 A 
ATOM      8  C   UNL     1       5.877   4.771  15.804  0.00  0.00    +0.000 A 
ATOM      9  C   UNL     1       4.510   4.797  16.300  0.00  0.00    +0.000 A 
ATOM     10  C   UNL     1       4.104   4.680  17.793  0.00  0.00    +0.000 A 
ENDROOT
BRANCH   8  11
ATOM     11  C   UNL     1       6.443   4.437  14.438  0.00  0.00    +0.000 A 
ATOM     12  C   UNL     1       5.884   3.538  13.429  0.00  0.00    +0.000 A 
ATOM     13  C   UNL     1       6.538   3.739  12.239  0.00  0.00    +0.000 A 
ATOM     14  O   UNL     1       7.516   4.656  12.428  0.00  0.00    +0.000 OA
ATOM     15  C   UNL     1       7.457   5.071  13.735  0.00  0.00    +0.000 A 
ENDBRANCH   8  11
BRANCH   1  16
ATOM     16  N   UNL     1       2.216   5.322  19.490  0.00  0.00    +0.000 N 
ATOM     17  H   UNL     1       2.598   5.135  20.414  0.00  0.00    +0.000 HD
BRANCH  16  18
ATOM     18  C   UNL     1       2.405   6.905  19.330  0.00  0.00    +0.000 C 
BRANCH  18  22
ATOM     19  C   UNL     1       0.468  10.211  21.761  0.00  0.00    +0.000 A 
ATOM     20  C   UNL     1       1.023   9.072  22.350  0.00  0.00    +0.000 A 
ATOM     21  C   UNL     1       1.613   8.010  21.596  0.00  0.00    +0.000 A 
ATOM     22  C   UNL     1       1.721   8.051  20.199  0.00  0.00    +0.000 A 
ATOM     23  C   UNL     1       1.157   9.251  19.603  0.00  0.00    +0.000 A 
ATOM     24  C   UNL     1       0.516  10.278  20.379  0.00  0.00    +0.000 A 
BRANCH  19  26
ATOM     25  C   UNL     1      -1.387  11.015  23.121  0.00  0.00    +0.000 C 
ATOM     26  O   UNL     1      -0.050  11.142  22.617  0.00  0.00    +0.000 OA
ENDBRANCH  19  26
BRANCH  23  27
ATOM     27  O   UNL     1       1.227   9.394  18.225  0.00  0.00    +0.000 OA
ATOM     28  C   UNL     1       2.227  10.309  17.734  0.00  0.00    +0.000 C 
ENDBRANCH  23  27
ENDBRANCH  18  22
ENDBRANCH  16  18
ENDBRANCH   1  16
TORSDOF 6
ENDMDL
MODEL 9
REMARK VINA RESULT:      -7.4      2.010      9.106
REMARK  Name = 
REMARK  8 active torsions:
REMARK  status: ('A' for Active; 'I' for Inactive)
REMARK    1  A    between atoms: C_1  and  O_2
REMARK    2  A    between atoms: O_2  and  C_3
REMARK    3  A    between atoms: C_6  and  C_7
REMARK    4  A    between atoms: C_7  and  N_8
REMARK    5  A    between atoms: N_8  and  C_9
REMARK    6  A    between atoms: C_16  and  C_17
REMARK    7  A    between atoms: C_24  and  O_25
REMARK    8  A    between atoms: O_25  and  C_26
REMARK                            x       y       z     vdW  Elec       q    Type
REMARK                         _______ _______ _______ _____ _____    ______ ____
ROOT
ATOM      1  C   UNL     1       3.027   6.284  18.174  0.00  0.00    +0.000 A 
ATOM      2  N   UNL     1       2.232   5.292  18.533  0.00  0.00    +0.000 NA
ATOM      3  C   UNL     1       2.899   4.302  19.121  0.00  0.00    +0.000 A 
ATOM      4  N   UNL     1       4.239   4.204  19.157  0.00  0.00    +0.000 NA
ATOM      5  C   UNL     1       4.897   4.929  18.284  0.00  0.00    +0.000 A 
ATOM      6  C   UNL     1       6.176   4.446  18.002  0.00  0.00    +0.000 A 
ATOM      7  C   UNL     1       6.798   4.555  16.760  0.00  0.00    +0.000 A 
ATOM      8  C   UNL     1       6.115   5.127  15.696  0.00  0.00    +0.000 A 
ATOM      9  C   UNL     1       4.944   5.898  16.084  0.00  0.00    +0.000 A 
ATOM     10  C   UNL     1       4.312   5.901  17.502  0.00  0.00    +0.000 A 
ENDROOT
BRANCH   8  11
ATOM     11  C   UNL     1       6.602   4.655  14.340  0.00  0.00    +0.000 A 
ATOM     12  C   UNL     1       5.979   3.670  13.455  0.00  0.00    +0.000 A 
ATOM     13  C   UNL     1       6.568   3.746  12.217  0.00  0.00    +0.000 A 
ATOM     14  O   UNL     1       7.564   4.663  12.262  0.00  0.00    +0.000 OA
ATOM     15  C   UNL     1       7.580   5.202  13.525  0.00  0.00    +0.000 A 
ENDBRANCH   8  11
BRANCH   1  16
ATOM     16  N   UNL     1       2.878   7.360  19.135  0.00  0.00    +0.000 N 
ATOM     17  H   UNL     1       3.742   7.893  19.055  0.00  0.00    +0.000 HD
BRANCH  16  18
ATOM     18  C   UNL     1       1.743   8.481  18.986  0.00  0.00    +0.000 C 
BRANCH  18  22
ATOM     19  C   UNL     1      -0.523  10.596  22.300  0.00  0.00    +0.000 A 
ATOM     20  C   UNL     1      -0.019   9.301  22.443  0.00  0.00    +0.000 A 
ATOM     21  C   UNL     1       0.675   8.612  21.399  0.00  0.00    +0.000 A 
ATOM     22  C   UNL     1       0.942   9.205  20.157  0.00  0.00    +0.000 A 
ATOM     23  C   UNL     1       0.428  10.558  20.031  0.00  0.00    +0.000 A 
ATOM     24  C   UNL     1      -0.317  11.209  21.075  0.00  0.00    +0.000 A 
BRANCH  19  26
ATOM     25  C   UNL     1      -2.355  11.894  23.248  0.00  0.00    +0.000 C 
ATOM     26  O   UNL     1      -1.154  11.123  23.393  0.00  0.00    +0.000 OA
ENDBRANCH  19  26
BRANCH  23  27
ATOM     27  O   UNL     1       0.653  11.237  18.842  0.00  0.00    +0.000 OA
ATOM     28  C   UNL     1      -0.315  12.248  18.499  0.00  0.00    +0.000 C 
ENDBRANCH  23  27
ENDBRANCH  18  22
ENDBRANCH  16  18
ENDBRANCH   1  16
TORSDOF 6
ENDMDL
