MODEL 1
REMARK VINA RESULT:      -8.6      0.000      0.000
REMARK  Name = 
REMARK  7 active torsions:
REMARK  status: ('A' for Active; 'I' for Inactive)
REMARK    1  A    between atoms: C_1  and  C_2
REMARK    2  A    between atoms: N_9  and  C_10
REMARK    3  A    between atoms: C_10  and  C_11
REMARK    4  A    between atoms: C_11  and  O_12
REMARK    5  A    between atoms: C_11  and  C_13
REMARK    6  A    between atoms: C_11  and  C_19
REMARK    7  A    between atoms: C_13  and  N_14
REMARK                            x       y       z     vdW  Elec       q    Type
REMARK                         _______ _______ _______ _____ _____    ______ ____
ROOT
ATOM      1  C   UNL     1       3.942   4.511  18.349  0.00  0.00    +0.000 C 
ENDROOT
BRANCH   1   2
ATOM      2  C   UNL     1       5.007   4.633  17.242  0.00  0.00    +0.000 A 
ATOM      3  C   UNL     1       4.607   4.750  15.892  0.00  0.00    +0.000 A 
ATOM      4  C   UNL     1       5.544   4.896  14.863  0.00  0.00    +0.000 A 
ATOM      5  C   UNL     1       6.899   4.893  15.163  0.00  0.00    +0.000 A 
ATOM      6  F   UNL     1       7.796   5.019  14.177  0.00  0.00    +0.000 F 
ATOM      7  C   UNL     1       7.332   4.764  16.468  0.00  0.00    +0.000 A 
ATOM      8  C   UNL     1       6.392   4.650  17.490  0.00  0.00    +0.000 A 
ATOM      9  F   UNL     1       6.877   4.569  18.736  0.00  0.00    +0.000 F 
ENDBRANCH   1   2
BRANCH   1  10
ATOM     10  O   UNL     1       4.489   5.255  19.471  0.00  0.00    +0.000 OA
ATOM     11  H   UNL     1       5.053   5.954  19.089  0.00  0.00    +0.000 HD
ENDBRANCH   1  10
BRANCH   1  12
ATOM     12  C   UNL     1       2.580   5.172  17.979  0.00  0.00    +0.000 C 
BRANCH  12  21
ATOM     13  C   UNL     1      -1.524  11.223  23.050  0.00  0.00    +0.000 C 
ATOM     14  C   UNL     1      -0.514  10.542  22.183  0.00  0.00    +0.000 A 
ATOM     15  C   UNL     1       0.085  11.177  21.101  0.00  0.00    +0.000 A 
ATOM     16  C   UNL     1       0.960  10.468  20.277  0.00  0.00    +0.000 A 
ATOM     17  C   UNL     1       1.207   9.120  20.536  0.00  0.00    +0.000 A 
ATOM     18  N   UNL     1       1.874   8.317  19.600  0.00  0.00    +0.000 N 
ATOM     19  C   UNL     1       2.283   8.643  18.360  0.00  0.00    +0.000 A 
ATOM     20  N   UNL     1       2.607   7.647  17.591  0.00  0.00    +0.000 NA
ATOM     21  N   UNL     1       2.393   6.552  18.380  0.00  0.00    +0.000 N 
ATOM     22  C   UNL     1       2.014   6.947  19.683  0.00  0.00    +0.000 A 
ATOM     23  O   UNL     1       1.857   6.183  20.622  0.00  0.00    +0.000 OA
ATOM     24  N   UNL     1       0.680   8.524  21.625  0.00  0.00    +0.000 NA
ATOM     25  C   UNL     1      -0.158   9.224  22.415  0.00  0.00    +0.000 A 
ENDBRANCH  12  21
ENDBRANCH   1  12
BRANCH   1  26
ATOM     26  C   UNL     1       3.786   3.043  18.825  0.00  0.00    +0.000 C 
BRANCH  26  27
ATOM     27  N   UNL     1       2.892   2.859  19.938  0.00  0.00    +0.000 N 
ATOM     28  C   UNL     1       1.542   2.692  19.913  0.00  0.00    +0.000 A 
ATOM     29  N   UNL     1       1.093   2.594  21.145  0.00  0.00    +0.000 NA
ATOM     30  C   UNL     1       2.224   2.738  21.896  0.00  0.00    +0.000 A 
ATOM     31  N   UNL     1       3.345   2.919  21.205  0.00  0.00    +0.000 NA
ENDBRANCH  26  27
ENDBRANCH   1  26
TORSDOF 6
ENDMDL
MODEL 2
REMARK VINA RESULT:      -8.4      1.761      2.256
REMARK  Name = 
REMARK  7 active torsions:
REMARK  status: ('A' for Active; 'I' for Inactive)
REMARK    1  A    between atoms: C_1  and  C_2
REMARK    2  A    between atoms: N_9  and  C_10
REMARK    3  A    between atoms: C_10  and  C_11
REMARK    4  A    between atoms: C_11  and  O_12
REMARK    5  A    between atoms: C_11  and  C_13
REMARK    6  A    between atoms: C_11  and  C_19
REMARK    7  A    between atoms: C_13  and  N_14
REMARK                            x       y       z     vdW  Elec       q    Type
REMARK                         _______ _______ _______ _____ _____    ______ ____
ROOT
ATOM      1  C   UNL     1       3.400   5.967  18.363  0.00  0.00    +0.000 C 
ENDROOT
BRANCH   1   2
ATOM      2  C   UNL     1       4.535   5.561  17.403  0.00  0.00    +0.000 A 
ATOM      3  C   UNL     1       4.451   4.345  16.689  0.00  0.00    +0.000 A 
ATOM      4  C   UNL     1       5.445   3.960  15.784  0.00  0.00    +0.000 A 
ATOM      5  C   UNL     1       6.559   4.768  15.602  0.00  0.00    +0.000 A 
ATOM      6  F   UNL     1       7.518   4.392  14.745  0.00  0.00    +0.000 F 
ATOM      7  C   UNL     1       6.688   5.956  16.293  0.00  0.00    +0.000 A 
ATOM      8  C   UNL     1       5.678   6.348  17.169  0.00  0.00    +0.000 A 
ATOM      9  F   UNL     1       5.846   7.530  17.777  0.00  0.00    +0.000 F 
ENDBRANCH   1   2
BRANCH   1  10
ATOM     10  O   UNL     1       3.987   5.874  19.689  0.00  0.00    +0.000 OA
ATOM     11  H   UNL     1       4.865   6.296  19.632  0.00  0.00    +0.000 HD
ENDBRANCH   1  10
BRANCH   1  12
ATOM     12  C   UNL     1       2.921   7.438  18.174  0.00  0.00    +0.000 C 
BRANCH  12  21
ATOM     13  C   UNL     1      -1.219  14.411  21.836  0.00  0.00    +0.000 C 
ATOM     14  C   UNL     1      -0.853  13.012  21.457  0.00  0.00    +0.000 A 
ATOM     15  C   UNL     1      -0.755  11.990  22.395  0.00  0.00    +0.000 A 
ATOM     16  C   UNL     1      -0.329  10.721  21.997  0.00  0.00    +0.000 A 
ATOM     17  C   UNL     1       0.015  10.499  20.664  0.00  0.00    +0.000 A 
ATOM     18  N   UNL     1       0.676   9.325  20.276  0.00  0.00    +0.000 N 
ATOM     19  C   UNL     1       1.136   8.329  21.056  0.00  0.00    +0.000 A 
ATOM     20  N   UNL     1       1.966   7.505  20.490  0.00  0.00    +0.000 NA
ATOM     21  N   UNL     1       2.079   7.989  19.218  0.00  0.00    +0.000 N 
ATOM     22  C   UNL     1       1.209   9.087  19.027  0.00  0.00    +0.000 A 
ATOM     23  O   UNL     1       1.029   9.652  17.959  0.00  0.00    +0.000 OA
ATOM     24  N   UNL     1      -0.147  11.471  19.743  0.00  0.00    +0.000 NA
ATOM     25  C   UNL     1      -0.565  12.690  20.141  0.00  0.00    +0.000 A 
ENDBRANCH  12  21
ENDBRANCH   1  12
BRANCH   1  26
ATOM     26  C   UNL     1       2.234   4.947  18.323  0.00  0.00    +0.000 C 
BRANCH  26  27
ATOM     27  N   UNL     1       2.113   4.117  19.493  0.00  0.00    +0.000 N 
ATOM     28  C   UNL     1       1.136   4.134  20.439  0.00  0.00    +0.000 A 
ATOM     29  N   UNL     1       1.412   3.243  21.366  0.00  0.00    +0.000 NA
ATOM     30  C   UNL     1       2.602   2.722  20.945  0.00  0.00    +0.000 A 
ATOM     31  N   UNL     1       3.079   3.235  19.815  0.00  0.00    +0.000 NA
ENDBRANCH  26  27
ENDBRANCH   1  26
TORSDOF 6
ENDMDL
MODEL 3
REMARK VINA RESULT:      -8.3      1.659      2.224
REMARK  Name = 
REMARK  7 active torsions:
REMARK  status: ('A' for Active; 'I' for Inactive)
REMARK    1  A    between atoms: C_1  and  C_2
REMARK    2  A    between atoms: N_9  and  C_10
REMARK    3  A    between atoms: C_10  and  C_11
REMARK    4  A    between atoms: C_11  and  O_12
REMARK    5  A    between atoms: C_11  and  C_13
REMARK    6  A    between atoms: C_11  and  C_19
REMARK    7  A    between atoms: C_13  and  N_14
REMARK                            x       y       z     vdW  Elec       q    Type
REMARK                         _______ _______ _______ _____ _____    ______ ____
ROOT
ATOM      1  C   UNL     1       3.274   5.825  18.146  0.00  0.00    +0.000 C 
ENDROOT
BRANCH   1   2
ATOM      2  C   UNL     1       4.351   5.483  17.099  0.00  0.00    +0.000 A 
ATOM      3  C   UNL     1       4.796   6.477  16.198  0.00  0.00    +0.000 A 
ATOM      4  C   UNL     1       5.796   6.212  15.256  0.00  0.00    +0.000 A 
ATOM      5  C   UNL     1       6.346   4.941  15.176  0.00  0.00    +0.000 A 
ATOM      6  F   UNL     1       7.294   4.685  14.266  0.00  0.00    +0.000 F 
ATOM      7  C   UNL     1       5.928   3.937  16.027  0.00  0.00    +0.000 A 
ATOM      8  C   UNL     1       4.953   4.216  16.983  0.00  0.00    +0.000 A 
ATOM      9  F   UNL     1       4.622   3.211  17.804  0.00  0.00    +0.000 F 
ENDBRANCH   1   2
BRANCH   1  10
ATOM     10  O   UNL     1       3.799   5.310  19.399  0.00  0.00    +0.000 OA
ATOM     11  H   UNL     1       4.704   4.997  19.210  0.00  0.00    +0.000 HD
ENDBRANCH   1  10
BRANCH   1  12
ATOM     12  C   UNL     1       3.051   7.356  18.334  0.00  0.00    +0.000 C 
BRANCH  12  21
ATOM     13  C   UNL     1      -1.281  13.770  22.724  0.00  0.00    +0.000 C 
ATOM     14  C   UNL     1      -0.899  12.438  22.163  0.00  0.00    +0.000 A 
ATOM     15  C   UNL     1      -0.873  11.285  22.940  0.00  0.00    +0.000 A 
ATOM     16  C   UNL     1      -0.430  10.083  22.384  0.00  0.00    +0.000 A 
ATOM     17  C   UNL     1       0.003  10.058  21.059  0.00  0.00    +0.000 A 
ATOM     18  N   UNL     1       0.681   8.944  20.543  0.00  0.00    +0.000 N 
ATOM     19  C   UNL     1       1.080   7.834  21.192  0.00  0.00    +0.000 A 
ATOM     20  N   UNL     1       1.940   7.091  20.565  0.00  0.00    +0.000 NA
ATOM     21  N   UNL     1       2.144   7.759  19.391  0.00  0.00    +0.000 N 
ATOM     22  C   UNL     1       1.297   8.887  19.310  0.00  0.00    +0.000 A 
ATOM     23  O   UNL     1       1.194   9.610  18.331  0.00  0.00    +0.000 OA
ATOM     24  N   UNL     1      -0.088  11.160  20.287  0.00  0.00    +0.000 NA
ATOM     25  C   UNL     1      -0.524  12.312  20.836  0.00  0.00    +0.000 A 
ENDBRANCH  12  21
ENDBRANCH   1  12
BRANCH   1  26
ATOM     26  C   UNL     1       1.955   5.058  17.870  0.00  0.00    +0.000 C 
BRANCH  26  27
ATOM     27  N   UNL     1       1.718   3.930  18.734  0.00  0.00    +0.000 N 
ATOM     28  C   UNL     1       1.803   2.607  18.432  0.00  0.00    +0.000 A 
ATOM     29  N   UNL     1       1.474   1.898  19.488  0.00  0.00    +0.000 NA
ATOM     30  C   UNL     1       1.163   2.852  20.415  0.00  0.00    +0.000 A 
ATOM     31  N   UNL     1       1.281   4.108  19.996  0.00  0.00    +0.000 NA
ENDBRANCH  26  27
ENDBRANCH   1  26
TORSDOF 6
ENDMDL
MODEL 4
REMARK VINA RESULT:      -8.3      1.800      2.409
REMARK  Name = 
REMARK  7 active torsions:
REMARK  status: ('A' for Active; 'I' for Inactive)
REMARK    1  A    between atoms: C_1  and  C_2
REMARK    2  A    between atoms: N_9  and  C_10
REMARK    3  A    between atoms: C_10  and  C_11
REMARK    4  A    between atoms: C_11  and  O_12
REMARK    5  A    between atoms: C_11  and  C_13
REMARK    6  A    between atoms: C_11  and  C_19
REMARK    7  A    between atoms: C_13  and  N_14
REMARK                            x       y       z     vdW  Elec       q    Type
REMARK                         _______ _______ _______ _____ _____    ______ ____
ROOT
ATOM      1  C   UNL     1       3.323   5.937  18.604  0.00  0.00    +0.000 C 
ENDROOT
BRANCH   1   2
ATOM      2  C   UNL     1       4.441   5.538  17.621  0.00  0.00    +0.000 A 
ATOM      3  C   UNL     1       5.636   6.290  17.572  0.00  0.00    +0.000 A 
ATOM      4  C   UNL     1       6.685   5.939  16.716  0.00  0.00    +0.000 A 
ATOM      5  C   UNL     1       6.546   4.848  15.870  0.00  0.00    +0.000 A 
ATOM      6  F   UNL     1       7.545   4.519  15.042  0.00  0.00    +0.000 F 
ATOM      7  C   UNL     1       5.387   4.096  15.875  0.00  0.00    +0.000 A 
ATOM      8  C   UNL     1       4.359   4.434  16.752  0.00  0.00    +0.000 A 
ATOM      9  F   UNL     1       3.280   3.640  16.735  0.00  0.00    +0.000 F 
ENDBRANCH   1   2
BRANCH   1  10
ATOM     10  O   UNL     1       3.955   5.912  19.912  0.00  0.00    +0.000 OA
ATOM     11  H   UNL     1       4.918   5.918  19.753  0.00  0.00    +0.000 HD
ENDBRANCH   1  10
BRANCH   1  12
ATOM     12  C   UNL     1       2.784   7.382  18.381  0.00  0.00    +0.000 C 
BRANCH  12  21
ATOM     13  C   UNL     1      -1.180  14.380  22.186  0.00  0.00    +0.000 C 
ATOM     14  C   UNL     1      -0.860  12.983  21.763  0.00  0.00    +0.000 A 
ATOM     15  C   UNL     1      -0.836  11.922  22.662  0.00  0.00    +0.000 A 
ATOM     16  C   UNL     1      -0.450  10.652  22.227  0.00  0.00    +0.000 A 
ATOM     17  C   UNL     1      -0.073  10.467  20.898  0.00  0.00    +0.000 A 
ATOM     18  N   UNL     1       0.551   9.281  20.485  0.00  0.00    +0.000 N 
ATOM     19  C   UNL     1       0.944   8.237  21.238  0.00  0.00    +0.000 A 
ATOM     20  N   UNL     1       1.757   7.401  20.666  0.00  0.00    +0.000 NA
ATOM     21  N   UNL     1       1.932   7.928  19.418  0.00  0.00    +0.000 N 
ATOM     22  C   UNL     1       1.115   9.069  19.244  0.00  0.00    +0.000 A 
ATOM     23  O   UNL     1       0.994   9.682  18.195  0.00  0.00    +0.000 OA
ATOM     24  N   UNL     1      -0.163  11.480  20.012  0.00  0.00    +0.000 NA
ATOM     25  C   UNL     1      -0.543  12.699  20.445  0.00  0.00    +0.000 A 
ENDBRANCH  12  21
ENDBRANCH   1  12
BRANCH   1  26
ATOM     26  C   UNL     1       2.194   4.875  18.637  0.00  0.00    +0.000 C 
BRANCH  26  27
ATOM     27  N   UNL     1       2.209   4.010  19.788  0.00  0.00    +0.000 N 
ATOM     28  C   UNL     1       1.304   3.943  20.801  0.00  0.00    +0.000 A 
ATOM     29  N   UNL     1       1.700   3.048  21.679  0.00  0.00    +0.000 NA
ATOM     30  C   UNL     1       2.885   2.611  21.159  0.00  0.00    +0.000 A 
ATOM     31  N   UNL     1       3.246   3.181  20.014  0.00  0.00    +0.000 NA
ENDBRANCH  26  27
ENDBRANCH   1  26
TORSDOF 6
ENDMDL
MODEL 5
REMARK VINA RESULT:      -8.2      1.175      1.458
REMARK  Name = 
REMARK  7 active torsions:
REMARK  status: ('A' for Active; 'I' for Inactive)
REMARK    1  A    between atoms: C_1  and  C_2
REMARK    2  A    between atoms: N_9  and  C_10
REMARK    3  A    between atoms: C_10  and  C_11
REMARK    4  A    between atoms: C_11  and  O_12
REMARK    5  A    between atoms: C_11  and  C_13
REMARK    6  A    between atoms: C_11  and  C_19
REMARK    7  A    between atoms: C_13  and  N_14
REMARK                            x       y       z     vdW  Elec       q    Type
REMARK                         _______ _______ _______ _____ _____    ______ ____
ROOT
ATOM      1  C   UNL     1       3.870   5.072  18.635  0.00  0.00    +0.000 C 
ENDROOT
BRANCH   1   2
ATOM      2  C   UNL     1       4.896   5.079  17.486  0.00  0.00    +0.000 A 
ATOM      3  C   UNL     1       6.059   5.875  17.586  0.00  0.00    +0.000 A 
ATOM      4  C   UNL     1       7.028   5.882  16.578  0.00  0.00    +0.000 A 
ATOM      5  C   UNL     1       6.837   5.117  15.436  0.00  0.00    +0.000 A 
ATOM      6  F   UNL     1       7.759   5.133  14.465  0.00  0.00    +0.000 F 
ATOM      7  C   UNL     1       5.707   4.337  15.291  0.00  0.00    +0.000 A 
ATOM      8  C   UNL     1       4.760   4.312  16.313  0.00  0.00    +0.000 A 
ATOM      9  F   UNL     1       3.708   3.505  16.128  0.00  0.00    +0.000 F 
ENDBRANCH   1   2
BRANCH   1  10
ATOM     10  O   UNL     1       4.437   5.950  19.643  0.00  0.00    +0.000 OA
ATOM     11  H   UNL     1       4.950   6.627  19.161  0.00  0.00    +0.000 HD
ENDBRANCH   1  10
BRANCH   1  12
ATOM     12  C   UNL     1       2.484   5.663  18.236  0.00  0.00    +0.000 C 
BRANCH  12  21
ATOM     13  C   UNL     1      -1.895  11.596  23.214  0.00  0.00    +0.000 C 
ATOM     14  C   UNL     1      -0.857  10.951  22.355  0.00  0.00    +0.000 A 
ATOM     15  C   UNL     1      -0.297  11.595  21.256  0.00  0.00    +0.000 A 
ATOM     16  C   UNL     1       0.608  10.914  20.440  0.00  0.00    +0.000 A 
ATOM     17  C   UNL     1       0.926   9.586  20.724  0.00  0.00    +0.000 A 
ATOM     18  N   UNL     1       1.628   8.800  19.800  0.00  0.00    +0.000 N 
ATOM     19  C   UNL     1       2.013   9.121  18.551  0.00  0.00    +0.000 A 
ATOM     20  N   UNL     1       2.382   8.129  17.800  0.00  0.00    +0.000 NA
ATOM     21  N   UNL     1       2.229   7.040  18.611  0.00  0.00    +0.000 N 
ATOM     22  C   UNL     1       1.838   7.441  19.909  0.00  0.00    +0.000 A 
ATOM     23  O   UNL     1       1.725   6.688  20.863  0.00  0.00    +0.000 OA
ATOM     24  N   UNL     1       0.436   8.986  21.828  0.00  0.00    +0.000 NA
ATOM     25  C   UNL     1      -0.433   9.658  22.610  0.00  0.00    +0.000 A 
ENDBRANCH  12  21
ENDBRANCH   1  12
BRANCH   1  26
ATOM     26  C   UNL     1       3.757   3.668  19.284  0.00  0.00    +0.000 C 
BRANCH  26  27
ATOM     27  N   UNL     1       2.419   3.142  19.362  0.00  0.00    +0.000 N 
ATOM     28  C   UNL     1       1.729   2.452  18.415  0.00  0.00    +0.000 A 
ATOM     29  N   UNL     1       0.524   2.183  18.863  0.00  0.00    +0.000 NA
ATOM     30  C   UNL     1       0.519   2.765  20.099  0.00  0.00    +0.000 A 
ATOM     31  N   UNL     1       1.648   3.378  20.442  0.00  0.00    +0.000 NA
ENDBRANCH  26  27
ENDBRANCH   1  26
TORSDOF 6
ENDMDL
MODEL 6
REMARK VINA RESULT:      -8.1      2.091      2.920
REMARK  Name = 
REMARK  7 active torsions:
REMARK  status: ('A' for Active; 'I' for Inactive)
REMARK    1  A    between atoms: C_1  and  C_2
REMARK    2  A    between atoms: N_9  and  C_10
REMARK    3  A    between atoms: C_10  and  C_11
REMARK    4  A    between atoms: C_11  and  O_12
REMARK    5  A    between atoms: C_11  and  C_13
REMARK    6  A    between atoms: C_11  and  C_19
REMARK    7  A    between atoms: C_13  and  N_14
REMARK                            x       y       z     vdW  Elec       q    Type
REMARK                         _______ _______ _______ _____ _____    ______ ____
ROOT
ATOM      1  C   UNL     1       3.148   5.694  18.876  0.00  0.00    +0.000 C 
ENDROOT
BRANCH   1   2
ATOM      2  C   UNL     1       4.566   5.286  18.429  0.00  0.00    +0.000 A 
ATOM      3  C   UNL     1       5.670   5.542  19.272  0.00  0.00    +0.000 A 
ATOM      4  C   UNL     1       6.966   5.156  18.915  0.00  0.00    +0.000 A 
ATOM      5  C   UNL     1       7.186   4.538  17.692  0.00  0.00    +0.000 A 
ATOM      6  F   UNL     1       8.429   4.180  17.344  0.00  0.00    +0.000 F 
ATOM      7  C   UNL     1       6.136   4.285  16.831  0.00  0.00    +0.000 A 
ATOM      8  C   UNL     1       4.844   4.644  17.208  0.00  0.00    +0.000 A 
ATOM      9  F   UNL     1       3.867   4.334  16.346  0.00  0.00    +0.000 F 
ENDBRANCH   1   2
BRANCH   1  10
ATOM     10  O   UNL     1       3.288   6.035  20.281  0.00  0.00    +0.000 OA
ATOM     11  H   UNL     1       3.869   6.818  20.318  0.00  0.00    +0.000 HD
ENDBRANCH   1  10
BRANCH   1  12
ATOM     12  C   UNL     1       2.605   6.960  18.147  0.00  0.00    +0.000 C 
BRANCH  12  21
ATOM     13  C   UNL     1       1.252  15.489  20.288  0.00  0.00    +0.000 C 
ATOM     14  C   UNL     1       1.063  14.015  20.130  0.00  0.00    +0.000 A 
ATOM     15  C   UNL     1       0.639  13.204  21.177  0.00  0.00    +0.000 A 
ATOM     16  C   UNL     1       0.558  11.822  20.996  0.00  0.00    +0.000 A 
ATOM     17  C   UNL     1       0.926  11.268  19.771  0.00  0.00    +0.000 A 
ATOM     18  N   UNL     1       1.096   9.883  19.629  0.00  0.00    +0.000 N 
ATOM     19  C   UNL     1       1.029   8.931  20.578  0.00  0.00    +0.000 A 
ATOM     20  N   UNL     1       1.513   7.771  20.252  0.00  0.00    +0.000 NA
ATOM     21  N   UNL     1       1.949   7.956  18.970  0.00  0.00    +0.000 N 
ATOM     22  C   UNL     1       1.621   9.255  18.519  0.00  0.00    +0.000 A 
ATOM     23  O   UNL     1       1.801   9.661  17.381  0.00  0.00    +0.000 OA
ATOM     24  N   UNL     1       1.271  12.060  18.736  0.00  0.00    +0.000 NA
ATOM     25  C   UNL     1       1.338  13.394  18.924  0.00  0.00    +0.000 A 
ENDBRANCH  12  21
ENDBRANCH   1  12
BRANCH   1  26
ATOM     26  C   UNL     1       2.167   4.496  18.806  0.00  0.00    +0.000 C 
BRANCH  26  27
ATOM     27  N   UNL     1       2.128   3.675  19.989  0.00  0.00    +0.000 N 
ATOM     28  C   UNL     1       1.105   3.520  20.872  0.00  0.00    +0.000 A 
ATOM     29  N   UNL     1       1.482   2.711  21.837  0.00  0.00    +0.000 NA
ATOM     30  C   UNL     1       2.774   2.418  21.504  0.00  0.00    +0.000 A 
ATOM     31  N   UNL     1       3.219   2.996  20.393  0.00  0.00    +0.000 NA
ENDBRANCH  26  27
ENDBRANCH   1  26
TORSDOF 6
ENDMDL
MODEL 7
REMARK VINA RESULT:      -8.1      1.359      1.559
REMARK  Name = 
REMARK  7 active torsions:
REMARK  status: ('A' for Active; 'I' for Inactive)
REMARK    1  A    between atoms: C_1  and  C_2
REMARK    2  A    between atoms: N_9  and  C_10
REMARK    3  A    between atoms: C_10  and  C_11
REMARK    4  A    between atoms: C_11  and  O_12
REMARK    5  A    between atoms: C_11  and  C_13
REMARK    6  A    between atoms: C_11  and  C_19
REMARK    7  A    between atoms: C_13  and  N_14
REMARK                            x       y       z     vdW  Elec       q    Type
REMARK                         _______ _______ _______ _____ _____    ______ ____
ROOT
ATOM      1  C   UNL     1       3.987   5.462  18.257  0.00  0.00    +0.000 C 
ENDROOT
BRANCH   1   2
ATOM      2  C   UNL     1       4.714   5.060  16.959  0.00  0.00    +0.000 A 
ATOM      3  C   UNL     1       5.091   3.714  16.753  0.00  0.00    +0.000 A 
ATOM      4  C   UNL     1       5.722   3.306  15.573  0.00  0.00    +0.000 A 
ATOM      5  C   UNL     1       6.017   4.242  14.592  0.00  0.00    +0.000 A 
ATOM      6  F   UNL     1       6.633   3.854  13.468  0.00  0.00    +0.000 F 
ATOM      7  C   UNL     1       5.680   5.570  14.762  0.00  0.00    +0.000 A 
ATOM      8  C   UNL     1       5.024   5.964  15.926  0.00  0.00    +0.000 A 
ATOM      9  F   UNL     1       4.689   7.258  16.010  0.00  0.00    +0.000 F 
ENDBRANCH   1   2
BRANCH   1  10
ATOM     10  O   UNL     1       4.731   6.604  18.758  0.00  0.00    +0.000 OA
ATOM     11  H   UNL     1       5.561   6.639  18.246  0.00  0.00    +0.000 HD
ENDBRANCH   1  10
BRANCH   1  12
ATOM     12  C   UNL     1       2.519   5.933  18.029  0.00  0.00    +0.000 C 
BRANCH  12  21
ATOM     13  C   UNL     1      -1.944  11.739  23.082  0.00  0.00    +0.000 C 
ATOM     14  C   UNL     1      -0.911  11.130  22.190  0.00  0.00    +0.000 A 
ATOM     15  C   UNL     1      -0.434  11.778  21.056  0.00  0.00    +0.000 A 
ATOM     16  C   UNL     1       0.470  11.127  20.214  0.00  0.00    +0.000 A 
ATOM     17  C   UNL     1       0.868   9.824  20.509  0.00  0.00    +0.000 A 
ATOM     18  N   UNL     1       1.569   9.055  19.569  0.00  0.00    +0.000 N 
ATOM     19  C   UNL     1       1.883   9.369  18.299  0.00  0.00    +0.000 A 
ATOM     20  N   UNL     1       2.270   8.380  17.551  0.00  0.00    +0.000 NA
ATOM     21  N   UNL     1       2.210   7.303  18.389  0.00  0.00    +0.000 N 
ATOM     22  C   UNL     1       1.854   7.711  19.695  0.00  0.00    +0.000 A 
ATOM     23  O   UNL     1       1.822   6.974  20.668  0.00  0.00    +0.000 OA
ATOM     24  N   UNL     1       0.458   9.223  21.644  0.00  0.00    +0.000 NA
ATOM     25  C   UNL     1      -0.410   9.866  22.451  0.00  0.00    +0.000 A 
ENDBRANCH  12  21
ENDBRANCH   1  12
BRANCH   1  26
ATOM     26  C   UNL     1       4.099   4.353  19.335  0.00  0.00    +0.000 C 
BRANCH  26  27
ATOM     27  N   UNL     1       2.866   3.672  19.635  0.00  0.00    +0.000 N 
ATOM     28  C   UNL     1       2.118   3.748  20.768  0.00  0.00    +0.000 A 
ATOM     29  N   UNL     1       1.084   2.943  20.661  0.00  0.00    +0.000 NA
ATOM     30  C   UNL     1       1.266   2.371  19.434  0.00  0.00    +0.000 A 
ATOM     31  N   UNL     1       2.350   2.771  18.777  0.00  0.00    +0.000 NA
ENDBRANCH  26  27
ENDBRANCH   1  26
TORSDOF 6
ENDMDL
MODEL 8
REMARK VINA RESULT:      -8.0      0.735      1.018
REMARK  Name = 
REMARK  7 active torsions:
REMARK  status: ('A' for Active; 'I' for Inactive)
REMARK    1  A    between atoms: C_1  and  C_2
REMARK    2  A    between atoms: N_9  and  C_10
REMARK    3  A    between atoms: C_10  and  C_11
REMARK    4  A    between atoms: C_11  and  O_12
REMARK    5  A    between atoms: C_11  and  C_13
REMARK    6  A    between atoms: C_11  and  C_19
REMARK    7  A    between atoms: C_13  and  N_14
REMARK                            x       y       z     vdW  Elec       q    Type
REMARK                         _______ _______ _______ _____ _____    ______ ____
ROOT
ATOM      1  C   UNL     1       4.008   5.114  18.616  0.00  0.00    +0.000 C 
ENDROOT
BRANCH   1   2
ATOM      2  C   UNL     1       5.033   4.991  17.472  0.00  0.00    +0.000 A 
ATOM      3  C   UNL     1       4.600   5.074  16.129  0.00  0.00    +0.000 A 
ATOM      4  C   UNL     1       5.506   5.000  15.066  0.00  0.00    +0.000 A 
ATOM      5  C   UNL     1       6.855   4.808  15.324  0.00  0.00    +0.000 A 
ATOM      6  F   UNL     1       7.720   4.724  14.305  0.00  0.00    +0.000 F 
ATOM      7  C   UNL     1       7.317   4.705  16.621  0.00  0.00    +0.000 A 
ATOM      8  C   UNL     1       6.413   4.811  17.677  0.00  0.00    +0.000 A 
ATOM      9  F   UNL     1       6.931   4.744  18.910  0.00  0.00    +0.000 F 
ENDBRANCH   1   2
BRANCH   1  10
ATOM     10  O   UNL     1       4.597   6.070  19.538  0.00  0.00    +0.000 OA
ATOM     11  H   UNL     1       4.231   5.864  20.419  0.00  0.00    +0.000 HD
ENDBRANCH   1  10
BRANCH   1  12
ATOM     12  C   UNL     1       2.635   5.697  18.164  0.00  0.00    +0.000 C 
BRANCH  12  21
ATOM     13  C   UNL     1      -1.896  11.484  23.179  0.00  0.00    +0.000 C 
ATOM     14  C   UNL     1      -0.840  10.870  22.317  0.00  0.00    +0.000 A 
ATOM     15  C   UNL     1      -0.293  11.536  21.225  0.00  0.00    +0.000 A 
ATOM     16  C   UNL     1       0.631  10.884  20.406  0.00  0.00    +0.000 A 
ATOM     17  C   UNL     1       0.978   9.562  20.680  0.00  0.00    +0.000 A 
ATOM     18  N   UNL     1       1.701   8.800  19.751  0.00  0.00    +0.000 N 
ATOM     19  C   UNL     1       2.081   9.140  18.506  0.00  0.00    +0.000 A 
ATOM     20  N   UNL     1       2.476   8.163  17.747  0.00  0.00    +0.000 NA
ATOM     21  N   UNL     1       2.347   7.064  18.549  0.00  0.00    +0.000 N 
ATOM     22  C   UNL     1       1.943   7.445  19.849  0.00  0.00    +0.000 A 
ATOM     23  O   UNL     1       1.845   6.682  20.797  0.00  0.00    +0.000 OA
ATOM     24  N   UNL     1       0.500   8.941  21.777  0.00  0.00    +0.000 NA
ATOM     25  C   UNL     1      -0.387   9.585  22.563  0.00  0.00    +0.000 A 
ENDBRANCH  12  21
ENDBRANCH   1  12
BRANCH   1  26
ATOM     26  C   UNL     1       3.865   3.780  19.393  0.00  0.00    +0.000 C 
BRANCH  26  27
ATOM     27  N   UNL     1       2.540   3.216  19.389  0.00  0.00    +0.000 N 
ATOM     28  C   UNL     1       1.605   3.259  20.376  0.00  0.00    +0.000 A 
ATOM     29  N   UNL     1       0.539   2.592  19.995  0.00  0.00    +0.000 NA
ATOM     30  C   UNL     1       0.892   2.130  18.759  0.00  0.00    +0.000 A 
ATOM     31  N   UNL     1       2.111   2.471  18.353  0.00  0.00    +0.000 NA
ENDBRANCH  26  27
ENDBRANCH   1  26
TORSDOF 6
ENDMDL
MODEL 9
REMARK VINA RESULT:      -8.0      2.007      2.845
REMARK  Name = 
REMARK  7 active torsions:
REMARK  status: ('A' for Active; 'I' for Inactive)
REMARK    1  A    between atoms: C_1  and  C_2
REMARK    2  A    between atoms: N_9  and  C_10
REMARK    3  A    between atoms: C_10  and  C_11
REMARK    4  A    between atoms: C_11  and  O_12
REMARK    5  A    between atoms: C_11  and  C_13
REMARK    6  A    between atoms: C_11  and  C_19
REMARK    7  A    between atoms: C_13  and  N_14
REMARK                            x       y       z     vdW  Elec       q    Type
REMARK                         _______ _______ _______ _____ _____    ______ ____
ROOT
ATOM      1  C   UNL     1       3.023   6.201  18.797  0.00  0.00    +0.000 C 
ENDROOT
BRANCH   1   2
ATOM      2  C   UNL     1       4.376   5.802  18.176  0.00  0.00    +0.000 A 
ATOM      3  C   UNL     1       5.246   4.940  18.879  0.00  0.00    +0.000 A 
ATOM      4  C   UNL     1       6.467   4.530  18.333  0.00  0.00    +0.000 A 
ATOM      5  C   UNL     1       6.854   5.002  17.086  0.00  0.00    +0.000 A 
ATOM      6  F   UNL     1       8.029   4.619  16.568  0.00  0.00    +0.000 F 
ATOM      7  C   UNL     1       6.040   5.859  16.373  0.00  0.00    +0.000 A 
ATOM      8  C   UNL     1       4.812   6.238  16.910  0.00  0.00    +0.000 A 
ATOM      9  F   UNL     1       4.053   7.038  16.150  0.00  0.00    +0.000 F 
ENDBRANCH   1   2
BRANCH   1  10
ATOM     10  O   UNL     1       3.137   5.832  20.198  0.00  0.00    +0.000 OA
ATOM     11  H   UNL     1       3.445   4.906  20.214  0.00  0.00    +0.000 HD
ENDBRANCH   1  10
BRANCH   1  12
ATOM     12  C   UNL     1       2.742   7.733  18.746  0.00  0.00    +0.000 C 
BRANCH  12  21
ATOM     13  C   UNL     1      -1.133  14.659  22.768  0.00  0.00    +0.000 C 
ATOM     14  C   UNL     1      -0.881  13.293  22.217  0.00  0.00    +0.000 A 
ATOM     15  C   UNL     1      -1.119  12.139  22.956  0.00  0.00    +0.000 A 
ATOM     16  C   UNL     1      -0.788  10.892  22.422  0.00  0.00    +0.000 A 
ATOM     17  C   UNL     1      -0.201  10.820  21.159  0.00  0.00    +0.000 A 
ATOM     18  N   UNL     1       0.368   9.625  20.697  0.00  0.00    +0.000 N 
ATOM     19  C   UNL     1       0.518   8.460  21.355  0.00  0.00    +0.000 A 
ATOM     20  N   UNL     1       1.334   7.606  20.815  0.00  0.00    +0.000 NA
ATOM     21  N   UNL     1       1.778   8.252  19.696  0.00  0.00    +0.000 N 
ATOM     22  C   UNL     1       1.119   9.493  19.547  0.00  0.00    +0.000 A 
ATOM     23  O   UNL     1       1.245  10.235  18.585  0.00  0.00    +0.000 OA
ATOM     24  N   UNL     1      -0.035  11.933  20.416  0.00  0.00    +0.000 NA
ATOM     25  C   UNL     1      -0.365  13.129  20.943  0.00  0.00    +0.000 A 
ENDBRANCH  12  21
ENDBRANCH   1  12
BRANCH   1  26
ATOM     26  C   UNL     1       1.861   5.359  18.210  0.00  0.00    +0.000 C 
BRANCH  26  27
ATOM     27  N   UNL     1       1.671   4.073  18.831  0.00  0.00    +0.000 N 
ATOM     28  C   UNL     1       2.012   2.848  18.350  0.00  0.00    +0.000 A 
ATOM     29  N   UNL     1       1.634   1.924  19.205  0.00  0.00    +0.000 NA
ATOM     30  C   UNL     1       1.033   2.649  20.194  0.00  0.00    +0.000 A 
ATOM     31  N   UNL     1       1.015   3.964  20.003  0.00  0.00    +0.000 NA
ENDBRANCH  26  27
ENDBRANCH   1  26
TORSDOF 6
ENDMDL
