MODEL 1
REMARK VINA RESULT:      -7.8      0.000      0.000
REMARK  Name = 
REMARK  5 active torsions:
REMARK  status: ('A' for Active; 'I' for Inactive)
REMARK    1  A    between atoms: C_4  and  N_5
REMARK    2  A    between atoms: N_8  and  C_9
REMARK    3  A    between atoms: C_9  and  C_10
REMARK    4  A    between atoms: C_10  and  O_11
REMARK    5  A    between atoms: O_11  and  C_12
REMARK                            x       y       z     vdW  Elec       q    Type
REMARK                         _______ _______ _______ _____ _____    ______ ____
ROOT
ATOM      1  N   UNL     1       2.308   6.403  19.648  0.00  0.00    +0.000 N 
ATOM      2  C   UNL     1       1.939   5.569  20.800  0.00  0.00    +0.000 C 
ATOM      3  C   UNL     1       0.997   4.425  20.377  0.00  0.00    +0.000 C 
ATOM      4  N   UNL     1       1.519   3.593  19.268  0.00  0.00    +0.000 NA
ATOM      5  C   UNL     1       1.792   4.488  18.121  0.00  0.00    +0.000 C 
ATOM      6  C   UNL     1       2.723   5.689  18.427  0.00  0.00    +0.000 C 
ENDROOT
BRANCH   1  10
ATOM      7  C   UNL     1       0.891  10.361  19.360  0.00  0.00    +0.000 A 
ATOM      8  C   UNL     1       0.791   9.662  20.556  0.00  0.00    +0.000 A 
ATOM      9  C   UNL     1       1.285   8.354  20.641  0.00  0.00    +0.000 A 
ATOM     10  C   UNL     1       1.879   7.716  19.542  0.00  0.00    +0.000 A 
ATOM     11  C   UNL     1       1.974   8.451  18.351  0.00  0.00    +0.000 A 
ATOM     12  C   UNL     1       1.486   9.757  18.258  0.00  0.00    +0.000 A 
ENDBRANCH   1  10
BRANCH   4  13
ATOM     13  C   UNL     1       2.727   2.823  19.623  0.00  0.00    +0.000 C 
BRANCH  13  14
ATOM     14  C   UNL     1       3.734   2.653  18.482  0.00  0.00    +0.000 C 
BRANCH  14  15
ATOM     15  O   UNL     1       5.000   3.248  18.815  0.00  0.00    +0.000 OA
BRANCH  15  16
ATOM     16  C   UNL     1       5.507   3.973  17.764  0.00  0.00    +0.000 A 
ATOM     17  C   UNL     1       6.597   4.818  18.048  0.00  0.00    +0.000 A 
ATOM     18  C   UNL     1       7.312   5.418  17.004  0.00  0.00    +0.000 A 
ATOM     19  C   UNL     1       6.920   5.113  15.719  0.00  0.00    +0.000 A 
ATOM     20  C   UNL     1       5.798   4.360  15.461  0.00  0.00    +0.000 A 
ATOM     21  C   UNL     1       5.031   3.829  16.462  0.00  0.00    +0.000 A 
ATOM     22  O   UNL     1       5.623   4.118  14.133  0.00  0.00    +0.000 OA
ATOM     23  C   UNL     1       6.931   4.503  13.667  0.00  0.00    +0.000 C 
ATOM     24  O   UNL     1       7.593   5.413  14.572  0.00  0.00    +0.000 OA
ENDBRANCH  15  16
ENDBRANCH  14  15
ENDBRANCH  13  14
ENDBRANCH   4  13
TORSDOF 5
ENDMDL
MODEL 2
REMARK VINA RESULT:      -7.7      5.385      7.433
REMARK  Name = 
REMARK  5 active torsions:
REMARK  status: ('A' for Active; 'I' for Inactive)
REMARK    1  A    between atoms: C_4  and  N_5
REMARK    2  A    between atoms: N_8  and  C_9
REMARK    3  A    between atoms: C_9  and  C_10
REMARK    4  A    between atoms: C_10  and  O_11
REMARK    5  A    between atoms: O_11  and  C_12
REMARK                            x       y       z     vdW  Elec       q    Type
REMARK                         _______ _______ _______ _____ _____    ______ ____
ROOT
ATOM      1  N   UNL     1       5.055   4.963  18.245  0.00  0.00    +0.000 N 
ATOM      2  C   UNL     1       6.350   4.499  17.729  0.00  0.00    +0.000 C 
ATOM      3  C   UNL     1       6.804   5.349  16.526  0.00  0.00    +0.000 C 
ATOM      4  N   UNL     1       6.833   6.806  16.794  0.00  0.00    +0.000 NA
ATOM      5  C   UNL     1       5.478   7.212  17.231  0.00  0.00    +0.000 C 
ATOM      6  C   UNL     1       4.905   6.418  18.433  0.00  0.00    +0.000 C 
ENDROOT
BRANCH   1  10
ATOM      7  C   UNL     1       1.546   2.638  18.025  0.00  0.00    +0.000 A 
ATOM      8  C   UNL     1       1.472   4.024  18.086  0.00  0.00    +0.000 A 
ATOM      9  C   UNL     1       2.647   4.783  18.137  0.00  0.00    +0.000 A 
ATOM     10  C   UNL     1       3.915   4.182  18.138  0.00  0.00    +0.000 A 
ATOM     11  C   UNL     1       3.959   2.782  18.068  0.00  0.00    +0.000 A 
ATOM     12  C   UNL     1       2.791   2.016  18.012  0.00  0.00    +0.000 A 
ENDBRANCH   1  10
BRANCH   4  13
ATOM     13  C   UNL     1       7.841   7.204  17.795  0.00  0.00    +0.000 C 
BRANCH  13  14
ATOM     14  C   UNL     1       8.045   8.716  17.930  0.00  0.00    +0.000 C 
BRANCH  14  15
ATOM     15  O   UNL     1       8.988   9.020  18.971  0.00  0.00    +0.000 OA
BRANCH  15  16
ATOM     16  C   UNL     1       9.235  10.369  19.048  0.00  0.00    +0.000 A 
ATOM     17  C   UNL     1       9.371  10.914  20.339  0.00  0.00    +0.000 A 
ATOM     18  C   UNL     1       9.840  12.223  20.504  0.00  0.00    +0.000 A 
ATOM     19  C   UNL     1      10.186  12.914  19.364  0.00  0.00    +0.000 A 
ATOM     20  C   UNL     1       9.961  12.401  18.106  0.00  0.00    +0.000 A 
ATOM     21  C   UNL     1       9.426  11.157  17.914  0.00  0.00    +0.000 A 
ATOM     22  O   UNL     1      10.433  13.209  17.119  0.00  0.00    +0.000 OA
ATOM     23  C   UNL     1      11.261  14.073  17.920  0.00  0.00    +0.000 C 
ATOM     24  O   UNL     1      10.849  14.103  19.304  0.00  0.00    +0.000 OA
ENDBRANCH  15  16
ENDBRANCH  14  15
ENDBRANCH  13  14
ENDBRANCH   4  13
TORSDOF 5
ENDMDL
MODEL 3
REMARK VINA RESULT:      -7.7      5.297      7.361
REMARK  Name = 
REMARK  5 active torsions:
REMARK  status: ('A' for Active; 'I' for Inactive)
REMARK    1  A    between atoms: C_4  and  N_5
REMARK    2  A    between atoms: N_8  and  C_9
REMARK    3  A    between atoms: C_9  and  C_10
REMARK    4  A    between atoms: C_10  and  O_11
REMARK    5  A    between atoms: O_11  and  C_12
REMARK                            x       y       z     vdW  Elec       q    Type
REMARK                         _______ _______ _______ _____ _____    ______ ____
ROOT
ATOM      1  N   UNL     1       5.016   4.897  18.290  0.00  0.00    +0.000 N 
ATOM      2  C   UNL     1       6.242   4.435  17.626  0.00  0.00    +0.000 C 
ATOM      3  C   UNL     1       6.568   5.305  16.396  0.00  0.00    +0.000 C 
ATOM      4  N   UNL     1       6.639   6.756  16.685  0.00  0.00    +0.000 NA
ATOM      5  C   UNL     1       5.345   7.163  17.277  0.00  0.00    +0.000 C 
ATOM      6  C   UNL     1       4.902   6.349  18.521  0.00  0.00    +0.000 C 
ENDROOT
BRANCH   1  10
ATOM      7  C   UNL     1       1.561   2.486  18.217  0.00  0.00    +0.000 A 
ATOM      8  C   UNL     1       2.812   1.919  18.419  0.00  0.00    +0.000 A 
ATOM      9  C   UNL     1       3.949   2.736  18.461  0.00  0.00    +0.000 A 
ATOM     10  C   UNL     1       3.865   4.126  18.297  0.00  0.00    +0.000 A 
ATOM     11  C   UNL     1       2.586   4.672  18.104  0.00  0.00    +0.000 A 
ATOM     12  C   UNL     1       1.447   3.864  18.064  0.00  0.00    +0.000 A 
ENDBRANCH   1  10
BRANCH   4  13
ATOM     13  C   UNL     1       7.755   7.128  17.576  0.00  0.00    +0.000 C 
BRANCH  13  14
ATOM     14  C   UNL     1       7.873   8.628  17.861  0.00  0.00    +0.000 C 
BRANCH  14  15
ATOM     15  O   UNL     1       8.869   8.888  18.864  0.00  0.00    +0.000 OA
BRANCH  15  16
ATOM     16  C   UNL     1       9.072  10.236  19.034  0.00  0.00    +0.000 A 
ATOM     17  C   UNL     1       9.255  10.685  20.356  0.00  0.00    +0.000 A 
ATOM     18  C   UNL     1       9.685  11.996  20.599  0.00  0.00    +0.000 A 
ATOM     19  C   UNL     1       9.948  12.784  19.501  0.00  0.00    +0.000 A 
ATOM     20  C   UNL     1       9.677  12.360  18.220  0.00  0.00    +0.000 A 
ATOM     21  C   UNL     1       9.177  11.114  17.957  0.00  0.00    +0.000 A 
ATOM     22  O   UNL     1      10.069  13.259  17.277  0.00  0.00    +0.000 OA
ATOM     23  C   UNL     1      10.906  14.091  18.102  0.00  0.00    +0.000 C 
ATOM     24  O   UNL     1      10.564  14.000  19.502  0.00  0.00    +0.000 OA
ENDBRANCH  15  16
ENDBRANCH  14  15
ENDBRANCH  13  14
ENDBRANCH   4  13
TORSDOF 5
ENDMDL
MODEL 4
REMARK VINA RESULT:      -7.5      5.389      7.569
REMARK  Name = 
REMARK  5 active torsions:
REMARK  status: ('A' for Active; 'I' for Inactive)
REMARK    1  A    between atoms: C_4  and  N_5
REMARK    2  A    between atoms: N_8  and  C_9
REMARK    3  A    between atoms: C_9  and  C_10
REMARK    4  A    between atoms: C_10  and  O_11
REMARK    5  A    between atoms: O_11  and  C_12
REMARK                            x       y       z     vdW  Elec       q    Type
REMARK                         _______ _______ _______ _____ _____    ______ ____
ROOT
ATOM      1  N   UNL     1       5.059   4.899  18.246  0.00  0.00    +0.000 N 
ATOM      2  C   UNL     1       6.325   4.457  17.645  0.00  0.00    +0.000 C 
ATOM      3  C   UNL     1       6.701   5.335  16.436  0.00  0.00    +0.000 C 
ATOM      4  N   UNL     1       6.735   6.786  16.731  0.00  0.00    +0.000 NA
ATOM      5  C   UNL     1       5.405   7.172  17.256  0.00  0.00    +0.000 C 
ATOM      6  C   UNL     1       4.910   6.349  18.472  0.00  0.00    +0.000 C 
ENDROOT
BRANCH   1  10
ATOM      7  C   UNL     1       1.551   2.564  18.173  0.00  0.00    +0.000 A 
ATOM      8  C   UNL     1       1.481   3.946  18.057  0.00  0.00    +0.000 A 
ATOM      9  C   UNL     1       2.657   4.706  18.063  0.00  0.00    +0.000 A 
ATOM     10  C   UNL     1       3.921   4.111  18.190  0.00  0.00    +0.000 A 
ATOM     11  C   UNL     1       3.960   2.712  18.296  0.00  0.00    +0.000 A 
ATOM     12  C   UNL     1       2.792   1.946  18.288  0.00  0.00    +0.000 A 
ENDBRANCH   1  10
BRANCH   4  13
ATOM     13  C   UNL     1       7.797   7.172  17.680  0.00  0.00    +0.000 C 
BRANCH  13  14
ATOM     14  C   UNL     1       7.967   8.683  17.868  0.00  0.00    +0.000 C 
BRANCH  14  15
ATOM     15  O   UNL     1       8.955   8.972  18.871  0.00  0.00    +0.000 OA
BRANCH  15  16
ATOM     16  C   UNL     1       9.143  10.324  19.017  0.00  0.00    +0.000 A 
ATOM     17  C   UNL     1       8.941  11.117  17.871  0.00  0.00    +0.000 A 
ATOM     18  C   UNL     1       8.894  12.512  17.981  0.00  0.00    +0.000 A 
ATOM     19  C   UNL     1       9.015  13.047  19.244  0.00  0.00    +0.000 A 
ATOM     20  C   UNL     1       9.303  12.265  20.340  0.00  0.00    +0.000 A 
ATOM     21  C   UNL     1       9.438  10.907  20.249  0.00  0.00    +0.000 A 
ATOM     22  O   UNL     1       9.315  12.974  21.501  0.00  0.00    +0.000 OA
ATOM     23  C   UNL     1       8.669  14.173  21.032  0.00  0.00    +0.000 C 
ATOM     24  O   UNL     1       8.793  14.343  19.603  0.00  0.00    +0.000 OA
ENDBRANCH  15  16
ENDBRANCH  14  15
ENDBRANCH  13  14
ENDBRANCH   4  13
TORSDOF 5
ENDMDL
MODEL 5
REMARK VINA RESULT:      -7.5      5.307      7.464
REMARK  Name = 
REMARK  5 active torsions:
REMARK  status: ('A' for Active; 'I' for Inactive)
REMARK    1  A    between atoms: C_4  and  N_5
REMARK    2  A    between atoms: N_8  and  C_9
REMARK    3  A    between atoms: C_9  and  C_10
REMARK    4  A    between atoms: C_10  and  O_11
REMARK    5  A    between atoms: O_11  and  C_12
REMARK                            x       y       z     vdW  Elec       q    Type
REMARK                         _______ _______ _______ _____ _____    ______ ____
ROOT
ATOM      1  N   UNL     1       4.415   5.232  17.909  0.00  0.00    +0.000 N 
ATOM      2  C   UNL     1       5.147   5.816  19.041  0.00  0.00    +0.000 C 
ATOM      3  C   UNL     1       6.659   5.543  18.923  0.00  0.00    +0.000 C 
ATOM      4  N   UNL     1       7.251   5.971  17.634  0.00  0.00    +0.000 NA
ATOM      5  C   UNL     1       6.516   5.283  16.549  0.00  0.00    +0.000 C 
ATOM      6  C   UNL     1       4.977   5.474  16.568  0.00  0.00    +0.000 C 
ENDROOT
BRANCH   1  10
ATOM      7  C   UNL     1       1.708   2.065  18.544  0.00  0.00    +0.000 A 
ATOM      8  C   UNL     1       1.245   3.357  18.332  0.00  0.00    +0.000 A 
ATOM      9  C   UNL     1       2.156   4.395  18.102  0.00  0.00    +0.000 A 
ATOM     10  C   UNL     1       3.541   4.172  18.086  0.00  0.00    +0.000 A 
ATOM     11  C   UNL     1       3.979   2.855  18.294  0.00  0.00    +0.000 A 
ATOM     12  C   UNL     1       3.076   1.812  18.521  0.00  0.00    +0.000 A 
ENDBRANCH   1  10
BRANCH   4  13
ATOM     13  C   UNL     1       7.229   7.432  17.429  0.00  0.00    +0.000 C 
BRANCH  13  14
ATOM     14  C   UNL     1       8.281   8.206  18.229  0.00  0.00    +0.000 C 
BRANCH  14  15
ATOM     15  O   UNL     1       8.558   9.480  17.625  0.00  0.00    +0.000 OA
BRANCH  15  16
ATOM     16  C   UNL     1       9.240  10.306  18.483  0.00  0.00    +0.000 A 
ATOM     17  C   UNL     1      10.155  11.205  17.901  0.00  0.00    +0.000 A 
ATOM     18  C   UNL     1      10.724  12.226  18.672  0.00  0.00    +0.000 A 
ATOM     19  C   UNL     1      10.320  12.321  19.986  0.00  0.00    +0.000 A 
ATOM     20  C   UNL     1       9.497  11.381  20.562  0.00  0.00    +0.000 A 
ATOM     21  C   UNL     1       8.992  10.324  19.855  0.00  0.00    +0.000 A 
ATOM     22  O   UNL     1       9.165  11.691  21.845  0.00  0.00    +0.000 OA
ATOM     23  C   UNL     1       9.586  13.069  21.852  0.00  0.00    +0.000 C 
ATOM     24  O   UNL     1      10.583  13.346  20.844  0.00  0.00    +0.000 OA
ENDBRANCH  15  16
ENDBRANCH  14  15
ENDBRANCH  13  14
ENDBRANCH   4  13
TORSDOF 5
ENDMDL
MODEL 6
REMARK VINA RESULT:      -7.4      3.026      7.589
REMARK  Name = 
REMARK  5 active torsions:
REMARK  status: ('A' for Active; 'I' for Inactive)
REMARK    1  A    between atoms: C_4  and  N_5
REMARK    2  A    between atoms: N_8  and  C_9
REMARK    3  A    between atoms: C_9  and  C_10
REMARK    4  A    between atoms: C_10  and  O_11
REMARK    5  A    between atoms: O_11  and  C_12
REMARK                            x       y       z     vdW  Elec       q    Type
REMARK                         _______ _______ _______ _____ _____    ______ ____
ROOT
ATOM      1  N   UNL     1       5.832   5.089  15.780  0.00  0.00    +0.000 N 
ATOM      2  C   UNL     1       4.568   4.585  16.334  0.00  0.00    +0.000 C 
ATOM      3  C   UNL     1       4.821   3.665  17.544  0.00  0.00    +0.000 C 
ATOM      4  N   UNL     1       5.655   4.279  18.604  0.00  0.00    +0.000 NA
ATOM      5  C   UNL     1       6.938   4.688  17.989  0.00  0.00    +0.000 C 
ATOM      6  C   UNL     1       6.813   5.611  16.750  0.00  0.00    +0.000 C 
ENDROOT
BRANCH   1  10
ATOM      7  C   UNL     1       7.167   4.031  11.924  0.00  0.00    +0.000 A 
ATOM      8  C   UNL     1       7.846   4.988  12.668  0.00  0.00    +0.000 A 
ATOM      9  C   UNL     1       7.402   5.313  13.956  0.00  0.00    +0.000 A 
ATOM     10  C   UNL     1       6.274   4.703  14.524  0.00  0.00    +0.000 A 
ATOM     11  C   UNL     1       5.614   3.734  13.753  0.00  0.00    +0.000 A 
ATOM     12  C   UNL     1       6.053   3.400  12.469  0.00  0.00    +0.000 A 
ENDBRANCH   1  10
BRANCH   4  13
ATOM     13  C   UNL     1       5.012   5.426  19.273  0.00  0.00    +0.000 C 
BRANCH  13  14
ATOM     14  C   UNL     1       3.505   5.273  19.498  0.00  0.00    +0.000 C 
BRANCH  14  15
ATOM     15  O   UNL     1       2.757   6.018  18.523  0.00  0.00    +0.000 OA
BRANCH  15  16
ATOM     16  C   UNL     1       2.317   7.214  19.034  0.00  0.00    +0.000 A 
ATOM     17  C   UNL     1       2.098   8.254  18.109  0.00  0.00    +0.000 A 
ATOM     18  C   UNL     1       1.443   9.425  18.510  0.00  0.00    +0.000 A 
ATOM     19  C   UNL     1       1.005   9.484  19.814  0.00  0.00    +0.000 A 
ATOM     20  C   UNL     1       1.307   8.500  20.728  0.00  0.00    +0.000 A 
ATOM     21  C   UNL     1       2.018   7.382  20.385  0.00  0.00    +0.000 A 
ATOM     22  O   UNL     1       0.727   8.714  21.940  0.00  0.00    +0.000 OA
ATOM     23  C   UNL     1      -0.221   9.727  21.553  0.00  0.00    +0.000 C 
ATOM     24  O   UNL     1       0.177  10.424  20.352  0.00  0.00    +0.000 OA
ENDBRANCH  15  16
ENDBRANCH  14  15
ENDBRANCH  13  14
ENDBRANCH   4  13
TORSDOF 5
ENDMDL
MODEL 7
REMARK VINA RESULT:      -7.4      5.420      7.505
REMARK  Name = 
REMARK  5 active torsions:
REMARK  status: ('A' for Active; 'I' for Inactive)
REMARK    1  A    between atoms: C_4  and  N_5
REMARK    2  A    between atoms: N_8  and  C_9
REMARK    3  A    between atoms: C_9  and  C_10
REMARK    4  A    between atoms: C_10  and  O_11
REMARK    5  A    between atoms: O_11  and  C_12
REMARK                            x       y       z     vdW  Elec       q    Type
REMARK                         _______ _______ _______ _____ _____    ______ ____
ROOT
ATOM      1  N   UNL     1       4.469   5.429  17.662  0.00  0.00    +0.000 N 
ATOM      2  C   UNL     1       5.169   6.011  18.816  0.00  0.00    +0.000 C 
ATOM      3  C   UNL     1       6.684   5.735  18.742  0.00  0.00    +0.000 C 
ATOM      4  N   UNL     1       7.314   6.163  17.471  0.00  0.00    +0.000 NA
ATOM      5  C   UNL     1       6.610   5.477  16.364  0.00  0.00    +0.000 C 
ATOM      6  C   UNL     1       5.072   5.672  16.338  0.00  0.00    +0.000 C 
ENDROOT
BRANCH   1  10
ATOM      7  C   UNL     1       1.764   2.248  18.230  0.00  0.00    +0.000 A 
ATOM      8  C   UNL     1       1.335   3.566  18.332  0.00  0.00    +0.000 A 
ATOM      9  C   UNL     1       2.242   4.612  18.120  0.00  0.00    +0.000 A 
ATOM     10  C   UNL     1       3.589   4.370  17.811  0.00  0.00    +0.000 A 
ATOM     11  C   UNL     1       3.990   3.029  17.706  0.00  0.00    +0.000 A 
ATOM     12  C   UNL     1       3.091   1.980  17.913  0.00  0.00    +0.000 A 
ENDBRANCH   1  10
BRANCH   4  13
ATOM     13  C   UNL     1       7.300   7.625  17.267  0.00  0.00    +0.000 C 
BRANCH  13  14
ATOM     14  C   UNL     1       8.219   8.410  18.208  0.00  0.00    +0.000 C 
BRANCH  14  15
ATOM     15  O   UNL     1       8.837   9.515  17.526  0.00  0.00    +0.000 OA
BRANCH  15  16
ATOM     16  C   UNL     1       8.982  10.599  18.355  0.00  0.00    +0.000 A 
ATOM     17  C   UNL     1       9.352  10.331  19.688  0.00  0.00    +0.000 A 
ATOM     18  C   UNL     1       9.736  11.378  20.535  0.00  0.00    +0.000 A 
ATOM     19  C   UNL     1       9.766  12.644  19.994  0.00  0.00    +0.000 A 
ATOM     20  C   UNL     1       9.314  12.901  18.720  0.00  0.00    +0.000 A 
ATOM     21  C   UNL     1       8.854  11.910  17.897  0.00  0.00    +0.000 A 
ATOM     22  O   UNL     1       9.490  14.200  18.354  0.00  0.00    +0.000 OA
ATOM     23  C   UNL     1      10.399  14.600  19.397  0.00  0.00    +0.000 C 
ATOM     24  O   UNL     1      10.299  13.760  20.567  0.00  0.00    +0.000 OA
ENDBRANCH  15  16
ENDBRANCH  14  15
ENDBRANCH  13  14
ENDBRANCH   4  13
TORSDOF 5
ENDMDL
MODEL 8
REMARK VINA RESULT:      -7.3      5.616      7.822
REMARK  Name = 
REMARK  5 active torsions:
REMARK  status: ('A' for Active; 'I' for Inactive)
REMARK    1  A    between atoms: C_4  and  N_5
REMARK    2  A    between atoms: N_8  and  C_9
REMARK    3  A    between atoms: C_9  and  C_10
REMARK    4  A    between atoms: C_10  and  O_11
REMARK    5  A    between atoms: O_11  and  C_12
REMARK                            x       y       z     vdW  Elec       q    Type
REMARK                         _______ _______ _______ _____ _____    ______ ____
ROOT
ATOM      1  N   UNL     1       4.922   5.399  18.348  0.00  0.00    +0.000 N 
ATOM      2  C   UNL     1       6.222   5.566  19.012  0.00  0.00    +0.000 C 
ATOM      3  C   UNL     1       7.352   5.751  17.980  0.00  0.00    +0.000 C 
ATOM      4  N   UNL     1       7.110   6.844  17.010  0.00  0.00    +0.000 NA
ATOM      5  C   UNL     1       5.826   6.565  16.326  0.00  0.00    +0.000 C 
ATOM      6  C   UNL     1       4.611   6.349  17.264  0.00  0.00    +0.000 C 
ENDROOT
BRANCH   1  10
ATOM      7  C   UNL     1       2.938   1.683  18.497  0.00  0.00    +0.000 A 
ATOM      8  C   UNL     1       3.927   1.993  19.422  0.00  0.00    +0.000 A 
ATOM      9  C   UNL     1       4.563   3.240  19.372  0.00  0.00    +0.000 A 
ATOM     10  C   UNL     1       4.235   4.197  18.401  0.00  0.00    +0.000 A 
ATOM     11  C   UNL     1       3.225   3.860  17.486  0.00  0.00    +0.000 A 
ATOM     12  C   UNL     1       2.584   2.619  17.531  0.00  0.00    +0.000 A 
ENDBRANCH   1  10
BRANCH   4  13
ATOM     13  C   UNL     1       7.089   8.186  17.624  0.00  0.00    +0.000 C 
BRANCH  13  14
ATOM     14  C   UNL     1       8.437   8.654  18.181  0.00  0.00    +0.000 C 
BRANCH  14  15
ATOM     15  O   UNL     1       8.888   9.844  17.514  0.00  0.00    +0.000 OA
BRANCH  15  16
ATOM     16  C   UNL     1       9.138  10.857  18.406  0.00  0.00    +0.000 A 
ATOM     17  C   UNL     1       9.311  10.484  19.753  0.00  0.00    +0.000 A 
ATOM     18  C   UNL     1       9.785  11.415  20.686  0.00  0.00    +0.000 A 
ATOM     19  C   UNL     1      10.100  12.670  20.214  0.00  0.00    +0.000 A 
ATOM     20  C   UNL     1       9.839  13.046  18.916  0.00  0.00    +0.000 A 
ATOM     21  C   UNL     1       9.298  12.182  18.004  0.00  0.00    +0.000 A 
ATOM     22  O   UNL     1      10.283  14.301  18.635  0.00  0.00    +0.000 OA
ATOM     23  C   UNL     1      11.134  14.494  19.781  0.00  0.00    +0.000 C 
ATOM     24  O   UNL     1      10.761  13.650  20.892  0.00  0.00    +0.000 OA
ENDBRANCH  15  16
ENDBRANCH  14  15
ENDBRANCH  13  14
ENDBRANCH   4  13
TORSDOF 5
ENDMDL
MODEL 9
REMARK VINA RESULT:      -7.3      5.266      7.433
REMARK  Name = 
REMARK  5 active torsions:
REMARK  status: ('A' for Active; 'I' for Inactive)
REMARK    1  A    between atoms: C_4  and  N_5
REMARK    2  A    between atoms: N_8  and  C_9
REMARK    3  A    between atoms: C_9  and  C_10
REMARK    4  A    between atoms: C_10  and  O_11
REMARK    5  A    between atoms: O_11  and  C_12
REMARK                            x       y       z     vdW  Elec       q    Type
REMARK                         _______ _______ _______ _____ _____    ______ ____
ROOT
ATOM      1  N   UNL     1       4.651   5.375  17.434  0.00  0.00    +0.000 N 
ATOM      2  C   UNL     1       5.229   6.114  18.564  0.00  0.00    +0.000 C 
ATOM      3  C   UNL     1       6.737   5.824  18.703  0.00  0.00    +0.000 C 
ATOM      4  N   UNL     1       7.513   6.062  17.463  0.00  0.00    +0.000 NA
ATOM      5  C   UNL     1       6.922   5.226  16.393  0.00  0.00    +0.000 C 
ATOM      6  C   UNL     1       5.401   5.421  16.166  0.00  0.00    +0.000 C 
ENDROOT
BRANCH   1  10
ATOM      7  C   UNL     1       1.845   2.313  18.149  0.00  0.00    +0.000 A 
ATOM      8  C   UNL     1       1.455   3.646  18.171  0.00  0.00    +0.000 A 
ATOM      9  C   UNL     1       2.395   4.651  17.911  0.00  0.00    +0.000 A 
ATOM     10  C   UNL     1       3.737   4.353  17.633  0.00  0.00    +0.000 A 
ATOM     11  C   UNL     1       4.099   2.997  17.609  0.00  0.00    +0.000 A 
ATOM     12  C   UNL     1       3.167   1.988  17.864  0.00  0.00    +0.000 A 
ENDBRANCH   1  10
BRANCH   4  13
ATOM     13  C   UNL     1       7.552   7.478  17.052  0.00  0.00    +0.000 C 
BRANCH  13  14
ATOM     14  C   UNL     1       8.262   8.410  18.038  0.00  0.00    +0.000 C 
BRANCH  14  15
ATOM     15  O   UNL     1       7.694   9.731  18.004  0.00  0.00    +0.000 OA
BRANCH  15  16
ATOM     16  C   UNL     1       8.669  10.698  18.020  0.00  0.00    +0.000 A 
ATOM     17  C   UNL     1       8.299  11.975  17.557  0.00  0.00    +0.000 A 
ATOM     18  C   UNL     1       9.156  13.067  17.745  0.00  0.00    +0.000 A 
ATOM     19  C   UNL     1      10.332  12.832  18.424  0.00  0.00    +0.000 A 
ATOM     20  C   UNL     1      10.720  11.562  18.788  0.00  0.00    +0.000 A 
ATOM     21  C   UNL     1       9.940  10.465  18.543  0.00  0.00    +0.000 A 
ATOM     22  O   UNL     1      11.876  11.553  19.504  0.00  0.00    +0.000 OA
ATOM     23  C   UNL     1      11.948  12.957  19.823  0.00  0.00    +0.000 C 
ATOM     24  O   UNL     1      11.201  13.771  18.893  0.00  0.00    +0.000 OA
ENDBRANCH  15  16
ENDBRANCH  14  15
ENDBRANCH  13  14
ENDBRANCH   4  13
TORSDOF 5
ENDMDL
