MODEL 1
REMARK VINA RESULT:      -6.9      0.000      0.000
REMARK  Name = 
REMARK  6 active torsions:
REMARK  status: ('A' for Active; 'I' for Inactive)
REMARK    1  A    between atoms: C_1  and  C_2
REMARK    2  A    between atoms: C_2  and  O_3
REMARK    3  A    between atoms: O_3  and  C_4
REMARK    4  A    between atoms: C_4  and  C_6
REMARK    5  A    between atoms: N_14  and  C_15
REMARK    6  A    between atoms: C_24  and  C_25
REMARK                            x       y       z     vdW  Elec       q    Type
REMARK                         _______ _______ _______ _____ _____    ______ ____
ROOT
ATOM      1  C   UNL     1      -2.306  14.289  23.692  0.00  0.00    +0.000 C 
ATOM      2  C   UNL     1      -0.899  14.278  23.187  0.00  0.00    +0.000 C 
ATOM      3  O   UNL     1      -0.095  15.175  23.438  0.00  0.00    +0.000 OA
ATOM      4  N   UNL     1      -0.541  13.236  22.394  0.00  0.00    +0.000 N 
ATOM      5  C   UNL     1      -1.109  12.011  22.471  0.00  0.00    +0.000 C 
ATOM      6  N   UNL     1      -0.417  11.040  21.804  0.00  0.00    +0.000 N 
ATOM      7  C   UNL     1      -0.255  11.142  20.337  0.00  0.00    +0.000 C 
ATOM      8  C   UNL     1       1.085  10.506  19.921  0.00  0.00    +0.000 C 
ATOM      9  N   UNL     1       1.133   9.118  20.407  0.00  0.00    +0.000 N 
ATOM     10  C   UNL     1       0.880   8.953  21.856  0.00  0.00    +0.000 C 
ATOM     11  C   UNL     1      -0.456   9.632  22.245  0.00  0.00    +0.000 C 
ATOM     12  N   UNL     1      -2.165  11.791  23.153  0.00  0.00    +0.000 NA
ATOM     13  C   UNL     1      -2.919  12.888  23.783  0.00  0.00    +0.000 C 
ATOM     14  H   UNL     1       0.398  13.272  22.032  0.00  0.00    +0.000 HD
ENDROOT
BRANCH   9  15
ATOM     15  C   UNL     1       1.746   8.119  19.680  0.00  0.00    +0.000 A 
ATOM     16  C   UNL     1       1.977   6.836  20.204  0.00  0.00    +0.000 A 
ATOM     17  C   UNL     1       2.675   5.865  19.476  0.00  0.00    +0.000 A 
ATOM     18  C   UNL     1       3.166   6.160  18.211  0.00  0.00    +0.000 A 
ATOM     19  C   UNL     1       2.945   7.421  17.666  0.00  0.00    +0.000 A 
ATOM     20  C   UNL     1       2.240   8.380  18.394  0.00  0.00    +0.000 A 
ENDBRANCH   9  15
BRANCH  13  21
ATOM     21  C   UNL     1      -4.366  12.788  23.330  0.00  0.00    +0.000 A 
ATOM     22  C   UNL     1      -5.416  12.787  24.258  0.00  0.00    +0.000 A 
ATOM     23  C   UNL     1      -6.740  12.692  23.823  0.00  0.00    +0.000 A 
ATOM     24  C   UNL     1      -7.026  12.600  22.462  0.00  0.00    +0.000 A 
ATOM     25  C   UNL     1      -5.990  12.584  21.531  0.00  0.00    +0.000 A 
ATOM     26  C   UNL     1      -4.669  12.665  21.963  0.00  0.00    +0.000 A 
ENDBRANCH  13  21
BRANCH   1  27
ATOM     27  C   UNL     1      -3.067  15.337  22.909  0.00  0.00    +0.000 C 
ATOM     28  O   UNL     1      -2.915  15.550  21.712  0.00  0.00    +0.000 OA
BRANCH  27  29
ATOM     29  O   UNL     1      -3.851  16.083  23.738  0.00  0.00    +0.000 OA
BRANCH  29  31
ATOM     30  C   UNL     1      -6.315  16.349  23.545  0.00  0.00    +0.000 C 
ATOM     31  C   UNL     1      -4.930  16.797  23.114  0.00  0.00    +0.000 C 
ENDBRANCH  29  31
ENDBRANCH  27  29
ENDBRANCH   1  27
TORSDOF 5
ENDMDL
MODEL 2
REMARK VINA RESULT:      -6.9      0.869      1.595
REMARK  Name = 
REMARK  6 active torsions:
REMARK  status: ('A' for Active; 'I' for Inactive)
REMARK    1  A    between atoms: C_1  and  C_2
REMARK    2  A    between atoms: C_2  and  O_3
REMARK    3  A    between atoms: O_3  and  C_4
REMARK    4  A    between atoms: C_4  and  C_6
REMARK    5  A    between atoms: N_14  and  C_15
REMARK    6  A    between atoms: C_24  and  C_25
REMARK                            x       y       z     vdW  Elec       q    Type
REMARK                         _______ _______ _______ _____ _____    ______ ____
ROOT
ATOM      1  C   UNL     1      -2.856  14.234  24.119  0.00  0.00    +0.000 C 
ATOM      2  C   UNL     1      -1.412  14.291  23.733  0.00  0.00    +0.000 C 
ATOM      3  O   UNL     1      -0.649  15.166  24.139  0.00  0.00    +0.000 OA
ATOM      4  N   UNL     1      -0.971  13.340  22.871  0.00  0.00    +0.000 N 
ATOM      5  C   UNL     1      -1.520  12.107  22.776  0.00  0.00    +0.000 C 
ATOM      6  N   UNL     1      -0.757  11.218  22.072  0.00  0.00    +0.000 N 
ATOM      7  C   UNL     1      -0.479  11.472  20.642  0.00  0.00    +0.000 C 
ATOM      8  C   UNL     1       0.903  10.898  20.275  0.00  0.00    +0.000 C 
ATOM      9  N   UNL     1       0.938   9.468  20.619  0.00  0.00    +0.000 N 
ATOM     10  C   UNL     1       0.573   9.152  22.019  0.00  0.00    +0.000 C 
ATOM     11  C   UNL     1      -0.803   9.772  22.364  0.00  0.00    +0.000 C 
ATOM     12  N   UNL     1      -2.622  11.807  23.342  0.00  0.00    +0.000 NA
ATOM     13  C   UNL     1      -3.446  12.824  24.016  0.00  0.00    +0.000 C 
ATOM     14  H   UNL     1      -0.007  13.423  22.593  0.00  0.00    +0.000 HD
ENDROOT
BRANCH   9  15
ATOM     15  C   UNL     1       1.627   8.556  19.848  0.00  0.00    +0.000 A 
ATOM     16  C   UNL     1       1.995   8.818  18.516  0.00  0.00    +0.000 A 
ATOM     17  C   UNL     1       2.620   7.845  17.727  0.00  0.00    +0.000 A 
ATOM     18  C   UNL     1       2.883   6.585  18.250  0.00  0.00    +0.000 A 
ATOM     19  C   UNL     1       2.534   6.302  19.567  0.00  0.00    +0.000 A 
ATOM     20  C   UNL     1       1.920   7.281  20.349  0.00  0.00    +0.000 A 
ENDBRANCH   9  15
BRANCH  13  21
ATOM     21  C   UNL     1      -4.850  12.755  23.438  0.00  0.00    +0.000 A 
ATOM     22  C   UNL     1      -5.059  12.690  22.054  0.00  0.00    +0.000 A 
ATOM     23  C   UNL     1      -6.356  12.630  21.540  0.00  0.00    +0.000 A 
ATOM     24  C   UNL     1      -7.453  12.631  22.401  0.00  0.00    +0.000 A 
ATOM     25  C   UNL     1      -7.257  12.711  23.778  0.00  0.00    +0.000 A 
ATOM     26  C   UNL     1      -5.966  12.785  24.292  0.00  0.00    +0.000 A 
ENDBRANCH  13  21
BRANCH   1  27
ATOM     27  C   UNL     1      -3.571  15.349  23.387  0.00  0.00    +0.000 C 
ATOM     28  O   UNL     1      -3.336  15.677  22.230  0.00  0.00    +0.000 OA
BRANCH  27  29
ATOM     29  O   UNL     1      -4.422  16.007  24.224  0.00  0.00    +0.000 OA
BRANCH  29  31
ATOM     30  C   UNL     1      -2.895  17.896  24.754  0.00  0.00    +0.000 C 
ATOM     31  C   UNL     1      -3.809  16.793  25.258  0.00  0.00    +0.000 C 
ENDBRANCH  29  31
ENDBRANCH  27  29
ENDBRANCH   1  27
TORSDOF 5
ENDMDL
MODEL 3
REMARK VINA RESULT:      -6.8      2.725      4.024
REMARK  Name = 
REMARK  6 active torsions:
REMARK  status: ('A' for Active; 'I' for Inactive)
REMARK    1  A    between atoms: C_1  and  C_2
REMARK    2  A    between atoms: C_2  and  O_3
REMARK    3  A    between atoms: O_3  and  C_4
REMARK    4  A    between atoms: C_4  and  C_6
REMARK    5  A    between atoms: N_14  and  C_15
REMARK    6  A    between atoms: C_24  and  C_25
REMARK                            x       y       z     vdW  Elec       q    Type
REMARK                         _______ _______ _______ _____ _____    ______ ____
ROOT
ATOM      1  C   UNL     1       0.085  13.506  20.260  0.00  0.00    +0.000 C 
ATOM      2  C   UNL     1       1.459  13.103  19.829  0.00  0.00    +0.000 C 
ATOM      3  O   UNL     1       2.418  13.874  19.855  0.00  0.00    +0.000 OA
ATOM      4  N   UNL     1       1.608  11.836  19.363  0.00  0.00    +0.000 N 
ATOM      5  C   UNL     1       0.826  10.803  19.750  0.00  0.00    +0.000 C 
ATOM      6  N   UNL     1       1.318   9.578  19.398  0.00  0.00    +0.000 N 
ATOM      7  C   UNL     1       1.474   9.243  17.966  0.00  0.00    +0.000 C 
ATOM      8  C   UNL     1       2.669   8.286  17.788  0.00  0.00    +0.000 C 
ATOM      9  N   UNL     1       2.468   7.100  18.634  0.00  0.00    +0.000 N 
ATOM     10  C   UNL     1       2.211   7.387  20.064  0.00  0.00    +0.000 C 
ATOM     11  C   UNL     1       1.028   8.376  20.204  0.00  0.00    +0.000 C 
ATOM     12  N   UNL     1      -0.242  10.973  20.427  0.00  0.00    +0.000 NA
ATOM     13  C   UNL     1      -0.772  12.318  20.707  0.00  0.00    +0.000 C 
ATOM     14  H   UNL     1       2.532  11.601  19.040  0.00  0.00    +0.000 HD
ENDROOT
BRANCH   9  15
ATOM     15  C   UNL     1       2.876   5.847  18.229  0.00  0.00    +0.000 A 
ATOM     16  C   UNL     1       4.204   5.566  17.861  0.00  0.00    +0.000 A 
ATOM     17  C   UNL     1       4.575   4.308  17.375  0.00  0.00    +0.000 A 
ATOM     18  C   UNL     1       3.625   3.304  17.236  0.00  0.00    +0.000 A 
ATOM     19  C   UNL     1       2.306   3.553  17.599  0.00  0.00    +0.000 A 
ATOM     20  C   UNL     1       1.946   4.808  18.093  0.00  0.00    +0.000 A 
ENDBRANCH   9  15
BRANCH  13  21
ATOM     21  C   UNL     1      -2.220  12.361  20.245  0.00  0.00    +0.000 A 
ATOM     22  C   UNL     1      -3.211  12.969  21.027  0.00  0.00    +0.000 A 
ATOM     23  C   UNL     1      -4.536  12.996  20.588  0.00  0.00    +0.000 A 
ATOM     24  C   UNL     1      -4.883  12.421  19.367  0.00  0.00    +0.000 A 
ATOM     25  C   UNL     1      -3.909  11.799  18.588  0.00  0.00    +0.000 A 
ATOM     26  C   UNL     1      -2.590  11.758  19.030  0.00  0.00    +0.000 A 
ENDBRANCH  13  21
BRANCH   1  27
ATOM     27  C   UNL     1      -0.482  14.419  19.194  0.00  0.00    +0.000 C 
ATOM     28  O   UNL     1      -0.366  14.228  17.989  0.00  0.00    +0.000 OA
BRANCH  27  29
ATOM     29  O   UNL     1      -1.031  15.533  19.755  0.00  0.00    +0.000 OA
BRANCH  29  31
ATOM     30  C   UNL     1      -0.922  17.571  18.336  0.00  0.00    +0.000 C 
ATOM     31  C   UNL     1      -0.352  16.772  19.494  0.00  0.00    +0.000 C 
ENDBRANCH  29  31
ENDBRANCH  27  29
ENDBRANCH   1  27
TORSDOF 5
ENDMDL
MODEL 4
REMARK VINA RESULT:      -6.8      2.423      3.646
REMARK  Name = 
REMARK  6 active torsions:
REMARK  status: ('A' for Active; 'I' for Inactive)
REMARK    1  A    between atoms: C_1  and  C_2
REMARK    2  A    between atoms: C_2  and  O_3
REMARK    3  A    between atoms: O_3  and  C_4
REMARK    4  A    between atoms: C_4  and  C_6
REMARK    5  A    between atoms: N_14  and  C_15
REMARK    6  A    between atoms: C_24  and  C_25
REMARK                            x       y       z     vdW  Elec       q    Type
REMARK                         _______ _______ _______ _____ _____    ______ ____
ROOT
ATOM      1  C   UNL     1       0.095  13.564  20.472  0.00  0.00    +0.000 C 
ATOM      2  C   UNL     1       1.450  13.170  19.978  0.00  0.00    +0.000 C 
ATOM      3  O   UNL     1       2.412  13.936  19.993  0.00  0.00    +0.000 OA
ATOM      4  N   UNL     1       1.575  11.918  19.468  0.00  0.00    +0.000 N 
ATOM      5  C   UNL     1       0.803  10.876  19.850  0.00  0.00    +0.000 C 
ATOM      6  N   UNL     1       1.276   9.661  19.442  0.00  0.00    +0.000 N 
ATOM      7  C   UNL     1       1.377   9.371  17.995  0.00  0.00    +0.000 C 
ATOM      8  C   UNL     1       2.560   8.416  17.743  0.00  0.00    +0.000 C 
ATOM      9  N   UNL     1       2.385   7.204  18.559  0.00  0.00    +0.000 N 
ATOM     10  C   UNL     1       2.182   7.447  20.005  0.00  0.00    +0.000 C 
ATOM     11  C   UNL     1       1.010   8.435  20.220  0.00  0.00    +0.000 C 
ATOM     12  N   UNL     1      -0.238  11.028  20.571  0.00  0.00    +0.000 NA
ATOM     13  C   UNL     1      -0.752  12.365  20.913  0.00  0.00    +0.000 C 
ATOM     14  H   UNL     1       2.486  11.690  19.103  0.00  0.00    +0.000 HD
ENDROOT
BRANCH   9  15
ATOM     15  C   UNL     1       2.772   5.963  18.100  0.00  0.00    +0.000 A 
ATOM     16  C   UNL     1       1.863   4.906  17.919  0.00  0.00    +0.000 A 
ATOM     17  C   UNL     1       2.293   3.631  17.532  0.00  0.00    +0.000 A 
ATOM     18  C   UNL     1       3.644   3.383  17.326  0.00  0.00    +0.000 A 
ATOM     19  C   UNL     1       4.564   4.413  17.493  0.00  0.00    +0.000 A 
ATOM     20  C   UNL     1       4.126   5.683  17.869  0.00  0.00    +0.000 A 
ENDBRANCH   9  15
BRANCH  13  21
ATOM     21  C   UNL     1      -2.215  12.427  20.507  0.00  0.00    +0.000 A 
ATOM     22  C   UNL     1      -3.181  12.971  21.364  0.00  0.00    +0.000 A 
ATOM     23  C   UNL     1      -4.521  13.018  20.976  0.00  0.00    +0.000 A 
ATOM     24  C   UNL     1      -4.908  12.526  19.730  0.00  0.00    +0.000 A 
ATOM     25  C   UNL     1      -3.960  11.968  18.876  0.00  0.00    +0.000 A 
ATOM     26  C   UNL     1      -2.625  11.909  19.267  0.00  0.00    +0.000 A 
ENDBRANCH  13  21
BRANCH   1  27
ATOM     27  C   UNL     1      -0.507  14.512  19.457  0.00  0.00    +0.000 C 
ATOM     28  O   UNL     1      -0.370  14.403  18.245  0.00  0.00    +0.000 OA
BRANCH  27  29
ATOM     29  O   UNL     1      -1.117  15.560  20.079  0.00  0.00    +0.000 OA
BRANCH  29  31
ATOM     30  C   UNL     1      -1.656  16.224  22.413  0.00  0.00    +0.000 C 
ATOM     31  C   UNL     1      -0.597  15.920  21.369  0.00  0.00    +0.000 C 
ENDBRANCH  29  31
ENDBRANCH  27  29
ENDBRANCH   1  27
TORSDOF 5
ENDMDL
MODEL 5
REMARK VINA RESULT:      -6.7      2.552      3.952
REMARK  Name = 
REMARK  6 active torsions:
REMARK  status: ('A' for Active; 'I' for Inactive)
REMARK    1  A    between atoms: C_1  and  C_2
REMARK    2  A    between atoms: C_2  and  O_3
REMARK    3  A    between atoms: O_3  and  C_4
REMARK    4  A    between atoms: C_4  and  C_6
REMARK    5  A    between atoms: N_14  and  C_15
REMARK    6  A    between atoms: C_24  and  C_25
REMARK                            x       y       z     vdW  Elec       q    Type
REMARK                         _______ _______ _______ _____ _____    ______ ____
ROOT
ATOM      1  C   UNL     1       0.105  13.523  20.554  0.00  0.00    +0.000 C 
ATOM      2  C   UNL     1       1.471  13.128  20.091  0.00  0.00    +0.000 C 
ATOM      3  O   UNL     1       2.439  13.886  20.152  0.00  0.00    +0.000 OA
ATOM      4  N   UNL     1       1.602  11.888  19.555  0.00  0.00    +0.000 N 
ATOM      5  C   UNL     1       0.810  10.844  19.890  0.00  0.00    +0.000 C 
ATOM      6  N   UNL     1       1.286   9.634  19.467  0.00  0.00    +0.000 N 
ATOM      7  C   UNL     1       1.429   9.378  18.018  0.00  0.00    +0.000 C 
ATOM      8  C   UNL     1       2.611   8.419  17.778  0.00  0.00    +0.000 C 
ATOM      9  N   UNL     1       2.402   7.190  18.559  0.00  0.00    +0.000 N 
ATOM     10  C   UNL     1       2.158   7.400  20.004  0.00  0.00    +0.000 C 
ATOM     11  C   UNL     1       0.988   8.393  20.208  0.00  0.00    +0.000 C 
ATOM     12  N   UNL     1      -0.250  10.988  20.583  0.00  0.00    +0.000 NA
ATOM     13  C   UNL     1      -0.763  12.321  20.941  0.00  0.00    +0.000 C 
ATOM     14  H   UNL     1       2.521  11.661  19.212  0.00  0.00    +0.000 HD
ENDROOT
BRANCH   9  15
ATOM     15  C   UNL     1       2.793   5.956  18.083  0.00  0.00    +0.000 A 
ATOM     16  C   UNL     1       1.895   4.886  17.928  0.00  0.00    +0.000 A 
ATOM     17  C   UNL     1       2.332   3.620  17.521  0.00  0.00    +0.000 A 
ATOM     18  C   UNL     1       3.679   3.393  17.270  0.00  0.00    +0.000 A 
ATOM     19  C   UNL     1       4.588   4.437  17.410  0.00  0.00    +0.000 A 
ATOM     20  C   UNL     1       4.143   5.699  17.806  0.00  0.00    +0.000 A 
ENDBRANCH   9  15
BRANCH  13  21
ATOM     21  C   UNL     1      -2.214  12.405  20.493  0.00  0.00    +0.000 A 
ATOM     22  C   UNL     1      -2.627  11.855  19.272  0.00  0.00    +0.000 A 
ATOM     23  C   UNL     1      -3.963  11.944  18.876  0.00  0.00    +0.000 A 
ATOM     24  C   UNL     1      -4.897  12.579  19.695  0.00  0.00    +0.000 A 
ATOM     25  C   UNL     1      -4.494  13.143  20.903  0.00  0.00    +0.000 A 
ATOM     26  C   UNL     1      -3.160  13.068  21.293  0.00  0.00    +0.000 A 
ENDBRANCH  13  21
BRANCH   1  27
ATOM     27  C   UNL     1      -0.459  14.499  19.544  0.00  0.00    +0.000 C 
ATOM     28  O   UNL     1      -0.340  14.382  18.330  0.00  0.00    +0.000 OA
BRANCH  27  29
ATOM     29  O   UNL     1      -1.009  15.577  20.171  0.00  0.00    +0.000 OA
BRANCH  29  31
ATOM     30  C   UNL     1       0.921  17.112  19.853  0.00  0.00    +0.000 C 
ATOM     31  C   UNL     1      -0.086  16.482  20.799  0.00  0.00    +0.000 C 
ENDBRANCH  29  31
ENDBRANCH  27  29
ENDBRANCH   1  27
TORSDOF 5
ENDMDL
MODEL 6
REMARK VINA RESULT:      -6.7      0.799      1.337
REMARK  Name = 
REMARK  6 active torsions:
REMARK  status: ('A' for Active; 'I' for Inactive)
REMARK    1  A    between atoms: C_1  and  C_2
REMARK    2  A    between atoms: C_2  and  O_3
REMARK    3  A    between atoms: O_3  and  C_4
REMARK    4  A    between atoms: C_4  and  C_6
REMARK    5  A    between atoms: N_14  and  C_15
REMARK    6  A    between atoms: C_24  and  C_25
REMARK                            x       y       z     vdW  Elec       q    Type
REMARK                         _______ _______ _______ _____ _____    ______ ____
ROOT
ATOM      1  C   UNL     1      -2.609  14.322  23.866  0.00  0.00    +0.000 C 
ATOM      2  C   UNL     1      -1.183  14.351  23.417  0.00  0.00    +0.000 C 
ATOM      3  O   UNL     1      -0.400  15.242  23.745  0.00  0.00    +0.000 OA
ATOM      4  N   UNL     1      -0.782  13.355  22.585  0.00  0.00    +0.000 N 
ATOM      5  C   UNL     1      -1.338  12.123  22.577  0.00  0.00    +0.000 C 
ATOM      6  N   UNL     1      -0.609  11.195  21.887  0.00  0.00    +0.000 N 
ATOM      7  C   UNL     1      -0.392  11.375  20.435  0.00  0.00    +0.000 C 
ATOM      8  C   UNL     1       0.971  10.775  20.040  0.00  0.00    +0.000 C 
ATOM      9  N   UNL     1       1.016   9.365  20.454  0.00  0.00    +0.000 N 
ATOM     10  C   UNL     1       0.710   9.121  21.882  0.00  0.00    +0.000 C 
ATOM     11  C   UNL     1      -0.647   9.765  22.253  0.00  0.00    +0.000 C 
ATOM     12  N   UNL     1      -2.416  11.857  23.204  0.00  0.00    +0.000 NA
ATOM     13  C   UNL     1      -3.207  12.911  23.860  0.00  0.00    +0.000 C 
ATOM     14  H   UNL     1       0.170  13.420  22.263  0.00  0.00    +0.000 HD
ENDROOT
BRANCH   9  15
ATOM     15  C   UNL     1       1.669   8.411  19.701  0.00  0.00    +0.000 A 
ATOM     16  C   UNL     1       1.969   7.131  20.197  0.00  0.00    +0.000 A 
ATOM     17  C   UNL     1       2.706   6.210  19.443  0.00  0.00    +0.000 A 
ATOM     18  C   UNL     1       3.166   6.553  18.178  0.00  0.00    +0.000 A 
ATOM     19  C   UNL     1       2.878   7.812  17.660  0.00  0.00    +0.000 A 
ATOM     20  C   UNL     1       2.134   8.720  18.415  0.00  0.00    +0.000 A 
ENDBRANCH   9  15
BRANCH  13  21
ATOM     21  C   UNL     1      -4.635  12.820  23.346  0.00  0.00    +0.000 A 
ATOM     22  C   UNL     1      -5.725  12.886  24.224  0.00  0.00    +0.000 A 
ATOM     23  C   UNL     1      -7.030  12.798  23.734  0.00  0.00    +0.000 A 
ATOM     24  C   UNL     1      -7.257  12.648  22.367  0.00  0.00    +0.000 A 
ATOM     25  C   UNL     1      -6.181  12.565  21.486  0.00  0.00    +0.000 A 
ATOM     26  C   UNL     1      -4.879  12.639  21.974  0.00  0.00    +0.000 A 
ENDBRANCH  13  21
BRANCH   1  27
ATOM     27  C   UNL     1      -3.352  15.401  23.110  0.00  0.00    +0.000 C 
ATOM     28  O   UNL     1      -4.235  16.100  23.593  0.00  0.00    +0.000 OA
BRANCH  27  29
ATOM     29  O   UNL     1      -2.989  15.407  21.796  0.00  0.00    +0.000 OA
BRANCH  29  31
ATOM     30  C   UNL     1      -1.778  16.790  20.123  0.00  0.00    +0.000 C 
ATOM     31  C   UNL     1      -2.863  16.699  21.180  0.00  0.00    +0.000 C 
ENDBRANCH  29  31
ENDBRANCH  27  29
ENDBRANCH   1  27
TORSDOF 5
ENDMDL
MODEL 7
REMARK VINA RESULT:      -6.6      0.961      1.771
REMARK  Name = 
REMARK  6 active torsions:
REMARK  status: ('A' for Active; 'I' for Inactive)
REMARK    1  A    between atoms: C_1  and  C_2
REMARK    2  A    between atoms: C_2  and  O_3
REMARK    3  A    between atoms: O_3  and  C_4
REMARK    4  A    between atoms: C_4  and  C_6
REMARK    5  A    between atoms: N_14  and  C_15
REMARK    6  A    between atoms: C_24  and  C_25
REMARK                            x       y       z     vdW  Elec       q    Type
REMARK                         _______ _______ _______ _____ _____    ______ ____
ROOT
ATOM      1  C   UNL     1      -2.193  14.375  23.434  0.00  0.00    +0.000 C 
ATOM      2  C   UNL     1      -0.779  14.292  22.953  0.00  0.00    +0.000 C 
ATOM      3  O   UNL     1       0.043  15.187  23.146  0.00  0.00    +0.000 OA
ATOM      4  N   UNL     1      -0.436  13.182  22.250  0.00  0.00    +0.000 N 
ATOM      5  C   UNL     1      -1.035  11.981  22.413  0.00  0.00    +0.000 C 
ATOM      6  N   UNL     1      -0.357  10.945  21.835  0.00  0.00    +0.000 N 
ATOM      7  C   UNL     1      -0.172  10.928  20.367  0.00  0.00    +0.000 C 
ATOM      8  C   UNL     1       1.158  10.231  20.023  0.00  0.00    +0.000 C 
ATOM      9  N   UNL     1       1.165   8.885  20.616  0.00  0.00    +0.000 N 
ATOM     10  C   UNL     1       0.889   8.840  22.070  0.00  0.00    +0.000 C 
ATOM     11  C   UNL     1      -0.435   9.577  22.384  0.00  0.00    +0.000 C 
ATOM     12  N   UNL     1      -2.104  11.839  23.093  0.00  0.00    +0.000 NA
ATOM     13  C   UNL     1      -2.840  12.999  23.624  0.00  0.00    +0.000 C 
ATOM     14  H   UNL     1       0.509  13.168  21.901  0.00  0.00    +0.000 HD
ENDROOT
BRANCH   9  15
ATOM     15  C   UNL     1       1.764   7.818  19.979  0.00  0.00    +0.000 A 
ATOM     16  C   UNL     1       2.267   7.906  18.669  0.00  0.00    +0.000 A 
ATOM     17  C   UNL     1       2.795   6.787  18.014  0.00  0.00    +0.000 A 
ATOM     18  C   UNL     1       2.823   5.553  18.652  0.00  0.00    +0.000 A 
ATOM     19  C   UNL     1       2.336   5.440  19.950  0.00  0.00    +0.000 A 
ATOM     20  C   UNL     1       1.821   6.563  20.599  0.00  0.00    +0.000 A 
ENDBRANCH   9  15
BRANCH  13  21
ATOM     21  C   UNL     1      -4.283  12.897  23.157  0.00  0.00    +0.000 A 
ATOM     22  C   UNL     1      -5.346  13.025  24.061  0.00  0.00    +0.000 A 
ATOM     23  C   UNL     1      -6.666  12.926  23.615  0.00  0.00    +0.000 A 
ATOM     24  C   UNL     1      -6.935  12.702  22.265  0.00  0.00    +0.000 A 
ATOM     25  C   UNL     1      -5.886  12.558  21.360  0.00  0.00    +0.000 A 
ATOM     26  C   UNL     1      -4.570  12.642  21.805  0.00  0.00    +0.000 A 
ENDBRANCH  13  21
BRANCH   1  27
ATOM     27  C   UNL     1      -2.918  15.376  22.560  0.00  0.00    +0.000 C 
ATOM     28  O   UNL     1      -3.779  16.148  22.963  0.00  0.00    +0.000 OA
BRANCH  27  29
ATOM     29  O   UNL     1      -2.567  15.217  21.252  0.00  0.00    +0.000 OA
BRANCH  29  31
ATOM     30  C   UNL     1      -1.016  16.437  19.740  0.00  0.00    +0.000 C 
ATOM     31  C   UNL     1      -2.323  16.424  20.512  0.00  0.00    +0.000 C 
ENDBRANCH  29  31
ENDBRANCH  27  29
ENDBRANCH   1  27
TORSDOF 5
ENDMDL
MODEL 8
REMARK VINA RESULT:      -6.6      2.296      3.628
REMARK  Name = 
REMARK  6 active torsions:
REMARK  status: ('A' for Active; 'I' for Inactive)
REMARK    1  A    between atoms: C_1  and  C_2
REMARK    2  A    between atoms: C_2  and  O_3
REMARK    3  A    between atoms: O_3  and  C_4
REMARK    4  A    between atoms: C_4  and  C_6
REMARK    5  A    between atoms: N_14  and  C_15
REMARK    6  A    between atoms: C_24  and  C_25
REMARK                            x       y       z     vdW  Elec       q    Type
REMARK                         _______ _______ _______ _____ _____    ______ ____
ROOT
ATOM      1  C   UNL     1      -0.165  13.482  21.526  0.00  0.00    +0.000 C 
ATOM      2  C   UNL     1       1.224  13.163  21.075  0.00  0.00    +0.000 C 
ATOM      3  O   UNL     1       2.180  13.910  21.284  0.00  0.00    +0.000 OA
ATOM      4  N   UNL     1       1.393  12.010  20.379  0.00  0.00    +0.000 N 
ATOM      5  C   UNL     1       0.599  10.925  20.531  0.00  0.00    +0.000 C 
ATOM      6  N   UNL     1       1.107   9.789  19.967  0.00  0.00    +0.000 N 
ATOM      7  C   UNL     1       1.316   9.736  18.504  0.00  0.00    +0.000 C 
ATOM      8  C   UNL     1       2.519   8.826  18.187  0.00  0.00    +0.000 C 
ATOM      9  N   UNL     1       2.290   7.499  18.781  0.00  0.00    +0.000 N 
ATOM     10  C   UNL     1       1.980   7.506  20.229  0.00  0.00    +0.000 C 
ATOM     11  C   UNL     1       0.791   8.455  20.515  0.00  0.00    +0.000 C 
ATOM     12  N   UNL     1      -0.492  10.966  21.188  0.00  0.00    +0.000 NA
ATOM     13  C   UNL     1      -1.036  12.234  21.704  0.00  0.00    +0.000 C 
ATOM     14  H   UNL     1       2.329  11.837  20.050  0.00  0.00    +0.000 HD
ENDROOT
BRANCH   9  15
ATOM     15  C   UNL     1       2.716   6.346  18.157  0.00  0.00    +0.000 A 
ATOM     16  C   UNL     1       1.959   5.161  18.160  0.00  0.00    +0.000 A 
ATOM     17  C   UNL     1       2.450   3.980  17.591  0.00  0.00    +0.000 A 
ATOM     18  C   UNL     1       3.714   3.955  17.014  0.00  0.00    +0.000 A 
ATOM     19  C   UNL     1       4.481   5.116  16.993  0.00  0.00    +0.000 A 
ATOM     20  C   UNL     1       3.979   6.291  17.553  0.00  0.00    +0.000 A 
ENDBRANCH   9  15
BRANCH  13  21
ATOM     21  C   UNL     1      -2.466  12.372  21.207  0.00  0.00    +0.000 A 
ATOM     22  C   UNL     1      -2.788  12.158  19.860  0.00  0.00    +0.000 A 
ATOM     23  C   UNL     1      -4.107  12.291  19.422  0.00  0.00    +0.000 A 
ATOM     24  C   UNL     1      -5.114  12.635  20.322  0.00  0.00    +0.000 A 
ATOM     25  C   UNL     1      -4.804  12.866  21.661  0.00  0.00    +0.000 A 
ATOM     26  C   UNL     1      -3.487  12.747  22.097  0.00  0.00    +0.000 A 
ENDBRANCH  13  21
BRANCH   1  27
ATOM     27  C   UNL     1      -0.696  14.586  20.637  0.00  0.00    +0.000 C 
ATOM     28  O   UNL     1      -1.465  15.464  21.010  0.00  0.00    +0.000 OA
BRANCH  27  29
ATOM     29  O   UNL     1      -0.296  14.400  19.347  0.00  0.00    +0.000 OA
BRANCH  29  31
ATOM     30  C   UNL     1       1.232  16.301  18.866  0.00  0.00    +0.000 C 
ATOM     31  C   UNL     1      -0.078  15.592  18.575  0.00  0.00    +0.000 C 
ENDBRANCH  29  31
ENDBRANCH  27  29
ENDBRANCH   1  27
TORSDOF 5
ENDMDL
MODEL 9
REMARK VINA RESULT:      -6.5      2.952      5.900
REMARK  Name = 
REMARK  6 active torsions:
REMARK  status: ('A' for Active; 'I' for Inactive)
REMARK    1  A    between atoms: C_1  and  C_2
REMARK    2  A    between atoms: C_2  and  O_3
REMARK    3  A    between atoms: O_3  and  C_4
REMARK    4  A    between atoms: C_4  and  C_6
REMARK    5  A    between atoms: N_14  and  C_15
REMARK    6  A    between atoms: C_24  and  C_25
REMARK                            x       y       z     vdW  Elec       q    Type
REMARK                         _______ _______ _______ _____ _____    ______ ____
ROOT
ATOM      1  C   UNL     1      -0.571  12.806  18.954  0.00  0.00    +0.000 C 
ATOM      2  C   UNL     1      -1.252  11.489  19.152  0.00  0.00    +0.000 C 
ATOM      3  O   UNL     1      -2.472  11.353  19.067  0.00  0.00    +0.000 OA
ATOM      4  N   UNL     1      -0.462  10.432  19.470  0.00  0.00    +0.000 N 
ATOM      5  C   UNL     1       0.834  10.332  19.098  0.00  0.00    +0.000 C 
ATOM      6  N   UNL     1       1.358   9.080  19.261  0.00  0.00    +0.000 N 
ATOM      7  C   UNL     1       1.448   8.502  20.619  0.00  0.00    +0.000 C 
ATOM      8  C   UNL     1       1.295   6.971  20.539  0.00  0.00    +0.000 C 
ATOM      9  N   UNL     1       2.309   6.432  19.619  0.00  0.00    +0.000 N 
ATOM     10  C   UNL     1       2.323   7.047  18.273  0.00  0.00    +0.000 C 
ATOM     11  C   UNL     1       2.444   8.586  18.391  0.00  0.00    +0.000 C 
ATOM     12  N   UNL     1       1.476  11.311  18.594  0.00  0.00    +0.000 NA
ATOM     13  C   UNL     1       0.891  12.661  18.519  0.00  0.00    +0.000 C 
ATOM     14  H   UNL     1      -0.948   9.566  19.639  0.00  0.00    +0.000 HD
ENDROOT
BRANCH   9  15
ATOM     15  C   UNL     1       2.910   5.211  19.843  0.00  0.00    +0.000 A 
ATOM     16  C   UNL     1       4.095   4.822  19.195  0.00  0.00    +0.000 A 
ATOM     17  C   UNL     1       4.641   3.546  19.375  0.00  0.00    +0.000 A 
ATOM     18  C   UNL     1       4.007   2.626  20.201  0.00  0.00    +0.000 A 
ATOM     19  C   UNL     1       2.835   2.987  20.859  0.00  0.00    +0.000 A 
ATOM     20  C   UNL     1       2.304   4.265  20.681  0.00  0.00    +0.000 A 
ENDBRANCH   9  15
BRANCH  13  21
ATOM     21  C   UNL     1       1.857  13.632  19.178  0.00  0.00    +0.000 A 
ATOM     22  C   UNL     1       2.156  14.867  18.587  0.00  0.00    +0.000 A 
ATOM     23  C   UNL     1       3.048  15.746  19.205  0.00  0.00    +0.000 A 
ATOM     24  C   UNL     1       3.646  15.402  20.417  0.00  0.00    +0.000 A 
ATOM     25  C   UNL     1       3.369  14.169  21.006  0.00  0.00    +0.000 A 
ATOM     26  C   UNL     1       2.491  13.287  20.384  0.00  0.00    +0.000 A 
ENDBRANCH  13  21
BRANCH   1  27
ATOM     27  C   UNL     1      -0.859  13.660  20.170  0.00  0.00    +0.000 C 
ATOM     28  O   UNL     1      -1.056  14.868  20.134  0.00  0.00    +0.000 OA
BRANCH  27  29
ATOM     29  O   UNL     1      -0.752  12.924  21.312  0.00  0.00    +0.000 OA
BRANCH  29  31
ATOM     30  C   UNL     1      -2.186  11.890  23.059  0.00  0.00    +0.000 C 
ATOM     31  C   UNL     1      -1.773  13.138  22.300  0.00  0.00    +0.000 C 
ENDBRANCH  29  31
ENDBRANCH  27  29
ENDBRANCH   1  27
TORSDOF 5
ENDMDL
