MODEL 1
REMARK VINA RESULT:      -8.3      0.000      0.000
REMARK  Name = 
REMARK  15 active torsions:
REMARK  status: ('A' for Active; 'I' for Inactive)
REMARK    1  A    between atoms: C_1  and  N_2
REMARK    2  A    between atoms: N_2  and  C_3
REMARK    3  A    between atoms: C_3  and  C_4
REMARK    4  A    between atoms: C_3  and  C_5
REMARK    5  A    between atoms: N_7  and  C_8
REMARK    6  A    between atoms: C_8  and  C_9
REMARK    7  A    between atoms: C_8  and  C_30
REMARK    8  A    between atoms: N_11  and  C_12
REMARK    9  A    between atoms: C_12  and  C_13
REMARK   10  A    between atoms: C_12  and  C_14
REMARK   11  A    between atoms: N_16  and  C_17
REMARK   12  A    between atoms: C_17  and  C_18
REMARK   13  A    between atoms: C_17  and  C_24
REMARK   14  A    between atoms: C_30  and  C_31
REMARK   15  A    between atoms: C_30  and  C_32
REMARK                            x       y       z     vdW  Elec       q    Type
REMARK                         _______ _______ _______ _____ _____    ______ ____
ROOT
ATOM      1  C   UNL     1       1.562   8.852  20.502  0.00  0.00    +0.000 C 
ATOM      2  C   UNL     1       0.759   7.912  21.399  0.00  0.00    +0.000 C 
ENDROOT
BRANCH   1   5
ATOM      3  C   UNL     1       0.414  11.002  20.999  0.00  0.00    +0.000 C 
ATOM      4  O   UNL     1       0.641  10.919  22.203  0.00  0.00    +0.000 OA
ATOM      5  N   UNL     1       0.805  10.031  20.110  0.00  0.00    +0.000 N 
ATOM      6  H   UNL     1       0.598  10.130  19.121  0.00  0.00    +0.000 HD
BRANCH   3   7
ATOM      7  C   UNL     1      -0.376  12.185  20.384  0.00  0.00    +0.000 C 
BRANCH   7  10
ATOM      8  C   UNL     1      -1.556  12.040  18.194  0.00  0.00    +0.000 C 
ATOM      9  O   UNL     1      -0.863  12.915  17.682  0.00  0.00    +0.000 OA
ATOM     10  N   UNL     1      -1.448  11.666  19.521  0.00  0.00    +0.000 N 
ATOM     11  H   UNL     1      -1.876  10.766  19.734  0.00  0.00    +0.000 HD
BRANCH   8  12
ATOM     12  C   UNL     1      -2.672  11.320  17.405  0.00  0.00    +0.000 C 
ATOM     13  C   UNL     1      -2.670   9.841  17.787  0.00  0.00    +0.000 C 
BRANCH  12  15
ATOM     14  C   UNL     1      -2.891  10.378  15.165  0.00  0.00    +0.000 C 
ATOM     15  N   UNL     1      -2.474  11.542  15.946  0.00  0.00    +0.000 NA
ATOM     16  H   UNL     1      -3.075  12.325  15.673  0.00  0.00    +0.000 HD
ENDBRANCH  12  15
ENDBRANCH   8  12
ENDBRANCH   7  10
BRANCH   7  17
ATOM     17  C   UNL     1      -0.905  13.199  21.434  0.00  0.00    +0.000 C 
ATOM     18  C   UNL     1      -0.536  14.660  21.157  0.00  0.00    +0.000 C 
ATOM     19  C   UNL     1      -2.418  13.076  21.641  0.00  0.00    +0.000 C 
ENDBRANCH   7  17
ENDBRANCH   3   7
ENDBRANCH   1   5
BRANCH   1  20
ATOM     20  C   UNL     1       1.960   8.126  19.204  0.00  0.00    +0.000 C 
ATOM     21  O   UNL     1       1.816   8.646  18.100  0.00  0.00    +0.000 OA
ATOM     22  N   UNL     1       2.445   6.858  19.397  0.00  0.00    +0.000 N 
ATOM     23  H   UNL     1       2.644   6.543  20.335  0.00  0.00    +0.000 HD
BRANCH  22  24
ATOM     24  C   UNL     1       2.910   6.011  18.310  0.00  0.00    +0.000 C 
BRANCH  24  25
ATOM     25  C   UNL     1       4.436   6.088  18.245  0.00  0.00    +0.000 A 
ATOM     26  C   UNL     1       5.231   5.443  19.212  0.00  0.00    +0.000 A 
ATOM     27  C   UNL     1       6.623   5.458  19.118  0.00  0.00    +0.000 A 
ATOM     28  C   UNL     1       7.241   6.118  18.059  0.00  0.00    +0.000 A 
ATOM     29  C   UNL     1       6.469   6.763  17.095  0.00  0.00    +0.000 A 
ATOM     30  C   UNL     1       5.074   6.753  17.187  0.00  0.00    +0.000 A 
ENDBRANCH  24  25
BRANCH  24  31
ATOM     31  C   UNL     1       2.429   4.566  18.467  0.00  0.00    +0.000 A 
ATOM     32  C   UNL     1       2.807   3.544  17.585  0.00  0.00    +0.000 A 
ATOM     33  C   UNL     1       2.267   2.260  17.702  0.00  0.00    +0.000 A 
ATOM     34  C   UNL     1       1.355   1.976  18.720  0.00  0.00    +0.000 A 
ATOM     35  C   UNL     1       1.012   2.962  19.636  0.00  0.00    +0.000 A 
ATOM     36  C   UNL     1       1.549   4.246  19.518  0.00  0.00    +0.000 A 
ENDBRANCH  24  31
ENDBRANCH  22  24
ENDBRANCH   1  20
TORSDOF 10
ENDMDL
MODEL 2
REMARK VINA RESULT:      -8.1      0.877      1.331
REMARK  Name = 
REMARK  15 active torsions:
REMARK  status: ('A' for Active; 'I' for Inactive)
REMARK    1  A    between atoms: C_1  and  N_2
REMARK    2  A    between atoms: N_2  and  C_3
REMARK    3  A    between atoms: C_3  and  C_4
REMARK    4  A    between atoms: C_3  and  C_5
REMARK    5  A    between atoms: N_7  and  C_8
REMARK    6  A    between atoms: C_8  and  C_9
REMARK    7  A    between atoms: C_8  and  C_30
REMARK    8  A    between atoms: N_11  and  C_12
REMARK    9  A    between atoms: C_12  and  C_13
REMARK   10  A    between atoms: C_12  and  C_14
REMARK   11  A    between atoms: N_16  and  C_17
REMARK   12  A    between atoms: C_17  and  C_18
REMARK   13  A    between atoms: C_17  and  C_24
REMARK   14  A    between atoms: C_30  and  C_31
REMARK   15  A    between atoms: C_30  and  C_32
REMARK                            x       y       z     vdW  Elec       q    Type
REMARK                         _______ _______ _______ _____ _____    ______ ____
ROOT
ATOM      1  C   UNL     1       1.600   8.999  20.144  0.00  0.00    +0.000 C 
ATOM      2  C   UNL     1       1.110   8.078  21.259  0.00  0.00    +0.000 C 
ENDROOT
BRANCH   1   5
ATOM      3  C   UNL     1       0.351  11.138  20.368  0.00  0.00    +0.000 C 
ATOM      4  O   UNL     1       0.958  11.461  21.385  0.00  0.00    +0.000 OA
ATOM      5  N   UNL     1       0.585   9.950  19.720  0.00  0.00    +0.000 N 
ATOM      6  H   UNL     1       0.061   9.713  18.882  0.00  0.00    +0.000 HD
BRANCH   3   7
ATOM      7  C   UNL     1      -0.767  12.019  19.755  0.00  0.00    +0.000 C 
BRANCH   7  10
ATOM      8  C   UNL     1      -2.123  11.145  17.856  0.00  0.00    +0.000 C 
ATOM      9  O   UNL     1      -1.627  11.927  17.049  0.00  0.00    +0.000 OA
ATOM     10  N   UNL     1      -1.828  11.160  19.207  0.00  0.00    +0.000 N 
ATOM     11  H   UNL     1      -2.088  10.306  19.698  0.00  0.00    +0.000 HD
BRANCH   8  12
ATOM     12  C   UNL     1      -3.188  10.108  17.435  0.00  0.00    +0.000 C 
ATOM     13  C   UNL     1      -3.110   9.907  15.923  0.00  0.00    +0.000 C 
BRANCH  12  15
ATOM     14  C   UNL     1      -5.039  11.654  17.066  0.00  0.00    +0.000 C 
ATOM     15  N   UNL     1      -4.532  10.560  17.892  0.00  0.00    +0.000 NA
ATOM     16  H   UNL     1      -5.172   9.770  17.780  0.00  0.00    +0.000 HD
ENDBRANCH  12  15
ENDBRANCH   8  12
ENDBRANCH   7  10
BRANCH   7  17
ATOM     17  C   UNL     1      -1.325  13.092  20.730  0.00  0.00    +0.000 C 
ATOM     18  C   UNL     1      -1.122  14.540  20.274  0.00  0.00    +0.000 C 
ATOM     19  C   UNL     1      -2.801  12.855  21.063  0.00  0.00    +0.000 C 
ENDBRANCH   7  17
ENDBRANCH   3   7
ENDBRANCH   1   5
BRANCH   1  20
ATOM     20  C   UNL     1       1.977   8.167  18.904  0.00  0.00    +0.000 C 
ATOM     21  O   UNL     1       1.735   8.557  17.763  0.00  0.00    +0.000 OA
ATOM     22  N   UNL     1       2.560   6.961  19.195  0.00  0.00    +0.000 N 
ATOM     23  H   UNL     1       2.832   6.760  20.146  0.00  0.00    +0.000 HD
BRANCH  22  24
ATOM     24  C   UNL     1       3.024   6.035  18.173  0.00  0.00    +0.000 C 
BRANCH  24  25
ATOM     25  C   UNL     1       4.553   6.052  18.151  0.00  0.00    +0.000 A 
ATOM     26  C   UNL     1       5.251   6.768  17.161  0.00  0.00    +0.000 A 
ATOM     27  C   UNL     1       6.644   6.837  17.177  0.00  0.00    +0.000 A 
ATOM     28  C   UNL     1       7.360   6.191  18.181  0.00  0.00    +0.000 A 
ATOM     29  C   UNL     1       6.685   5.475  19.168  0.00  0.00    +0.000 A 
ATOM     30  C   UNL     1       5.289   5.401  19.153  0.00  0.00    +0.000 A 
ENDBRANCH  24  25
BRANCH  24  31
ATOM     31  C   UNL     1       2.483   4.620  18.397  0.00  0.00    +0.000 A 
ATOM     32  C   UNL     1       2.779   3.553  17.537  0.00  0.00    +0.000 A 
ATOM     33  C   UNL     1       2.186   2.301  17.718  0.00  0.00    +0.000 A 
ATOM     34  C   UNL     1       1.302   2.094  18.779  0.00  0.00    +0.000 A 
ATOM     35  C   UNL     1       1.041   3.123  19.672  0.00  0.00    +0.000 A 
ATOM     36  C   UNL     1       1.630   4.377  19.490  0.00  0.00    +0.000 A 
ENDBRANCH  24  31
ENDBRANCH  22  24
ENDBRANCH   1  20
TORSDOF 10
ENDMDL
MODEL 3
REMARK VINA RESULT:      -8.0      1.409      2.102
REMARK  Name = 
REMARK  15 active torsions:
REMARK  status: ('A' for Active; 'I' for Inactive)
REMARK    1  A    between atoms: C_1  and  N_2
REMARK    2  A    between atoms: N_2  and  C_3
REMARK    3  A    between atoms: C_3  and  C_4
REMARK    4  A    between atoms: C_3  and  C_5
REMARK    5  A    between atoms: N_7  and  C_8
REMARK    6  A    between atoms: C_8  and  C_9
REMARK    7  A    between atoms: C_8  and  C_30
REMARK    8  A    between atoms: N_11  and  C_12
REMARK    9  A    between atoms: C_12  and  C_13
REMARK   10  A    between atoms: C_12  and  C_14
REMARK   11  A    between atoms: N_16  and  C_17
REMARK   12  A    between atoms: C_17  and  C_18
REMARK   13  A    between atoms: C_17  and  C_24
REMARK   14  A    between atoms: C_30  and  C_31
REMARK   15  A    between atoms: C_30  and  C_32
REMARK                            x       y       z     vdW  Elec       q    Type
REMARK                         _______ _______ _______ _____ _____    ______ ____
ROOT
ATOM      1  C   UNL     1       1.639   9.235  19.842  0.00  0.00    +0.000 C 
ATOM      2  C   UNL     1       0.724   8.514  20.828  0.00  0.00    +0.000 C 
ENDROOT
BRANCH   1   5
ATOM      3  C   UNL     1       0.880  11.604  19.896  0.00  0.00    +0.000 C 
ATOM      4  O   UNL     1       1.255  11.764  21.054  0.00  0.00    +0.000 OA
ATOM      5  N   UNL     1       1.007  10.402  19.244  0.00  0.00    +0.000 N 
ATOM      6  H   UNL     1       0.683  10.303  18.286  0.00  0.00    +0.000 HD
BRANCH   3   7
ATOM      7  C   UNL     1       0.186  12.727  19.085  0.00  0.00    +0.000 C 
BRANCH   7  10
ATOM      8  C   UNL     1      -2.051  11.795  18.505  0.00  0.00    +0.000 C 
ATOM      9  O   UNL     1      -1.618  11.165  17.544  0.00  0.00    +0.000 OA
ATOM     10  N   UNL     1      -1.271  12.642  19.271  0.00  0.00    +0.000 N 
ATOM     11  H   UNL     1      -1.678  12.877  20.175  0.00  0.00    +0.000 HD
BRANCH   8  12
ATOM     12  C   UNL     1      -3.543  11.749  18.903  0.00  0.00    +0.000 C 
ATOM     13  C   UNL     1      -4.386  11.589  17.639  0.00  0.00    +0.000 C 
BRANCH  12  15
ATOM     14  C   UNL     1      -4.885  12.684  20.713  0.00  0.00    +0.000 C 
ATOM     15  N   UNL     1      -3.890  12.971  19.680  0.00  0.00    +0.000 NA
ATOM     16  H   UNL     1      -3.038  13.282  20.154  0.00  0.00    +0.000 HD
ENDBRANCH  12  15
ENDBRANCH   8  12
ENDBRANCH   7  10
BRANCH   7  17
ATOM     17  C   UNL     1       0.734  14.149  19.388  0.00  0.00    +0.000 C 
ATOM     18  C   UNL     1       1.956  14.555  18.557  0.00  0.00    +0.000 C 
ATOM     19  C   UNL     1      -0.353  15.222  19.271  0.00  0.00    +0.000 C 
ENDBRANCH   7  17
ENDBRANCH   3   7
ENDBRANCH   1   5
BRANCH   1  20
ATOM     20  C   UNL     1       2.014   8.290  18.685  0.00  0.00    +0.000 C 
ATOM     21  O   UNL     1       1.811   8.590  17.511  0.00  0.00    +0.000 OA
ATOM     22  N   UNL     1       2.548   7.094  19.090  0.00  0.00    +0.000 N 
ATOM     23  H   UNL     1       2.792   6.966  20.061  0.00  0.00    +0.000 HD
BRANCH  22  24
ATOM     24  C   UNL     1       3.002   6.071  18.161  0.00  0.00    +0.000 C 
BRANCH  24  25
ATOM     25  C   UNL     1       4.531   6.045  18.166  0.00  0.00    +0.000 A 
ATOM     26  C   UNL     1       5.266   6.755  17.198  0.00  0.00    +0.000 A 
ATOM     27  C   UNL     1       6.660   6.785  17.238  0.00  0.00    +0.000 A 
ATOM     28  C   UNL     1       7.340   6.104  18.245  0.00  0.00    +0.000 A 
ATOM     29  C   UNL     1       6.628   5.395  19.210  0.00  0.00    +0.000 A 
ATOM     30  C   UNL     1       5.231   5.360  19.171  0.00  0.00    +0.000 A 
ENDBRANCH  24  25
BRANCH  24  31
ATOM     31  C   UNL     1       2.418   4.696  18.497  0.00  0.00    +0.000 A 
ATOM     32  C   UNL     1       2.634   3.567  17.695  0.00  0.00    +0.000 A 
ATOM     33  C   UNL     1       2.002   2.353  17.980  0.00  0.00    +0.000 A 
ATOM     34  C   UNL     1       1.160   2.248  19.088  0.00  0.00    +0.000 A 
ATOM     35  C   UNL     1       0.978   3.341  19.925  0.00  0.00    +0.000 A 
ATOM     36  C   UNL     1       1.606   4.556  19.639  0.00  0.00    +0.000 A 
ENDBRANCH  24  31
ENDBRANCH  22  24
ENDBRANCH   1  20
TORSDOF 10
ENDMDL
MODEL 4
REMARK VINA RESULT:      -7.9      1.146      1.840
REMARK  Name = 
REMARK  15 active torsions:
REMARK  status: ('A' for Active; 'I' for Inactive)
REMARK    1  A    between atoms: C_1  and  N_2
REMARK    2  A    between atoms: N_2  and  C_3
REMARK    3  A    between atoms: C_3  and  C_4
REMARK    4  A    between atoms: C_3  and  C_5
REMARK    5  A    between atoms: N_7  and  C_8
REMARK    6  A    between atoms: C_8  and  C_9
REMARK    7  A    between atoms: C_8  and  C_30
REMARK    8  A    between atoms: N_11  and  C_12
REMARK    9  A    between atoms: C_12  and  C_13
REMARK   10  A    between atoms: C_12  and  C_14
REMARK   11  A    between atoms: N_16  and  C_17
REMARK   12  A    between atoms: C_17  and  C_18
REMARK   13  A    between atoms: C_17  and  C_24
REMARK   14  A    between atoms: C_30  and  C_31
REMARK   15  A    between atoms: C_30  and  C_32
REMARK                            x       y       z     vdW  Elec       q    Type
REMARK                         _______ _______ _______ _____ _____    ______ ____
ROOT
ATOM      1  C   UNL     1       1.566   9.118  20.085  0.00  0.00    +0.000 C 
ATOM      2  C   UNL     1       0.784   8.284  21.097  0.00  0.00    +0.000 C 
ENDROOT
BRANCH   1   5
ATOM      3  C   UNL     1       0.752  11.466  20.204  0.00  0.00    +0.000 C 
ATOM      4  O   UNL     1       1.325  11.679  21.268  0.00  0.00    +0.000 OA
ATOM      5  N   UNL     1       0.798  10.244  19.578  0.00  0.00    +0.000 N 
ATOM      6  H   UNL     1       0.308  10.102  18.699  0.00  0.00    +0.000 HD
BRANCH   3   7
ATOM      7  C   UNL     1      -0.115  12.540  19.499  0.00  0.00    +0.000 C 
BRANCH   7  10
ATOM      8  C   UNL     1      -2.164  11.800  18.290  0.00  0.00    +0.000 C 
ATOM      9  O   UNL     1      -1.669  11.998  17.184  0.00  0.00    +0.000 OA
ATOM     10  N   UNL     1      -1.520  12.102  19.475  0.00  0.00    +0.000 N 
ATOM     11  H   UNL     1      -1.918  11.644  20.293  0.00  0.00    +0.000 HD
BRANCH   8  12
ATOM     12  C   UNL     1      -3.600  11.253  18.453  0.00  0.00    +0.000 C 
ATOM     13  C   UNL     1      -3.790  10.074  17.500  0.00  0.00    +0.000 C 
BRANCH  12  15
ATOM     14  C   UNL     1      -5.553  12.439  19.309  0.00  0.00    +0.000 C 
ATOM     15  N   UNL     1      -4.581  12.350  18.220  0.00  0.00    +0.000 NA
ATOM     16  H   UNL     1      -4.057  13.228  18.205  0.00  0.00    +0.000 HD
ENDBRANCH  12  15
ENDBRANCH   8  12
ENDBRANCH   7  10
BRANCH   7  17
ATOM     17  C   UNL     1       0.046  13.965  20.095  0.00  0.00    +0.000 C 
ATOM     18  C   UNL     1       0.190  15.082  19.056  0.00  0.00    +0.000 C 
ATOM     19  C   UNL     1      -1.080  14.310  21.075  0.00  0.00    +0.000 C 
ENDBRANCH   7  17
ENDBRANCH   3   7
ENDBRANCH   1   5
BRANCH   1  20
ATOM     20  C   UNL     1       1.943   8.251  18.870  0.00  0.00    +0.000 C 
ATOM     21  O   UNL     1       1.768   8.640  17.717  0.00  0.00    +0.000 OA
ATOM     22  N   UNL     1       2.447   7.019  19.195  0.00  0.00    +0.000 N 
ATOM     23  H   UNL     1       2.670   6.815  20.159  0.00  0.00    +0.000 HD
BRANCH  22  24
ATOM     24  C   UNL     1       2.897   6.057  18.202  0.00  0.00    +0.000 C 
BRANCH  24  25
ATOM     25  C   UNL     1       4.427   6.050  18.181  0.00  0.00    +0.000 A 
ATOM     26  C   UNL     1       5.136   6.768  17.201  0.00  0.00    +0.000 A 
ATOM     27  C   UNL     1       6.530   6.815  17.218  0.00  0.00    +0.000 A 
ATOM     28  C   UNL     1       7.236   6.144  18.214  0.00  0.00    +0.000 A 
ATOM     29  C   UNL     1       6.548   5.426  19.191  0.00  0.00    +0.000 A 
ATOM     30  C   UNL     1       5.152   5.375  19.175  0.00  0.00    +0.000 A 
ENDBRANCH  24  25
BRANCH  24  31
ATOM     31  C   UNL     1       2.336   4.657  18.467  0.00  0.00    +0.000 A 
ATOM     32  C   UNL     1       1.540   4.360  19.582  0.00  0.00    +0.000 A 
ATOM     33  C   UNL     1       1.131   3.049  19.842  0.00  0.00    +0.000 A 
ATOM     34  C   UNL     1       1.496   2.018  18.974  0.00  0.00    +0.000 A 
ATOM     35  C   UNL     1       2.237   2.303  17.835  0.00  0.00    +0.000 A 
ATOM     36  C   UNL     1       2.649   3.612  17.576  0.00  0.00    +0.000 A 
ENDBRANCH  24  31
ENDBRANCH  22  24
ENDBRANCH   1  20
TORSDOF 10
ENDMDL
MODEL 5
REMARK VINA RESULT:      -7.9      2.226      4.598
REMARK  Name = 
REMARK  15 active torsions:
REMARK  status: ('A' for Active; 'I' for Inactive)
REMARK    1  A    between atoms: C_1  and  N_2
REMARK    2  A    between atoms: N_2  and  C_3
REMARK    3  A    between atoms: C_3  and  C_4
REMARK    4  A    between atoms: C_3  and  C_5
REMARK    5  A    between atoms: N_7  and  C_8
REMARK    6  A    between atoms: C_8  and  C_9
REMARK    7  A    between atoms: C_8  and  C_30
REMARK    8  A    between atoms: N_11  and  C_12
REMARK    9  A    between atoms: C_12  and  C_13
REMARK   10  A    between atoms: C_12  and  C_14
REMARK   11  A    between atoms: N_16  and  C_17
REMARK   12  A    between atoms: C_17  and  C_18
REMARK   13  A    between atoms: C_17  and  C_24
REMARK   14  A    between atoms: C_30  and  C_31
REMARK   15  A    between atoms: C_30  and  C_32
REMARK                            x       y       z     vdW  Elec       q    Type
REMARK                         _______ _______ _______ _____ _____    ______ ____
ROOT
ATOM      1  C   UNL     1       1.058   9.241  19.212  0.00  0.00    +0.000 C 
ATOM      2  C   UNL     1       1.804   9.665  17.950  0.00  0.00    +0.000 C 
ENDROOT
BRANCH   1   5
ATOM      3  C   UNL     1      -0.128  11.085  20.389  0.00  0.00    +0.000 C 
ATOM      4  O   UNL     1      -1.134  10.967  19.697  0.00  0.00    +0.000 OA
ATOM      5  N   UNL     1       0.987  10.305  20.202  0.00  0.00    +0.000 N 
ATOM      6  H   UNL     1       1.805  10.433  20.792  0.00  0.00    +0.000 HD
BRANCH   3   7
ATOM      7  C   UNL     1      -0.007  12.159  21.500  0.00  0.00    +0.000 C 
BRANCH   7  10
ATOM      8  C   UNL     1       0.645  14.555  21.304  0.00  0.00    +0.000 C 
ATOM      9  O   UNL     1       1.429  14.493  22.248  0.00  0.00    +0.000 OA
ATOM     10  N   UNL     1      -0.155  13.498  20.911  0.00  0.00    +0.000 N 
ATOM     11  H   UNL     1      -0.540  13.596  19.973  0.00  0.00    +0.000 HD
BRANCH   8  12
ATOM     12  C   UNL     1       0.431  15.862  20.508  0.00  0.00    +0.000 C 
ATOM     13  C   UNL     1      -0.562  15.596  19.379  0.00  0.00    +0.000 C 
BRANCH  12  15
ATOM     14  C   UNL     1       1.965  16.014  18.617  0.00  0.00    +0.000 C 
ATOM     15  N   UNL     1       1.744  16.368  20.019  0.00  0.00    +0.000 NA
ATOM     16  H   UNL     1       1.717  17.389  20.076  0.00  0.00    +0.000 HD
ENDBRANCH  12  15
ENDBRANCH   8  12
ENDBRANCH   7  10
BRANCH   7  17
ATOM     17  C   UNL     1      -0.973  11.934  22.696  0.00  0.00    +0.000 C 
ATOM     18  C   UNL     1      -2.403  12.432  22.468  0.00  0.00    +0.000 C 
ATOM     19  C   UNL     1      -0.999  10.470  23.148  0.00  0.00    +0.000 C 
ENDBRANCH   7  17
ENDBRANCH   3   7
ENDBRANCH   1   5
BRANCH   1  20
ATOM     20  C   UNL     1       1.784   8.059  19.880  0.00  0.00    +0.000 C 
ATOM     21  O   UNL     1       1.690   7.837  21.085  0.00  0.00    +0.000 OA
ATOM     22  N   UNL     1       2.556   7.320  19.022  0.00  0.00    +0.000 N 
ATOM     23  H   UNL     1       2.493   7.490  18.029  0.00  0.00    +0.000 HD
BRANCH  22  24
ATOM     24  C   UNL     1       3.299   6.140  19.437  0.00  0.00    +0.000 C 
BRANCH  24  25
ATOM     25  C   UNL     1       2.357   4.936  19.424  0.00  0.00    +0.000 A 
ATOM     26  C   UNL     1       1.975   4.333  18.211  0.00  0.00    +0.000 A 
ATOM     27  C   UNL     1       1.168   3.195  18.201  0.00  0.00    +0.000 A 
ATOM     28  C   UNL     1       0.729   2.644  19.402  0.00  0.00    +0.000 A 
ATOM     29  C   UNL     1       1.095   3.230  20.612  0.00  0.00    +0.000 A 
ATOM     30  C   UNL     1       1.902   4.372  20.626  0.00  0.00    +0.000 A 
ENDBRANCH  24  25
BRANCH  24  31
ATOM     31  C   UNL     1       4.526   5.899  18.554  0.00  0.00    +0.000 A 
ATOM     32  C   UNL     1       5.577   5.052  18.935  0.00  0.00    +0.000 A 
ATOM     33  C   UNL     1       6.726   4.936  18.148  0.00  0.00    +0.000 A 
ATOM     34  C   UNL     1       6.829   5.652  16.954  0.00  0.00    +0.000 A 
ATOM     35  C   UNL     1       5.776   6.453  16.534  0.00  0.00    +0.000 A 
ATOM     36  C   UNL     1       4.628   6.572  17.322  0.00  0.00    +0.000 A 
ENDBRANCH  24  31
ENDBRANCH  22  24
ENDBRANCH   1  20
TORSDOF 10
ENDMDL
MODEL 6
REMARK VINA RESULT:      -7.9      1.474      3.103
REMARK  Name = 
REMARK  15 active torsions:
REMARK  status: ('A' for Active; 'I' for Inactive)
REMARK    1  A    between atoms: C_1  and  N_2
REMARK    2  A    between atoms: N_2  and  C_3
REMARK    3  A    between atoms: C_3  and  C_4
REMARK    4  A    between atoms: C_3  and  C_5
REMARK    5  A    between atoms: N_7  and  C_8
REMARK    6  A    between atoms: C_8  and  C_9
REMARK    7  A    between atoms: C_8  and  C_30
REMARK    8  A    between atoms: N_11  and  C_12
REMARK    9  A    between atoms: C_12  and  C_13
REMARK   10  A    between atoms: C_12  and  C_14
REMARK   11  A    between atoms: N_16  and  C_17
REMARK   12  A    between atoms: C_17  and  C_18
REMARK   13  A    between atoms: C_17  and  C_24
REMARK   14  A    between atoms: C_30  and  C_31
REMARK   15  A    between atoms: C_30  and  C_32
REMARK                            x       y       z     vdW  Elec       q    Type
REMARK                         _______ _______ _______ _____ _____    ______ ____
ROOT
ATOM      1  C   UNL     1       1.333   9.486  19.957  0.00  0.00    +0.000 C 
ATOM      2  C   UNL     1       1.450   8.797  21.314  0.00  0.00    +0.000 C 
ENDROOT
BRANCH   1   5
ATOM      3  C   UNL     1      -0.266  11.231  19.192  0.00  0.00    +0.000 C 
ATOM      4  O   UNL     1       0.628  12.042  18.965  0.00  0.00    +0.000 OA
ATOM      5  N   UNL     1      -0.011   9.980  19.697  0.00  0.00    +0.000 N 
ATOM      6  H   UNL     1      -0.775   9.336  19.876  0.00  0.00    +0.000 HD
BRANCH   3   7
ATOM      7  C   UNL     1      -1.763  11.566  18.976  0.00  0.00    +0.000 C 
BRANCH   7  10
ATOM      8  C   UNL     1      -2.380  13.273  20.683  0.00  0.00    +0.000 C 
ATOM      9  O   UNL     1      -2.633  12.429  21.539  0.00  0.00    +0.000 OA
ATOM     10  N   UNL     1      -2.023  12.955  19.386  0.00  0.00    +0.000 N 
ATOM     11  H   UNL     1      -1.584  13.721  18.877  0.00  0.00    +0.000 HD
BRANCH   8  12
ATOM     12  C   UNL     1      -2.508  14.786  20.969  0.00  0.00    +0.000 C 
ATOM     13  C   UNL     1      -3.990  15.156  21.007  0.00  0.00    +0.000 C 
BRANCH  12  15
ATOM     14  C   UNL     1      -2.108  16.970  19.958  0.00  0.00    +0.000 C 
ATOM     15  N   UNL     1      -1.745  15.554  19.947  0.00  0.00    +0.000 NA
ATOM     16  H   UNL     1      -0.754  15.490  20.196  0.00  0.00    +0.000 HD
ENDBRANCH  12  15
ENDBRANCH   8  12
ENDBRANCH   7  10
BRANCH   7  17
ATOM     17  C   UNL     1      -2.270  11.275  17.536  0.00  0.00    +0.000 C 
ATOM     18  C   UNL     1      -1.954   9.868  17.018  0.00  0.00    +0.000 C 
ATOM     19  C   UNL     1      -3.767  11.560  17.384  0.00  0.00    +0.000 C 
ENDBRANCH   7  17
ENDBRANCH   3   7
ENDBRANCH   1   5
BRANCH   1  20
ATOM     20  C   UNL     1       1.667   8.489  18.832  0.00  0.00    +0.000 C 
ATOM     21  O   UNL     1       1.420   8.736  17.653  0.00  0.00    +0.000 OA
ATOM     22  N   UNL     1       2.218   7.314  19.270  0.00  0.00    +0.000 N 
ATOM     23  H   UNL     1       2.498   7.229  20.237  0.00  0.00    +0.000 HD
BRANCH  22  24
ATOM     24  C   UNL     1       2.639   6.250  18.372  0.00  0.00    +0.000 C 
BRANCH  24  25
ATOM     25  C   UNL     1       4.167   6.241  18.303  0.00  0.00    +0.000 A 
ATOM     26  C   UNL     1       4.925   5.508  19.235  0.00  0.00    +0.000 A 
ATOM     27  C   UNL     1       6.316   5.447  19.136  0.00  0.00    +0.000 A 
ATOM     28  C   UNL     1       6.968   6.116  18.104  0.00  0.00    +0.000 A 
ATOM     29  C   UNL     1       6.232   6.848  17.173  0.00  0.00    +0.000 A 
ATOM     30  C   UNL     1       4.840   6.914  17.272  0.00  0.00    +0.000 A 
ENDBRANCH  24  25
BRANCH  24  31
ATOM     31  C   UNL     1       2.091   4.887  18.804  0.00  0.00    +0.000 A 
ATOM     32  C   UNL     1       2.024   3.789  17.936  0.00  0.00    +0.000 A 
ATOM     33  C   UNL     1       1.425   2.592  18.338  0.00  0.00    +0.000 A 
ATOM     34  C   UNL     1       0.902   2.472  19.627  0.00  0.00    +0.000 A 
ATOM     35  C   UNL     1       1.010   3.530  20.519  0.00  0.00    +0.000 A 
ATOM     36  C   UNL     1       1.606   4.728  20.117  0.00  0.00    +0.000 A 
ENDBRANCH  24  31
ENDBRANCH  22  24
ENDBRANCH   1  20
TORSDOF 10
ENDMDL
MODEL 7
REMARK VINA RESULT:      -7.8      2.268      4.545
REMARK  Name = 
REMARK  15 active torsions:
REMARK  status: ('A' for Active; 'I' for Inactive)
REMARK    1  A    between atoms: C_1  and  N_2
REMARK    2  A    between atoms: N_2  and  C_3
REMARK    3  A    between atoms: C_3  and  C_4
REMARK    4  A    between atoms: C_3  and  C_5
REMARK    5  A    between atoms: N_7  and  C_8
REMARK    6  A    between atoms: C_8  and  C_9
REMARK    7  A    between atoms: C_8  and  C_30
REMARK    8  A    between atoms: N_11  and  C_12
REMARK    9  A    between atoms: C_12  and  C_13
REMARK   10  A    between atoms: C_12  and  C_14
REMARK   11  A    between atoms: N_16  and  C_17
REMARK   12  A    between atoms: C_17  and  C_18
REMARK   13  A    between atoms: C_17  and  C_24
REMARK   14  A    between atoms: C_30  and  C_31
REMARK   15  A    between atoms: C_30  and  C_32
REMARK                            x       y       z     vdW  Elec       q    Type
REMARK                         _______ _______ _______ _____ _____    ______ ____
ROOT
ATOM      1  C   UNL     1       1.086   9.174  19.158  0.00  0.00    +0.000 C 
ATOM      2  C   UNL     1       1.793   9.618  17.880  0.00  0.00    +0.000 C 
ENDROOT
BRANCH   1   5
ATOM      3  C   UNL     1      -0.061  11.096  20.243  0.00  0.00    +0.000 C 
ATOM      4  O   UNL     1      -1.006  11.056  19.461  0.00  0.00    +0.000 OA
ATOM      5  N   UNL     1       1.005  10.236  20.149  0.00  0.00    +0.000 N 
ATOM      6  H   UNL     1       1.773  10.299  20.811  0.00  0.00    +0.000 HD
BRANCH   3   7
ATOM      7  C   UNL     1       0.037  12.153  21.372  0.00  0.00    +0.000 C 
BRANCH   7  10
ATOM      8  C   UNL     1       1.581  13.991  20.707  0.00  0.00    +0.000 C 
ATOM      9  O   UNL     1       2.557  13.456  21.227  0.00  0.00    +0.000 OA
ATOM     10  N   UNL     1       0.301  13.477  20.787  0.00  0.00    +0.000 N 
ATOM     11  H   UNL     1      -0.345  13.861  20.099  0.00  0.00    +0.000 HD
BRANCH   8  12
ATOM     12  C   UNL     1       1.693  15.344  19.968  0.00  0.00    +0.000 C 
ATOM     13  C   UNL     1       0.586  15.425  18.919  0.00  0.00    +0.000 C 
BRANCH  12  15
ATOM     14  C   UNL     1       3.042  16.310  18.180  0.00  0.00    +0.000 C 
ATOM     15  N   UNL     1       3.056  15.482  19.385  0.00  0.00    +0.000 NA
ATOM     16  H   UNL     1       3.636  15.961  20.078  0.00  0.00    +0.000 HD
ENDBRANCH  12  15
ENDBRANCH   8  12
ENDBRANCH   7  10
BRANCH   7  17
ATOM     17  C   UNL     1      -1.188  12.165  22.326  0.00  0.00    +0.000 C 
ATOM     18  C   UNL     1      -1.338  10.912  23.195  0.00  0.00    +0.000 C 
ATOM     19  C   UNL     1      -1.216  13.416  23.211  0.00  0.00    +0.000 C 
ENDBRANCH   7  17
ENDBRANCH   3   7
ENDBRANCH   1   5
BRANCH   1  20
ATOM     20  C   UNL     1       1.861   8.013  19.810  0.00  0.00    +0.000 C 
ATOM     21  O   UNL     1       1.820   7.805  21.021  0.00  0.00    +0.000 OA
ATOM     22  N   UNL     1       2.614   7.278  18.931  0.00  0.00    +0.000 N 
ATOM     23  H   UNL     1       2.507   7.435  17.939  0.00  0.00    +0.000 HD
BRANCH  22  24
ATOM     24  C   UNL     1       3.395   6.119  19.330  0.00  0.00    +0.000 C 
BRANCH  24  25
ATOM     25  C   UNL     1       2.474   4.898  19.380  0.00  0.00    +0.000 A 
ATOM     26  C   UNL     1       2.026   4.386  20.612  0.00  0.00    +0.000 A 
ATOM     27  C   UNL     1       1.135   3.313  20.657  0.00  0.00    +0.000 A 
ATOM     28  C   UNL     1       0.682   2.735  19.474  0.00  0.00    +0.000 A 
ATOM     29  C   UNL     1       1.118   3.229  18.246  0.00  0.00    +0.000 A 
ATOM     30  C   UNL     1       2.012   4.302  18.197  0.00  0.00    +0.000 A 
ENDBRANCH  24  25
BRANCH  24  31
ATOM     31  C   UNL     1       4.585   5.883  18.396  0.00  0.00    +0.000 A 
ATOM     32  C   UNL     1       4.656   6.432  17.108  0.00  0.00    +0.000 A 
ATOM     33  C   UNL     1       5.711   6.112  16.249  0.00  0.00    +0.000 A 
ATOM     34  C   UNL     1       6.723   5.251  16.677  0.00  0.00    +0.000 A 
ATOM     35  C   UNL     1       6.698   4.741  17.968  0.00  0.00    +0.000 A 
ATOM     36  C   UNL     1       5.642   5.058  18.826  0.00  0.00    +0.000 A 
ENDBRANCH  24  31
ENDBRANCH  22  24
ENDBRANCH   1  20
TORSDOF 10
ENDMDL
MODEL 8
REMARK VINA RESULT:      -7.8      1.599      3.227
REMARK  Name = 
REMARK  15 active torsions:
REMARK  status: ('A' for Active; 'I' for Inactive)
REMARK    1  A    between atoms: C_1  and  N_2
REMARK    2  A    between atoms: N_2  and  C_3
REMARK    3  A    between atoms: C_3  and  C_4
REMARK    4  A    between atoms: C_3  and  C_5
REMARK    5  A    between atoms: N_7  and  C_8
REMARK    6  A    between atoms: C_8  and  C_9
REMARK    7  A    between atoms: C_8  and  C_30
REMARK    8  A    between atoms: N_11  and  C_12
REMARK    9  A    between atoms: C_12  and  C_13
REMARK   10  A    between atoms: C_12  and  C_14
REMARK   11  A    between atoms: N_16  and  C_17
REMARK   12  A    between atoms: C_17  and  C_18
REMARK   13  A    between atoms: C_17  and  C_24
REMARK   14  A    between atoms: C_30  and  C_31
REMARK   15  A    between atoms: C_30  and  C_32
REMARK                            x       y       z     vdW  Elec       q    Type
REMARK                         _______ _______ _______ _____ _____    ______ ____
ROOT
ATOM      1  C   UNL     1       1.483   9.153  20.221  0.00  0.00    +0.000 C 
ATOM      2  C   UNL     1       1.350   8.264  21.455  0.00  0.00    +0.000 C 
ENDROOT
BRANCH   1   5
ATOM      3  C   UNL     1      -0.105  11.042  20.531  0.00  0.00    +0.000 C 
ATOM      4  O   UNL     1       0.571  11.548  21.422  0.00  0.00    +0.000 OA
ATOM      5  N   UNL     1       0.254   9.869  19.915  0.00  0.00    +0.000 N 
ATOM      6  H   UNL     1      -0.331   9.476  19.183  0.00  0.00    +0.000 HD
BRANCH   3   7
ATOM      7  C   UNL     1      -1.447  11.656  20.058  0.00  0.00    +0.000 C 
BRANCH   7  10
ATOM      8  C   UNL     1      -3.396  12.729  21.179  0.00  0.00    +0.000 C 
ATOM      9  O   UNL     1      -4.159  12.480  20.249  0.00  0.00    +0.000 OA
ATOM     10  N   UNL     1      -2.045  12.437  21.152  0.00  0.00    +0.000 N 
ATOM     11  H   UNL     1      -1.600  12.443  22.068  0.00  0.00    +0.000 HD
BRANCH   8  12
ATOM     12  C   UNL     1      -3.876  13.464  22.451  0.00  0.00    +0.000 C 
ATOM     13  C   UNL     1      -2.655  13.933  23.240  0.00  0.00    +0.000 C 
BRANCH  12  15
ATOM     14  C   UNL     1      -4.307  12.436  24.622  0.00  0.00    +0.000 C 
ATOM     15  N   UNL     1      -4.766  12.567  23.239  0.00  0.00    +0.000 NA
ATOM     16  H   UNL     1      -5.692  13.002  23.263  0.00  0.00    +0.000 HD
ENDBRANCH  12  15
ENDBRANCH   8  12
ENDBRANCH   7  10
BRANCH   7  17
ATOM     17  C   UNL     1      -1.333  12.476  18.744  0.00  0.00    +0.000 C 
ATOM     18  C   UNL     1       0.059  13.054  18.467  0.00  0.00    +0.000 C 
ATOM     19  C   UNL     1      -1.817  11.683  17.527  0.00  0.00    +0.000 C 
ENDBRANCH   7  17
ENDBRANCH   3   7
ENDBRANCH   1   5
BRANCH   1  20
ATOM     20  C   UNL     1       1.817   8.293  18.988  0.00  0.00    +0.000 C 
ATOM     21  O   UNL     1       1.567   8.672  17.846  0.00  0.00    +0.000 OA
ATOM     22  N   UNL     1       2.374   7.076  19.288  0.00  0.00    +0.000 N 
ATOM     23  H   UNL     1       2.656   6.883  20.237  0.00  0.00    +0.000 HD
BRANCH  22  24
ATOM     24  C   UNL     1       2.796   6.124  18.273  0.00  0.00    +0.000 C 
BRANCH  24  25
ATOM     25  C   UNL     1       4.324   6.128  18.199  0.00  0.00    +0.000 A 
ATOM     26  C   UNL     1       4.994   6.848  17.192  0.00  0.00    +0.000 A 
ATOM     27  C   UNL     1       6.387   6.905  17.161  0.00  0.00    +0.000 A 
ATOM     28  C   UNL     1       7.132   6.244  18.135  0.00  0.00    +0.000 A 
ATOM     29  C   UNL     1       6.484   5.524  19.137  0.00  0.00    +0.000 A 
ATOM     30  C   UNL     1       5.088   5.463  19.170  0.00  0.00    +0.000 A 
ENDBRANCH  24  25
BRANCH  24  31
ATOM     31  C   UNL     1       2.254   4.719  18.547  0.00  0.00    +0.000 A 
ATOM     32  C   UNL     1       2.460   3.645  17.671  0.00  0.00    +0.000 A 
ATOM     33  C   UNL     1       1.864   2.403  17.906  0.00  0.00    +0.000 A 
ATOM     34  C   UNL     1       1.068   2.213  19.038  0.00  0.00    +0.000 A 
ATOM     35  C   UNL     1       0.898   3.250  19.945  0.00  0.00    +0.000 A 
ATOM     36  C   UNL     1       1.491   4.493  19.709  0.00  0.00    +0.000 A 
ENDBRANCH  24  31
ENDBRANCH  22  24
ENDBRANCH   1  20
TORSDOF 10
ENDMDL
MODEL 9
REMARK VINA RESULT:      -7.8      1.266      3.402
REMARK  Name = 
REMARK  15 active torsions:
REMARK  status: ('A' for Active; 'I' for Inactive)
REMARK    1  A    between atoms: C_1  and  N_2
REMARK    2  A    between atoms: N_2  and  C_3
REMARK    3  A    between atoms: C_3  and  C_4
REMARK    4  A    between atoms: C_3  and  C_5
REMARK    5  A    between atoms: N_7  and  C_8
REMARK    6  A    between atoms: C_8  and  C_9
REMARK    7  A    between atoms: C_8  and  C_30
REMARK    8  A    between atoms: N_11  and  C_12
REMARK    9  A    between atoms: C_12  and  C_13
REMARK   10  A    between atoms: C_12  and  C_14
REMARK   11  A    between atoms: N_16  and  C_17
REMARK   12  A    between atoms: C_17  and  C_18
REMARK   13  A    between atoms: C_17  and  C_24
REMARK   14  A    between atoms: C_30  and  C_31
REMARK   15  A    between atoms: C_30  and  C_32
REMARK                            x       y       z     vdW  Elec       q    Type
REMARK                         _______ _______ _______ _____ _____    ______ ____
ROOT
ATOM      1  C   UNL     1       1.444   9.147  20.113  0.00  0.00    +0.000 C 
ATOM      2  C   UNL     1       1.606   8.340  21.399  0.00  0.00    +0.000 C 
ENDROOT
BRANCH   1   5
ATOM      3  C   UNL     1      -0.226  10.820  19.338  0.00  0.00    +0.000 C 
ATOM      4  O   UNL     1       0.640  11.616  18.987  0.00  0.00    +0.000 OA
ATOM      5  N   UNL     1       0.080   9.612  19.915  0.00  0.00    +0.000 N 
ATOM      6  H   UNL     1      -0.663   8.978  20.197  0.00  0.00    +0.000 HD
BRANCH   3   7
ATOM      7  C   UNL     1      -1.739  11.128  19.206  0.00  0.00    +0.000 C 
BRANCH   7  10
ATOM      8  C   UNL     1      -1.875  12.426  21.329  0.00  0.00    +0.000 C 
ATOM      9  O   UNL     1      -1.562  11.461  22.022  0.00  0.00    +0.000 OA
ATOM     10  N   UNL     1      -2.061  12.349  19.961  0.00  0.00    +0.000 N 
ATOM     11  H   UNL     1      -2.046  13.252  19.489  0.00  0.00    +0.000 HD
BRANCH   8  12
ATOM     12  C   UNL     1      -2.160  13.813  21.947  0.00  0.00    +0.000 C 
ATOM     13  C   UNL     1      -1.660  13.822  23.390  0.00  0.00    +0.000 C 
BRANCH  12  15
ATOM     14  C   UNL     1      -4.393  13.398  22.839  0.00  0.00    +0.000 C 
ATOM     15  N   UNL     1      -3.613  14.120  21.834  0.00  0.00    +0.000 NA
ATOM     16  H   UNL     1      -3.728  15.120  22.018  0.00  0.00    +0.000 HD
ENDBRANCH  12  15
ENDBRANCH   8  12
ENDBRANCH   7  10
BRANCH   7  17
ATOM     17  C   UNL     1      -2.239  11.197  17.737  0.00  0.00    +0.000 C 
ATOM     18  C   UNL     1      -1.942   9.948  16.900  0.00  0.00    +0.000 C 
ATOM     19  C   UNL     1      -3.730  11.536  17.653  0.00  0.00    +0.000 C 
ENDBRANCH   7  17
ENDBRANCH   3   7
ENDBRANCH   1   5
BRANCH   1  20
ATOM     20  C   UNL     1       1.798   8.272  18.896  0.00  0.00    +0.000 C 
ATOM     21  O   UNL     1       1.573   8.641  17.746  0.00  0.00    +0.000 OA
ATOM     22  N   UNL     1       2.340   7.055  19.220  0.00  0.00    +0.000 N 
ATOM     23  H   UNL     1       2.602   6.870  20.177  0.00  0.00    +0.000 HD
BRANCH  22  24
ATOM     24  C   UNL     1       2.778   6.090  18.224  0.00  0.00    +0.000 C 
BRANCH  24  25
ATOM     25  C   UNL     1       4.307   6.077  18.189  0.00  0.00    +0.000 A 
ATOM     26  C   UNL     1       5.009   6.792  17.201  0.00  0.00    +0.000 A 
ATOM     27  C   UNL     1       6.404   6.834  17.205  0.00  0.00    +0.000 A 
ATOM     28  C   UNL     1       7.116   6.161  18.195  0.00  0.00    +0.000 A 
ATOM     29  C   UNL     1       6.435   5.446  19.178  0.00  0.00    +0.000 A 
ATOM     30  C   UNL     1       5.039   5.400  19.176  0.00  0.00    +0.000 A 
ENDBRANCH  24  25
BRANCH  24  31
ATOM     31  C   UNL     1       2.213   4.693  18.496  0.00  0.00    +0.000 A 
ATOM     32  C   UNL     1       1.434   4.399  19.623  0.00  0.00    +0.000 A 
ATOM     33  C   UNL     1       1.022   3.090  19.889  0.00  0.00    +0.000 A 
ATOM     34  C   UNL     1       1.368   2.058  19.014  0.00  0.00    +0.000 A 
ATOM     35  C   UNL     1       2.092   2.340  17.863  0.00  0.00    +0.000 A 
ATOM     36  C   UNL     1       2.507   3.648  17.599  0.00  0.00    +0.000 A 
ENDBRANCH  24  31
ENDBRANCH  22  24
ENDBRANCH   1  20
TORSDOF 10
ENDMDL
