MODEL 1
REMARK VINA RESULT:      -7.7      0.000      0.000
REMARK  Name = 
REMARK  8 active torsions:
REMARK  status: ('A' for Active; 'I' for Inactive)
REMARK    1  A    between atoms: C_1  and  C_2
REMARK    2  A    between atoms: C_2  and  C_3
REMARK    3  A    between atoms: C_3  and  O_4
REMARK    4  A    between atoms: O_4  and  C_5
REMARK    5  A    between atoms: C_5  and  C_7
REMARK    6  A    between atoms: N_15  and  O_16
REMARK    7  A    between atoms: O_16  and  S_17
REMARK    8  A    between atoms: S_17  and  O_20
REMARK                            x       y       z     vdW  Elec       q    Type
REMARK                         _______ _______ _______ _____ _____    ______ ____
ROOT
ATOM      1  C   UNL     1       6.141   5.666  17.684  0.00  0.00    +0.000 C 
ATOM      2  C   UNL     1       5.111   6.701  17.155  0.00  0.00    +0.000 C 
ATOM      3  C   UNL     1       5.013   6.667  15.615  0.00  0.00    +0.000 C 
ATOM      4  C   UNL     1       4.914   5.203  15.060  0.00  0.00    +0.000 C 
ATOM      5  C   UNL     1       4.842   4.222  16.225  0.00  0.00    +0.000 C 
ATOM      6  N   UNL     1       6.145   4.490  16.787  0.00  0.00    +0.000 N 
ATOM      7  C   UNL     1       7.040   4.606  15.658  0.00  0.00    +0.000 C 
ATOM      8  O   UNL     1       8.240   4.831  15.690  0.00  0.00    +0.000 OA
ATOM      9  N   UNL     1       6.203   4.820  14.477  0.00  0.00    +0.000 N 
ENDROOT
BRANCH   1  10
ATOM     10  C   UNL     1       5.802   5.310  19.137  0.00  0.00    +0.000 C 
ATOM     11  O   UNL     1       6.605   4.811  19.917  0.00  0.00    +0.000 OA
BRANCH  10  12
ATOM     12  O   UNL     1       4.499   5.571  19.435  0.00  0.00    +0.000 OA
BRANCH  12  13
ATOM     13  C   UNL     1       3.737   4.429  19.836  0.00  0.00    +0.000 C 
BRANCH  13  15
ATOM     14  C   UNL     1       1.858   6.069  20.226  0.00  0.00    +0.000 C 
ATOM     15  C   UNL     1       2.207   4.639  19.772  0.00  0.00    +0.000 C 
ATOM     16  C   UNL     1       1.747   4.439  18.308  0.00  0.00    +0.000 C 
ATOM     17  C   UNL     1       1.853   2.979  17.858  0.00  0.00    +0.000 C 
ATOM     18  N   UNL     1       1.100   2.094  18.742  0.00  0.00    +0.000 NA
ATOM     19  C   UNL     1       1.532   2.197  20.136  0.00  0.00    +0.000 C 
ATOM     20  C   UNL     1       1.439   3.633  20.657  0.00  0.00    +0.000 C 
ATOM     21  H   UNL     1       1.220   1.130  18.431  0.00  0.00    +0.000 HD
ENDBRANCH  13  15
ENDBRANCH  12  13
ENDBRANCH  10  12
ENDBRANCH   1  10
BRANCH   9  22
ATOM     22  O   UNL     1       5.928   3.516  13.901  0.00  0.00    +0.000 OA
BRANCH  22  23
ATOM     23  S   UNL     1       5.914   3.369  12.270  0.00  0.00    +0.000 S 
ATOM     24  O   UNL     1       4.587   3.655  11.791  0.00  0.00    +0.000 OA
ATOM     25  O   UNL     1       7.066   4.083  11.756  0.00  0.00    +0.000 OA
BRANCH  23  26
ATOM     26  O   UNL     1       6.153   1.795  11.992  0.00  0.00    +0.000 OA
ATOM     27  H   UNL     1       7.018   1.574  12.400  0.00  0.00    +0.000 HD
ENDBRANCH  23  26
ENDBRANCH  22  23
ENDBRANCH   9  22
TORSDOF 7
ENDMDL
MODEL 2
REMARK VINA RESULT:      -7.5      0.639      1.025
REMARK  Name = 
REMARK  8 active torsions:
REMARK  status: ('A' for Active; 'I' for Inactive)
REMARK    1  A    between atoms: C_1  and  C_2
REMARK    2  A    between atoms: C_2  and  C_3
REMARK    3  A    between atoms: C_3  and  O_4
REMARK    4  A    between atoms: O_4  and  C_5
REMARK    5  A    between atoms: C_5  and  C_7
REMARK    6  A    between atoms: N_15  and  O_16
REMARK    7  A    between atoms: O_16  and  S_17
REMARK    8  A    between atoms: S_17  and  O_20
REMARK                            x       y       z     vdW  Elec       q    Type
REMARK                         _______ _______ _______ _____ _____    ______ ____
ROOT
ATOM      1  C   UNL     1       6.193   5.593  17.721  0.00  0.00    +0.000 C 
ATOM      2  C   UNL     1       5.091   6.584  17.255  0.00  0.00    +0.000 C 
ATOM      3  C   UNL     1       4.934   6.574  15.718  0.00  0.00    +0.000 C 
ATOM      4  C   UNL     1       4.888   5.117  15.138  0.00  0.00    +0.000 C 
ATOM      5  C   UNL     1       4.912   4.112  16.284  0.00  0.00    +0.000 C 
ATOM      6  N   UNL     1       6.221   4.437  16.800  0.00  0.00    +0.000 N 
ATOM      7  C   UNL     1       7.063   4.620  15.640  0.00  0.00    +0.000 C 
ATOM      8  O   UNL     1       8.251   4.905  15.630  0.00  0.00    +0.000 OA
ATOM      9  N   UNL     1       6.170   4.812  14.498  0.00  0.00    +0.000 N 
ENDROOT
BRANCH   1  10
ATOM     10  C   UNL     1       5.931   5.194  19.179  0.00  0.00    +0.000 C 
ATOM     11  O   UNL     1       6.821   4.937  19.981  0.00  0.00    +0.000 OA
BRANCH  10  12
ATOM     12  O   UNL     1       4.599   5.115  19.453  0.00  0.00    +0.000 OA
BRANCH  12  13
ATOM     13  C   UNL     1       4.131   3.800  19.767  0.00  0.00    +0.000 C 
BRANCH  13  15
ATOM     14  C   UNL     1       2.404   3.781  21.608  0.00  0.00    +0.000 C 
ATOM     15  C   UNL     1       2.620   3.730  20.084  0.00  0.00    +0.000 C 
ATOM     16  C   UNL     1       1.925   4.947  19.426  0.00  0.00    +0.000 C 
ATOM     17  C   UNL     1       1.901   4.849  17.899  0.00  0.00    +0.000 C 
ATOM     18  N   UNL     1       1.264   3.612  17.455  0.00  0.00    +0.000 NA
ATOM     19  C   UNL     1       1.916   2.421  18.000  0.00  0.00    +0.000 C 
ATOM     20  C   UNL     1       1.963   2.446  19.529  0.00  0.00    +0.000 C 
ATOM     21  H   UNL     1       1.295   3.567  16.436  0.00  0.00    +0.000 HD
ENDBRANCH  13  15
ENDBRANCH  12  13
ENDBRANCH  10  12
ENDBRANCH   1  10
BRANCH   9  22
ATOM     22  O   UNL     1       5.939   3.506  13.905  0.00  0.00    +0.000 OA
BRANCH  22  23
ATOM     23  S   UNL     1       5.916   3.381  12.273  0.00  0.00    +0.000 S 
ATOM     24  O   UNL     1       4.591   3.694  11.804  0.00  0.00    +0.000 OA
ATOM     25  O   UNL     1       7.076   4.084  11.763  0.00  0.00    +0.000 OA
BRANCH  23  26
ATOM     26  O   UNL     1       6.128   1.807  11.974  0.00  0.00    +0.000 OA
ATOM     27  H   UNL     1       6.195   1.721  10.998  0.00  0.00    +0.000 HD
ENDBRANCH  23  26
ENDBRANCH  22  23
ENDBRANCH   9  22
TORSDOF 7
ENDMDL
MODEL 3
REMARK VINA RESULT:      -7.4      1.013      1.853
REMARK  Name = 
REMARK  8 active torsions:
REMARK  status: ('A' for Active; 'I' for Inactive)
REMARK    1  A    between atoms: C_1  and  C_2
REMARK    2  A    between atoms: C_2  and  C_3
REMARK    3  A    between atoms: C_3  and  O_4
REMARK    4  A    between atoms: O_4  and  C_5
REMARK    5  A    between atoms: C_5  and  C_7
REMARK    6  A    between atoms: N_15  and  O_16
REMARK    7  A    between atoms: O_16  and  S_17
REMARK    8  A    between atoms: S_17  and  O_20
REMARK                            x       y       z     vdW  Elec       q    Type
REMARK                         _______ _______ _______ _____ _____    ______ ____
ROOT
ATOM      1  C   UNL     1       5.789   5.354  17.811  0.00  0.00    +0.000 C 
ATOM      2  C   UNL     1       4.983   6.506  17.149  0.00  0.00    +0.000 C 
ATOM      3  C   UNL     1       5.232   6.569  15.626  0.00  0.00    +0.000 C 
ATOM      4  C   UNL     1       5.152   5.153  14.954  0.00  0.00    +0.000 C 
ATOM      5  C   UNL     1       4.747   4.118  15.997  0.00  0.00    +0.000 C 
ATOM      6  N   UNL     1       5.907   4.236  16.850  0.00  0.00    +0.000 N 
ATOM      7  C   UNL     1       7.039   4.337  15.956  0.00  0.00    +0.000 C 
ATOM      8  O   UNL     1       8.215   4.451  16.267  0.00  0.00    +0.000 OA
ATOM      9  N   UNL     1       6.507   4.691  14.641  0.00  0.00    +0.000 N 
ENDROOT
BRANCH   1  10
ATOM     10  C   UNL     1       5.107   4.947  19.123  0.00  0.00    +0.000 C 
ATOM     11  O   UNL     1       4.594   5.749  19.895  0.00  0.00    +0.000 OA
BRANCH  10  12
ATOM     12  O   UNL     1       5.183   3.606  19.342  0.00  0.00    +0.000 OA
BRANCH  12  13
ATOM     13  C   UNL     1       4.108   3.065  20.117  0.00  0.00    +0.000 C 
BRANCH  13  15
ATOM     14  C   UNL     1       3.460   1.502  18.244  0.00  0.00    +0.000 C 
ATOM     15  C   UNL     1       2.934   2.522  19.271  0.00  0.00    +0.000 C 
ATOM     16  C   UNL     1       1.930   1.824  20.220  0.00  0.00    +0.000 C 
ATOM     17  C   UNL     1       1.195   2.818  21.124  0.00  0.00    +0.000 C 
ATOM     18  N   UNL     1       0.511   3.843  20.341  0.00  0.00    +0.000 NA
ATOM     19  C   UNL     1       1.423   4.578  19.465  0.00  0.00    +0.000 C 
ATOM     20  C   UNL     1       2.184   3.645  18.521  0.00  0.00    +0.000 C 
ATOM     21  H   UNL     1       0.061   4.503  20.976  0.00  0.00    +0.000 HD
ENDBRANCH  13  15
ENDBRANCH  12  13
ENDBRANCH  10  12
ENDBRANCH   1  10
BRANCH   9  22
ATOM     22  O   UNL     1       6.272   3.452  13.921  0.00  0.00    +0.000 OA
BRANCH  22  23
ATOM     23  S   UNL     1       6.242   3.491  12.284  0.00  0.00    +0.000 S 
ATOM     24  O   UNL     1       4.872   3.570  11.849  0.00  0.00    +0.000 OA
ATOM     25  O   UNL     1       7.222   4.468  11.852  0.00  0.00    +0.000 OA
BRANCH  23  26
ATOM     26  O   UNL     1       6.768   2.035  11.823  0.00  0.00    +0.000 OA
ATOM     27  H   UNL     1       7.397   1.739  12.517  0.00  0.00    +0.000 HD
ENDBRANCH  23  26
ENDBRANCH  22  23
ENDBRANCH   9  22
TORSDOF 7
ENDMDL
MODEL 4
REMARK VINA RESULT:      -7.2      1.023      1.397
REMARK  Name = 
REMARK  8 active torsions:
REMARK  status: ('A' for Active; 'I' for Inactive)
REMARK    1  A    between atoms: C_1  and  C_2
REMARK    2  A    between atoms: C_2  and  C_3
REMARK    3  A    between atoms: C_3  and  O_4
REMARK    4  A    between atoms: O_4  and  C_5
REMARK    5  A    between atoms: C_5  and  C_7
REMARK    6  A    between atoms: N_15  and  O_16
REMARK    7  A    between atoms: O_16  and  S_17
REMARK    8  A    between atoms: S_17  and  O_20
REMARK                            x       y       z     vdW  Elec       q    Type
REMARK                         _______ _______ _______ _____ _____    ______ ____
ROOT
ATOM      1  C   UNL     1       5.716   5.716  17.621  0.00  0.00    +0.000 C 
ATOM      2  C   UNL     1       5.014   6.851  16.828  0.00  0.00    +0.000 C 
ATOM      3  C   UNL     1       5.317   6.758  15.317  0.00  0.00    +0.000 C 
ATOM      4  C   UNL     1       5.162   5.294  14.772  0.00  0.00    +0.000 C 
ATOM      5  C   UNL     1       4.653   4.388  15.887  0.00  0.00    +0.000 C 
ATOM      6  N   UNL     1       5.790   4.509  16.770  0.00  0.00    +0.000 N 
ATOM      7  C   UNL     1       6.955   4.453  15.916  0.00  0.00    +0.000 C 
ATOM      8  O   UNL     1       8.125   4.519  16.262  0.00  0.00    +0.000 OA
ATOM      9  N   UNL     1       6.492   4.718  14.555  0.00  0.00    +0.000 N 
ENDROOT
BRANCH   1  10
ATOM     10  C   UNL     1       4.965   5.477  18.937  0.00  0.00    +0.000 C 
ATOM     11  O   UNL     1       5.504   5.072  19.961  0.00  0.00    +0.000 OA
BRANCH  10  12
ATOM     12  O   UNL     1       3.631   5.724  18.814  0.00  0.00    +0.000 OA
BRANCH  12  13
ATOM     13  C   UNL     1       2.821   5.156  19.848  0.00  0.00    +0.000 C 
BRANCH  13  15
ATOM     14  C   UNL     1       1.518   4.047  17.992  0.00  0.00    +0.000 C 
ATOM     15  C   UNL     1       2.064   3.878  19.423  0.00  0.00    +0.000 C 
ATOM     16  C   UNL     1       3.054   2.689  19.458  0.00  0.00    +0.000 C 
ATOM     17  C   UNL     1       3.466   2.315  20.884  0.00  0.00    +0.000 C 
ATOM     18  N   UNL     1       2.301   2.018  21.714  0.00  0.00    +0.000 NA
ATOM     19  C   UNL     1       1.354   3.132  21.766  0.00  0.00    +0.000 C 
ATOM     20  C   UNL     1       0.888   3.550  20.370  0.00  0.00    +0.000 C 
ATOM     21  H   UNL     1       2.612   1.806  22.662  0.00  0.00    +0.000 HD
ENDBRANCH  13  15
ENDBRANCH  12  13
ENDBRANCH  10  12
ENDBRANCH   1  10
BRANCH   9  22
ATOM     22  O   UNL     1       6.198   3.436  13.940  0.00  0.00    +0.000 OA
BRANCH  22  23
ATOM     23  S   UNL     1       6.040   3.366  12.312  0.00  0.00    +0.000 S 
ATOM     24  O   UNL     1       4.659   3.592  11.971  0.00  0.00    +0.000 OA
ATOM     25  O   UNL     1       7.095   4.174  11.735  0.00  0.00    +0.000 OA
BRANCH  23  26
ATOM     26  O   UNL     1       6.341   1.825  11.931  0.00  0.00    +0.000 OA
ATOM     27  H   UNL     1       6.052   1.291  12.702  0.00  0.00    +0.000 HD
ENDBRANCH  23  26
ENDBRANCH  22  23
ENDBRANCH   9  22
TORSDOF 7
ENDMDL
MODEL 5
REMARK VINA RESULT:      -6.7      3.541      7.012
REMARK  Name = 
REMARK  8 active torsions:
REMARK  status: ('A' for Active; 'I' for Inactive)
REMARK    1  A    between atoms: C_1  and  C_2
REMARK    2  A    between atoms: C_2  and  C_3
REMARK    3  A    between atoms: C_3  and  O_4
REMARK    4  A    between atoms: O_4  and  C_5
REMARK    5  A    between atoms: C_5  and  C_7
REMARK    6  A    between atoms: N_15  and  O_16
REMARK    7  A    between atoms: O_16  and  S_17
REMARK    8  A    between atoms: S_17  and  O_20
REMARK                            x       y       z     vdW  Elec       q    Type
REMARK                         _______ _______ _______ _____ _____    ______ ____
ROOT
ATOM      1  C   UNL     1       5.549   4.759  16.404  0.00  0.00    +0.000 C 
ATOM      2  C   UNL     1       5.380   6.281  16.667  0.00  0.00    +0.000 C 
ATOM      3  C   UNL     1       4.183   6.565  17.601  0.00  0.00    +0.000 C 
ATOM      4  C   UNL     1       4.165   5.611  18.846  0.00  0.00    +0.000 C 
ATOM      5  C   UNL     1       5.408   4.729  18.829  0.00  0.00    +0.000 C 
ATOM      6  N   UNL     1       5.122   4.013  17.607  0.00  0.00    +0.000 N 
ATOM      7  C   UNL     1       3.708   3.714  17.652  0.00  0.00    +0.000 C 
ATOM      8  O   UNL     1       3.055   3.116  16.811  0.00  0.00    +0.000 OA
ATOM      9  N   UNL     1       3.123   4.597  18.660  0.00  0.00    +0.000 N 
ENDROOT
BRANCH   1  10
ATOM     10  C   UNL     1       7.001   4.472  16.004  0.00  0.00    +0.000 C 
ATOM     11  O   UNL     1       7.881   4.190  16.809  0.00  0.00    +0.000 OA
BRANCH  10  12
ATOM     12  O   UNL     1       7.198   4.613  14.664  0.00  0.00    +0.000 OA
BRANCH  12  13
ATOM     13  C   UNL     1       6.401   3.749  13.848  0.00  0.00    +0.000 C 
BRANCH  13  15
ATOM     14  C   UNL     1       7.528   5.168  12.091  0.00  0.00    +0.000 C 
ATOM     15  C   UNL     1       6.555   3.998  12.331  0.00  0.00    +0.000 C 
ATOM     16  C   UNL     1       7.125   2.714  11.680  0.00  0.00    +0.000 C 
ATOM     17  C   UNL     1       6.115   1.564  11.680  0.00  0.00    +0.000 C 
ATOM     18  N   UNL     1       4.872   1.948  11.017  0.00  0.00    +0.000 NA
ATOM     19  C   UNL     1       4.254   3.125  11.628  0.00  0.00    +0.000 C 
ATOM     20  C   UNL     1       5.207   4.322  11.649  0.00  0.00    +0.000 C 
ATOM     21  H   UNL     1       4.213   1.170  11.064  0.00  0.00    +0.000 HD
ENDBRANCH  13  15
ENDBRANCH  12  13
ENDBRANCH  10  12
ENDBRANCH   1  10
BRANCH   9  22
ATOM     22  O   UNL     1       3.136   3.879  19.923  0.00  0.00    +0.000 OA
BRANCH  22  23
ATOM     23  S   UNL     1       1.848   4.032  20.922  0.00  0.00    +0.000 S 
ATOM     24  O   UNL     1       2.140   3.356  22.159  0.00  0.00    +0.000 OA
ATOM     25  O   UNL     1       1.444   5.423  20.907  0.00  0.00    +0.000 OA
BRANCH  23  26
ATOM     26  O   UNL     1       0.672   3.174  20.219  0.00  0.00    +0.000 OA
ATOM     27  H   UNL     1      -0.173   3.587  20.501  0.00  0.00    +0.000 HD
ENDBRANCH  23  26
ENDBRANCH  22  23
ENDBRANCH   9  22
TORSDOF 7
ENDMDL
MODEL 6
REMARK VINA RESULT:      -6.7      1.006      1.915
REMARK  Name = 
REMARK  8 active torsions:
REMARK  status: ('A' for Active; 'I' for Inactive)
REMARK    1  A    between atoms: C_1  and  C_2
REMARK    2  A    between atoms: C_2  and  C_3
REMARK    3  A    between atoms: C_3  and  O_4
REMARK    4  A    between atoms: O_4  and  C_5
REMARK    5  A    between atoms: C_5  and  C_7
REMARK    6  A    between atoms: N_15  and  O_16
REMARK    7  A    between atoms: O_16  and  S_17
REMARK    8  A    between atoms: S_17  and  O_20
REMARK                            x       y       z     vdW  Elec       q    Type
REMARK                         _______ _______ _______ _____ _____    ______ ____
ROOT
ATOM      1  C   UNL     1       6.370   5.403  17.582  0.00  0.00    +0.000 C 
ATOM      2  C   UNL     1       5.253   6.439  17.279  0.00  0.00    +0.000 C 
ATOM      3  C   UNL     1       4.932   6.502  15.770  0.00  0.00    +0.000 C 
ATOM      4  C   UNL     1       4.783   5.074  15.137  0.00  0.00    +0.000 C 
ATOM      5  C   UNL     1       4.902   4.019  16.230  0.00  0.00    +0.000 C 
ATOM      6  N   UNL     1       6.267   4.289  16.616  0.00  0.00    +0.000 N 
ATOM      7  C   UNL     1       6.985   4.505  15.380  0.00  0.00    +0.000 C 
ATOM      8  O   UNL     1       8.173   4.763  15.254  0.00  0.00    +0.000 OA
ATOM      9  N   UNL     1       5.981   4.769  14.350  0.00  0.00    +0.000 N 
ENDROOT
BRANCH   1  10
ATOM     10  C   UNL     1       6.254   4.944  19.041  0.00  0.00    +0.000 C 
ATOM     11  O   UNL     1       6.804   5.515  19.976  0.00  0.00    +0.000 OA
BRANCH  10  12
ATOM     12  O   UNL     1       5.509   3.811  19.161  0.00  0.00    +0.000 OA
BRANCH  12  13
ATOM     13  C   UNL     1       4.204   4.008  19.714  0.00  0.00    +0.000 C 
BRANCH  13  15
ATOM     14  C   UNL     1       4.564   1.692  20.650  0.00  0.00    +0.000 C 
ATOM     15  C   UNL     1       3.509   2.704  20.165  0.00  0.00    +0.000 C 
ATOM     16  C   UNL     1       2.547   3.041  21.330  0.00  0.00    +0.000 C 
ATOM     17  C   UNL     1       1.340   3.864  20.870  0.00  0.00    +0.000 C 
ATOM     18  N   UNL     1       0.610   3.186  19.802  0.00  0.00    +0.000 NA
ATOM     19  C   UNL     1       1.457   2.893  18.646  0.00  0.00    +0.000 C 
ATOM     20  C   UNL     1       2.681   2.058  19.032  0.00  0.00    +0.000 C 
ATOM     21  H   UNL     1      -0.165   3.776  19.500  0.00  0.00    +0.000 HD
ENDBRANCH  13  15
ENDBRANCH  12  13
ENDBRANCH  10  12
ENDBRANCH   1  10
BRANCH   9  22
ATOM     22  O   UNL     1       5.652   3.497  13.731  0.00  0.00    +0.000 OA
BRANCH  22  23
ATOM     23  S   UNL     1       5.916   3.317  12.125  0.00  0.00    +0.000 S 
ATOM     24  O   UNL     1       6.980   4.202  11.729  0.00  0.00    +0.000 OA
ATOM     25  O   UNL     1       5.983   1.895  11.850  0.00  0.00    +0.000 OA
BRANCH  23  26
ATOM     26  O   UNL     1       4.580   3.889  11.417  0.00  0.00    +0.000 OA
ATOM     27  H   UNL     1       3.824   3.524  11.926  0.00  0.00    +0.000 HD
ENDBRANCH  23  26
ENDBRANCH  22  23
ENDBRANCH   9  22
TORSDOF 7
ENDMDL
MODEL 7
REMARK VINA RESULT:      -6.7      1.129      1.545
REMARK  Name = 
REMARK  8 active torsions:
REMARK  status: ('A' for Active; 'I' for Inactive)
REMARK    1  A    between atoms: C_1  and  C_2
REMARK    2  A    between atoms: C_2  and  C_3
REMARK    3  A    between atoms: C_3  and  O_4
REMARK    4  A    between atoms: O_4  and  C_5
REMARK    5  A    between atoms: C_5  and  C_7
REMARK    6  A    between atoms: N_15  and  O_16
REMARK    7  A    between atoms: O_16  and  S_17
REMARK    8  A    between atoms: S_17  and  O_20
REMARK                            x       y       z     vdW  Elec       q    Type
REMARK                         _______ _______ _______ _____ _____    ______ ____
ROOT
ATOM      1  C   UNL     1       5.414   5.624  17.786  0.00  0.00    +0.000 C 
ATOM      2  C   UNL     1       5.005   6.858  16.935  0.00  0.00    +0.000 C 
ATOM      3  C   UNL     1       5.601   6.788  15.512  0.00  0.00    +0.000 C 
ATOM      4  C   UNL     1       5.417   5.372  14.863  0.00  0.00    +0.000 C 
ATOM      5  C   UNL     1       4.602   4.486  15.798  0.00  0.00    +0.000 C 
ATOM      6  N   UNL     1       5.539   4.449  16.897  0.00  0.00    +0.000 N 
ATOM      7  C   UNL     1       6.844   4.297  16.291  0.00  0.00    +0.000 C 
ATOM      8  O   UNL     1       7.918   4.222  16.867  0.00  0.00    +0.000 OA
ATOM      9  N   UNL     1       6.699   4.662  14.883  0.00  0.00    +0.000 N 
ENDROOT
BRANCH   1  10
ATOM     10  C   UNL     1       4.388   5.420  18.908  0.00  0.00    +0.000 C 
ATOM     11  O   UNL     1       3.796   6.341  19.459  0.00  0.00    +0.000 OA
BRANCH  10  12
ATOM     12  O   UNL     1       4.254   4.107  19.243  0.00  0.00    +0.000 OA
BRANCH  12  13
ATOM     13  C   UNL     1       3.483   3.868  20.424  0.00  0.00    +0.000 C 
BRANCH  13  15
ATOM     14  C   UNL     1       1.690   2.489  21.545  0.00  0.00    +0.000 C 
ATOM     15  C   UNL     1       2.235   2.987  20.193  0.00  0.00    +0.000 C 
ATOM     16  C   UNL     1       1.155   3.843  19.488  0.00  0.00    +0.000 C 
ATOM     17  C   UNL     1       1.534   4.187  18.045  0.00  0.00    +0.000 C 
ATOM     18  N   UNL     1       1.801   2.981  17.265  0.00  0.00    +0.000 NA
ATOM     19  C   UNL     1       2.857   2.158  17.853  0.00  0.00    +0.000 C 
ATOM     20  C   UNL     1       2.537   1.765  19.297  0.00  0.00    +0.000 C 
ATOM     21  H   UNL     1       2.081   3.249  16.321  0.00  0.00    +0.000 HD
ENDBRANCH  13  15
ENDBRANCH  12  13
ENDBRANCH  10  12
ENDBRANCH   1  10
BRANCH   9  22
ATOM     22  O   UNL     1       6.410   3.443  14.148  0.00  0.00    +0.000 OA
BRANCH  22  23
ATOM     23  S   UNL     1       6.228   3.534  12.523  0.00  0.00    +0.000 S 
ATOM     24  O   UNL     1       4.833   3.729  12.225  0.00  0.00    +0.000 OA
ATOM     25  O   UNL     1       7.235   4.446  12.020  0.00  0.00    +0.000 OA
BRANCH  23  26
ATOM     26  O   UNL     1       6.592   2.056  11.981  0.00  0.00    +0.000 OA
ATOM     27  H   UNL     1       5.812   1.493  12.177  0.00  0.00    +0.000 HD
ENDBRANCH  23  26
ENDBRANCH  22  23
ENDBRANCH   9  22
TORSDOF 7
ENDMDL
MODEL 8
REMARK VINA RESULT:      -6.6      4.196      5.937
REMARK  Name = 
REMARK  8 active torsions:
REMARK  status: ('A' for Active; 'I' for Inactive)
REMARK    1  A    between atoms: C_1  and  C_2
REMARK    2  A    between atoms: C_2  and  C_3
REMARK    3  A    between atoms: C_3  and  O_4
REMARK    4  A    between atoms: O_4  and  C_5
REMARK    5  A    between atoms: C_5  and  C_7
REMARK    6  A    between atoms: N_15  and  O_16
REMARK    7  A    between atoms: O_16  and  S_17
REMARK    8  A    between atoms: S_17  and  O_20
REMARK                            x       y       z     vdW  Elec       q    Type
REMARK                         _______ _______ _______ _____ _____    ______ ____
ROOT
ATOM      1  C   UNL     1       2.562   6.818  17.993  0.00  0.00    +0.000 C 
ATOM      2  C   UNL     1       1.680   5.542  18.085  0.00  0.00    +0.000 C 
ATOM      3  C   UNL     1       2.461   4.282  17.655  0.00  0.00    +0.000 C 
ATOM      4  C   UNL     1       3.889   4.221  18.303  0.00  0.00    +0.000 C 
ATOM      5  C   UNL     1       4.061   5.391  19.264  0.00  0.00    +0.000 C 
ATOM      6  N   UNL     1       3.963   6.457  18.294  0.00  0.00    +0.000 N 
ATOM      7  C   UNL     1       4.722   6.010  17.147  0.00  0.00    +0.000 C 
ATOM      8  O   UNL     1       4.897   6.614  16.099  0.00  0.00    +0.000 OA
ATOM      9  N   UNL     1       4.892   4.565  17.291  0.00  0.00    +0.000 N 
ENDROOT
BRANCH   1  10
ATOM     10  C   UNL     1       2.003   7.890  18.937  0.00  0.00    +0.000 C 
ATOM     11  O   UNL     1       2.027   7.794  20.159  0.00  0.00    +0.000 OA
BRANCH  10  12
ATOM     12  O   UNL     1       1.441   8.927  18.257  0.00  0.00    +0.000 OA
BRANCH  12  13
ATOM     13  C   UNL     1       1.391  10.160  18.981  0.00  0.00    +0.000 C 
BRANCH  13  15
ATOM     14  C   UNL     1      -0.970  10.257  18.094  0.00  0.00    +0.000 C 
ATOM     15  C   UNL     1      -0.042  10.673  19.250  0.00  0.00    +0.000 C 
ATOM     16  C   UNL     1      -0.549  10.039  20.569  0.00  0.00    +0.000 C 
ATOM     17  C   UNL     1       0.185  10.583  21.797  0.00  0.00    +0.000 C 
ATOM     18  N   UNL     1       0.086  12.038  21.874  0.00  0.00    +0.000 NA
ATOM     19  C   UNL     1       0.606  12.697  20.676  0.00  0.00    +0.000 C 
ATOM     20  C   UNL     1      -0.095  12.209  19.407  0.00  0.00    +0.000 C 
ATOM     21  H   UNL     1       0.612  12.367  22.684  0.00  0.00    +0.000 HD
ENDBRANCH  13  15
ENDBRANCH  12  13
ENDBRANCH  10  12
ENDBRANCH   1  10
BRANCH   9  22
ATOM     22  O   UNL     1       6.148   4.345  17.987  0.00  0.00    +0.000 OA
BRANCH  22  23
ATOM     23  S   UNL     1       7.546   4.666  17.197  0.00  0.00    +0.000 S 
ATOM     24  O   UNL     1       8.633   4.049  17.912  0.00  0.00    +0.000 OA
ATOM     25  O   UNL     1       7.326   4.395  15.790  0.00  0.00    +0.000 OA
BRANCH  23  26
ATOM     26  O   UNL     1       7.760   6.259  17.360  0.00  0.00    +0.000 OA
ATOM     27  H   UNL     1       6.951   6.682  16.998  0.00  0.00    +0.000 HD
ENDBRANCH  23  26
ENDBRANCH  22  23
ENDBRANCH   9  22
TORSDOF 7
ENDMDL
MODEL 9
REMARK VINA RESULT:      -6.6      4.314      5.954
REMARK  Name = 
REMARK  8 active torsions:
REMARK  status: ('A' for Active; 'I' for Inactive)
REMARK    1  A    between atoms: C_1  and  C_2
REMARK    2  A    between atoms: C_2  and  C_3
REMARK    3  A    between atoms: C_3  and  O_4
REMARK    4  A    between atoms: O_4  and  C_5
REMARK    5  A    between atoms: C_5  and  C_7
REMARK    6  A    between atoms: N_15  and  O_16
REMARK    7  A    between atoms: O_16  and  S_17
REMARK    8  A    between atoms: S_17  and  O_20
REMARK                            x       y       z     vdW  Elec       q    Type
REMARK                         _______ _______ _______ _____ _____    ______ ____
ROOT
ATOM      1  C   UNL     1       2.492   6.864  18.046  0.00  0.00    +0.000 C 
ATOM      2  C   UNL     1       1.623   5.577  18.094  0.00  0.00    +0.000 C 
ATOM      3  C   UNL     1       2.419   4.339  17.629  0.00  0.00    +0.000 C 
ATOM      4  C   UNL     1       3.844   4.272  18.283  0.00  0.00    +0.000 C 
ATOM      5  C   UNL     1       3.999   5.413  19.281  0.00  0.00    +0.000 C 
ATOM      6  N   UNL     1       3.896   6.507  18.344  0.00  0.00    +0.000 N 
ATOM      7  C   UNL     1       4.665   6.105  17.188  0.00  0.00    +0.000 C 
ATOM      8  O   UNL     1       4.840   6.743  16.161  0.00  0.00    +0.000 OA
ATOM      9  N   UNL     1       4.849   4.657  17.288  0.00  0.00    +0.000 N 
ENDROOT
BRANCH   1  10
ATOM     10  C   UNL     1       1.917   7.900  19.021  0.00  0.00    +0.000 C 
ATOM     11  O   UNL     1       2.092   7.858  20.233  0.00  0.00    +0.000 OA
BRANCH  10  12
ATOM     12  O   UNL     1       1.158   8.833  18.383  0.00  0.00    +0.000 OA
BRANCH  12  13
ATOM     13  C   UNL     1       1.186  10.134  18.978  0.00  0.00    +0.000 C 
BRANCH  13  15
ATOM     14  C   UNL     1      -0.323   9.919  20.991  0.00  0.00    +0.000 C 
ATOM     15  C   UNL     1      -0.159  10.568  19.604  0.00  0.00    +0.000 C 
ATOM     16  C   UNL     1      -0.153  12.109  19.755  0.00  0.00    +0.000 C 
ATOM     17  C   UNL     1      -0.221  12.828  18.405  0.00  0.00    +0.000 C 
ATOM     18  N   UNL     1      -1.390  12.408  17.637  0.00  0.00    +0.000 NA
ATOM     19  C   UNL     1      -1.419  10.963  17.411  0.00  0.00    +0.000 C 
ATOM     20  C   UNL     1      -1.368  10.179  18.724  0.00  0.00    +0.000 C 
ATOM     21  H   UNL     1      -1.384  12.882  16.734  0.00  0.00    +0.000 HD
ENDBRANCH  13  15
ENDBRANCH  12  13
ENDBRANCH  10  12
ENDBRANCH   1  10
BRANCH   9  22
ATOM     22  O   UNL     1       6.103   4.428  17.984  0.00  0.00    +0.000 OA
BRANCH  22  23
ATOM     23  S   UNL     1       7.504   4.716  17.186  0.00  0.00    +0.000 S 
ATOM     24  O   UNL     1       8.578   4.061  17.886  0.00  0.00    +0.000 OA
ATOM     25  O   UNL     1       7.265   4.466  15.779  0.00  0.00    +0.000 OA
BRANCH  23  26
ATOM     26  O   UNL     1       7.765   6.301  17.363  0.00  0.00    +0.000 OA
ATOM     27  H   UNL     1       8.271   6.585  16.570  0.00  0.00    +0.000 HD
ENDBRANCH  23  26
ENDBRANCH  22  23
ENDBRANCH   9  22
TORSDOF 7
ENDMDL
