MODEL 1
REMARK VINA RESULT:      -7.7      0.000      0.000
REMARK  Name = 
REMARK  5 active torsions:
REMARK  status: ('A' for Active; 'I' for Inactive)
REMARK    1  A    between atoms: S_2  and  N_4
REMARK    2  A    between atoms: S_2  and  C_19
REMARK    3  A    between atoms: N_4  and  C_5
REMARK    4  A    between atoms: C_9  and  C_10
REMARK    5  A    between atoms: C_22  and  C_23
REMARK                            x       y       z     vdW  Elec       q    Type
REMARK                         _______ _______ _______ _____ _____    ______ ____
ROOT
ATOM      1  N   UNL     1       4.768   5.205  17.211  0.00  0.00    +0.000 N 
ATOM      2  H   UNL     1       4.932   5.099  16.202  0.00  0.00    +0.000 HD
ENDROOT
BRANCH   1   3
ATOM      3  C   UNL     1       3.697   4.363  17.669  0.00  0.00    +0.000 A 
ATOM      4  S   UNL     1       3.620   2.702  17.287  0.00  0.00    +0.000 S 
ATOM      5  C   UNL     1       2.237   2.480  18.268  0.00  0.00    +0.000 A 
ATOM      6  C   UNL     1       1.841   3.651  18.875  0.00  0.00    +0.000 A 
ATOM      7  C   UNL     1       2.675   4.757  18.512  0.00  0.00    +0.000 A 
BRANCH   7   8
ATOM      8  C   UNL     1       2.435   6.188  18.915  0.00  0.00    +0.000 A 
ATOM      9  N   UNL     1       2.594   7.173  18.057  0.00  0.00    +0.000 NA
ATOM     10  C   UNL     1       2.047   8.336  18.574  0.00  0.00    +0.000 A 
ATOM     11  C   UNL     1       1.883   9.554  17.885  0.00  0.00    +0.000 A 
ATOM     12  C   UNL     1       1.280  10.640  18.528  0.00  0.00    +0.000 A 
ATOM     13  C   UNL     1       0.860  10.534  19.851  0.00  0.00    +0.000 A 
ATOM     14  C   UNL     1       1.024   9.340  20.560  0.00  0.00    +0.000 A 
ATOM     15  C   UNL     1       1.604   8.249  19.895  0.00  0.00    +0.000 A 
ATOM     16  S   UNL     1       1.870   6.650  20.468  0.00  0.00    +0.000 S 
ENDBRANCH   7   8
ENDBRANCH   1   3
BRANCH   1  18
ATOM     17  O   UNL     1       6.139   4.343  19.244  0.00  0.00    +0.000 OA
ATOM     18  S   UNL     1       6.286   4.839  17.891  0.00  0.00    +0.000 S 
ATOM     19  O   UNL     1       7.006   4.076  16.890  0.00  0.00    +0.000 OA
BRANCH  18  20
ATOM     20  C   UNL     1       7.066   6.436  17.981  0.00  0.00    +0.000 A 
ATOM     21  C   UNL     1       6.536   7.491  17.233  0.00  0.00    +0.000 A 
ATOM     22  C   UNL     1       7.109   8.759  17.322  0.00  0.00    +0.000 A 
ATOM     23  C   UNL     1       8.202   8.990  18.169  0.00  0.00    +0.000 A 
ATOM     24  C   UNL     1       8.703   7.927  18.943  0.00  0.00    +0.000 A 
ATOM     25  C   UNL     1       8.134   6.652  18.856  0.00  0.00    +0.000 A 
BRANCH  23  26
ATOM     26  C   UNL     1       8.841  10.357  18.255  0.00  0.00    +0.000 C 
ATOM     27  F   UNL     1       9.030  10.790  19.534  0.00  0.00    +0.000 F 
ATOM     28  F   UNL     1      10.064  10.402  17.661  0.00  0.00    +0.000 F 
ATOM     29  F   UNL     1       8.092  11.318  17.645  0.00  0.00    +0.000 F 
ENDBRANCH  23  26
ENDBRANCH  18  20
ENDBRANCH   1  18
TORSDOF 5
ENDMDL
MODEL 2
REMARK VINA RESULT:      -7.6      3.884      4.660
REMARK  Name = 
REMARK  5 active torsions:
REMARK  status: ('A' for Active; 'I' for Inactive)
REMARK    1  A    between atoms: S_2  and  N_4
REMARK    2  A    between atoms: S_2  and  C_19
REMARK    3  A    between atoms: N_4  and  C_5
REMARK    4  A    between atoms: C_9  and  C_10
REMARK    5  A    between atoms: C_22  and  C_23
REMARK                            x       y       z     vdW  Elec       q    Type
REMARK                         _______ _______ _______ _____ _____    ______ ____
ROOT
ATOM      1  N   UNL     1       3.577   4.693  18.027  0.00  0.00    +0.000 N 
ATOM      2  H   UNL     1       3.416   4.014  17.272  0.00  0.00    +0.000 HD
ENDROOT
BRANCH   1   3
ATOM      3  C   UNL     1       3.055   4.228  19.283  0.00  0.00    +0.000 A 
ATOM      4  S   UNL     1       3.131   2.588  19.747  0.00  0.00    +0.000 S 
ATOM      5  C   UNL     1       2.478   2.931  21.289  0.00  0.00    +0.000 A 
ATOM      6  C   UNL     1       2.206   4.272  21.447  0.00  0.00    +0.000 A 
ATOM      7  C   UNL     1       2.520   5.030  20.273  0.00  0.00    +0.000 A 
BRANCH   7   8
ATOM      8  C   UNL     1       2.230   6.495  20.088  0.00  0.00    +0.000 A 
ATOM      9  N   UNL     1       2.574   7.124  18.984  0.00  0.00    +0.000 NA
ATOM     10  C   UNL     1       1.956   8.363  18.940  0.00  0.00    +0.000 A 
ATOM     11  C   UNL     1       1.954   9.251  17.846  0.00  0.00    +0.000 A 
ATOM     12  C   UNL     1       1.254  10.459  17.934  0.00  0.00    +0.000 A 
ATOM     13  C   UNL     1       0.577  10.801  19.102  0.00  0.00    +0.000 A 
ATOM     14  C   UNL     1       0.576   9.943  20.205  0.00  0.00    +0.000 A 
ATOM     15  C   UNL     1       1.257   8.721  20.095  0.00  0.00    +0.000 A 
ATOM     16  S   UNL     1       1.375   7.442  21.237  0.00  0.00    +0.000 S 
ENDBRANCH   7   8
ENDBRANCH   1   3
BRANCH   1  18
ATOM     17  O   UNL     1       5.618   6.272  18.329  0.00  0.00    +0.000 OA
ATOM     18  S   UNL     1       5.266   4.905  18.005  0.00  0.00    +0.000 S 
ATOM     19  O   UNL     1       5.825   3.793  18.749  0.00  0.00    +0.000 OA
BRANCH  18  20
ATOM     20  C   UNL     1       5.669   4.633  16.293  0.00  0.00    +0.000 A 
ATOM     21  C   UNL     1       6.905   5.071  15.811  0.00  0.00    +0.000 A 
ATOM     22  C   UNL     1       7.255   4.831  14.482  0.00  0.00    +0.000 A 
ATOM     23  C   UNL     1       6.383   4.138  13.629  0.00  0.00    +0.000 A 
ATOM     24  C   UNL     1       5.157   3.672  14.138  0.00  0.00    +0.000 A 
ATOM     25  C   UNL     1       4.800   3.913  15.469  0.00  0.00    +0.000 A 
BRANCH  23  26
ATOM     26  C   UNL     1       6.747   3.892  12.183  0.00  0.00    +0.000 C 
ATOM     27  F   UNL     1       5.669   3.853  11.351  0.00  0.00    +0.000 F 
ATOM     28  F   UNL     1       7.571   4.851  11.681  0.00  0.00    +0.000 F 
ATOM     29  F   UNL     1       7.397   2.709  12.006  0.00  0.00    +0.000 F 
ENDBRANCH  23  26
ENDBRANCH  18  20
ENDBRANCH   1  18
TORSDOF 5
ENDMDL
MODEL 3
REMARK VINA RESULT:      -7.5      3.463      5.357
REMARK  Name = 
REMARK  5 active torsions:
REMARK  status: ('A' for Active; 'I' for Inactive)
REMARK    1  A    between atoms: S_2  and  N_4
REMARK    2  A    between atoms: S_2  and  C_19
REMARK    3  A    between atoms: N_4  and  C_5
REMARK    4  A    between atoms: C_9  and  C_10
REMARK    5  A    between atoms: C_22  and  C_23
REMARK                            x       y       z     vdW  Elec       q    Type
REMARK                         _______ _______ _______ _____ _____    ______ ____
ROOT
ATOM      1  N   UNL     1       6.893   4.046  17.870  0.00  0.00    +0.000 N 
ATOM      2  H   UNL     1       6.321   3.530  18.551  0.00  0.00    +0.000 HD
ENDROOT
BRANCH   1   3
ATOM      3  C   UNL     1       6.242   4.145  16.592  0.00  0.00    +0.000 A 
ATOM      4  S   UNL     1       7.066   4.661  15.190  0.00  0.00    +0.000 S 
ATOM      5  C   UNL     1       5.702   4.364  14.205  0.00  0.00    +0.000 A 
ATOM      6  C   UNL     1       4.636   3.880  14.933  0.00  0.00    +0.000 A 
ATOM      7  C   UNL     1       4.938   3.771  16.328  0.00  0.00    +0.000 A 
BRANCH   7   8
ATOM      8  C   UNL     1       3.951   3.386  17.398  0.00  0.00    +0.000 A 
ATOM      9  N   UNL     1       4.347   2.819  18.517  0.00  0.00    +0.000 NA
ATOM     10  C   UNL     1       3.311   2.827  19.436  0.00  0.00    +0.000 A 
ATOM     11  C   UNL     1       3.402   2.455  20.793  0.00  0.00    +0.000 A 
ATOM     12  C   UNL     1       2.274   2.547  21.615  0.00  0.00    +0.000 A 
ATOM     13  C   UNL     1       1.056   2.982  21.099  0.00  0.00    +0.000 A 
ATOM     14  C   UNL     1       0.937   3.343  19.754  0.00  0.00    +0.000 A 
ATOM     15  C   UNL     1       2.083   3.274  18.946  0.00  0.00    +0.000 A 
ATOM     16  S   UNL     1       2.270   3.714  17.295  0.00  0.00    +0.000 S 
ENDBRANCH   7   8
ENDBRANCH   1   3
BRANCH   1  18
ATOM     17  O   UNL     1       7.413   5.356  20.053  0.00  0.00    +0.000 OA
ATOM     18  S   UNL     1       7.157   5.542  18.640  0.00  0.00    +0.000 S 
ATOM     19  O   UNL     1       8.088   6.272  17.802  0.00  0.00    +0.000 OA
BRANCH  18  20
ATOM     20  C   UNL     1       5.578   6.346  18.476  0.00  0.00    +0.000 A 
ATOM     21  C   UNL     1       5.345   7.160  17.365  0.00  0.00    +0.000 A 
ATOM     22  C   UNL     1       4.100   7.766  17.199  0.00  0.00    +0.000 A 
ATOM     23  C   UNL     1       3.073   7.551  18.130  0.00  0.00    +0.000 A 
ATOM     24  C   UNL     1       3.310   6.701  19.225  0.00  0.00    +0.000 A 
ATOM     25  C   UNL     1       4.558   6.093  19.398  0.00  0.00    +0.000 A 
BRANCH  23  26
ATOM     26  C   UNL     1       1.728   8.221  17.966  0.00  0.00    +0.000 C 
ATOM     27  F   UNL     1       1.137   8.551  19.150  0.00  0.00    +0.000 F 
ATOM     28  F   UNL     1       1.801   9.376  17.251  0.00  0.00    +0.000 F 
ATOM     29  F   UNL     1       0.831   7.431  17.312  0.00  0.00    +0.000 F 
ENDBRANCH  23  26
ENDBRANCH  18  20
ENDBRANCH   1  18
TORSDOF 5
ENDMDL
MODEL 4
REMARK VINA RESULT:      -7.5      4.111      6.858
REMARK  Name = 
REMARK  5 active torsions:
REMARK  status: ('A' for Active; 'I' for Inactive)
REMARK    1  A    between atoms: S_2  and  N_4
REMARK    2  A    between atoms: S_2  and  C_19
REMARK    3  A    between atoms: N_4  and  C_5
REMARK    4  A    between atoms: C_9  and  C_10
REMARK    5  A    between atoms: C_22  and  C_23
REMARK                            x       y       z     vdW  Elec       q    Type
REMARK                         _______ _______ _______ _____ _____    ______ ____
ROOT
ATOM      1  N   UNL     1       3.448   5.968  19.930  0.00  0.00    +0.000 N 
ATOM      2  H   UNL     1       3.162   6.501  20.762  0.00  0.00    +0.000 HD
ENDROOT
BRANCH   1   3
ATOM      3  C   UNL     1       3.060   4.587  20.022  0.00  0.00    +0.000 A 
ATOM      4  S   UNL     1       1.947   4.032  21.190  0.00  0.00    +0.000 S 
ATOM      5  C   UNL     1       1.960   2.452  20.539  0.00  0.00    +0.000 A 
ATOM      6  C   UNL     1       2.798   2.349  19.450  0.00  0.00    +0.000 A 
ATOM      7  C   UNL     1       3.459   3.585  19.158  0.00  0.00    +0.000 A 
BRANCH   7   8
ATOM      8  C   UNL     1       4.520   3.769  18.106  0.00  0.00    +0.000 A 
ATOM      9  N   UNL     1       4.323   3.381  16.864  0.00  0.00    +0.000 NA
ATOM     10  C   UNL     1       5.309   3.908  16.048  0.00  0.00    +0.000 A 
ATOM     11  C   UNL     1       5.343   3.847  14.640  0.00  0.00    +0.000 A 
ATOM     12  C   UNL     1       6.390   4.458  13.943  0.00  0.00    +0.000 A 
ATOM     13  C   UNL     1       7.412   5.109  14.630  0.00  0.00    +0.000 A 
ATOM     14  C   UNL     1       7.409   5.172  16.026  0.00  0.00    +0.000 A 
ATOM     15  C   UNL     1       6.337   4.580  16.713  0.00  0.00    +0.000 A 
ATOM     16  S   UNL     1       6.018   4.554  18.402  0.00  0.00    +0.000 S 
ENDBRANCH   7   8
ENDBRANCH   1   3
BRANCH   1  18
ATOM     17  O   UNL     1       3.709   7.469  17.825  0.00  0.00    +0.000 OA
ATOM     18  S   UNL     1       2.713   6.819  18.652  0.00  0.00    +0.000 S 
ATOM     19  O   UNL     1       1.734   5.920  18.075  0.00  0.00    +0.000 OA
BRANCH  18  20
ATOM     20  C   UNL     1       1.804   8.090  19.505  0.00  0.00    +0.000 A 
ATOM     21  C   UNL     1       1.362   9.204  18.786  0.00  0.00    +0.000 A 
ATOM     22  C   UNL     1       0.614  10.190  19.428  0.00  0.00    +0.000 A 
ATOM     23  C   UNL     1       0.287  10.065  20.787  0.00  0.00    +0.000 A 
ATOM     24  C   UNL     1       0.709   8.922  21.489  0.00  0.00    +0.000 A 
ATOM     25  C   UNL     1       1.462   7.931  20.850  0.00  0.00    +0.000 A 
BRANCH  23  26
ATOM     26  C   UNL     1      -0.506  11.140  21.494  0.00  0.00    +0.000 C 
ATOM     27  F   UNL     1      -1.580  11.582  20.780  0.00  0.00    +0.000 F 
ATOM     28  F   UNL     1      -1.001  10.724  22.691  0.00  0.00    +0.000 F 
ATOM     29  F   UNL     1       0.242  12.246  21.761  0.00  0.00    +0.000 F 
ENDBRANCH  23  26
ENDBRANCH  18  20
ENDBRANCH   1  18
TORSDOF 5
ENDMDL
MODEL 5
REMARK VINA RESULT:      -7.5      3.920      4.661
REMARK  Name = 
REMARK  5 active torsions:
REMARK  status: ('A' for Active; 'I' for Inactive)
REMARK    1  A    between atoms: S_2  and  N_4
REMARK    2  A    between atoms: S_2  and  C_19
REMARK    3  A    between atoms: N_4  and  C_5
REMARK    4  A    between atoms: C_9  and  C_10
REMARK    5  A    between atoms: C_22  and  C_23
REMARK                            x       y       z     vdW  Elec       q    Type
REMARK                         _______ _______ _______ _____ _____    ______ ____
ROOT
ATOM      1  N   UNL     1       4.070   5.749  18.075  0.00  0.00    +0.000 N 
ATOM      2  H   UNL     1       3.758   5.535  17.119  0.00  0.00    +0.000 HD
ENDROOT
BRANCH   1   3
ATOM      3  C   UNL     1       3.317   5.019  19.058  0.00  0.00    +0.000 A 
ATOM      4  S   UNL     1       3.452   3.327  19.233  0.00  0.00    +0.000 S 
ATOM      5  C   UNL     1       2.420   3.325  20.596  0.00  0.00    +0.000 A 
ATOM      6  C   UNL     1       1.979   4.592  20.911  0.00  0.00    +0.000 A 
ATOM      7  C   UNL     1       2.481   5.580  20.005  0.00  0.00    +0.000 A 
BRANCH   7   8
ATOM      8  C   UNL     1       2.092   7.035  20.011  0.00  0.00    +0.000 A 
ATOM      9  N   UNL     1       2.290   7.797  18.956  0.00  0.00    +0.000 NA
ATOM     10  C   UNL     1       1.601   8.989  19.106  0.00  0.00    +0.000 A 
ATOM     11  C   UNL     1       1.441   9.985  18.122  0.00  0.00    +0.000 A 
ATOM     12  C   UNL     1       0.686  11.128  18.407  0.00  0.00    +0.000 A 
ATOM     13  C   UNL     1       0.108  11.300  19.662  0.00  0.00    +0.000 A 
ATOM     14  C   UNL     1       0.263  10.332  20.659  0.00  0.00    +0.000 A 
ATOM     15  C   UNL     1       0.999   9.177  20.352  0.00  0.00    +0.000 A 
ATOM     16  S   UNL     1       1.301   7.796  21.330  0.00  0.00    +0.000 S 
ENDBRANCH   7   8
ENDBRANCH   1   3
BRANCH   1  18
ATOM     17  O   UNL     1       6.536   6.551  18.248  0.00  0.00    +0.000 OA
ATOM     18  S   UNL     1       5.729   5.367  18.037  0.00  0.00    +0.000 S 
ATOM     19  O   UNL     1       5.895   4.192  18.870  0.00  0.00    +0.000 OA
BRANCH  18  20
ATOM     20  C   UNL     1       5.967   4.842  16.353  0.00  0.00    +0.000 A 
ATOM     21  C   UNL     1       4.928   4.173  15.700  0.00  0.00    +0.000 A 
ATOM     22  C   UNL     1       5.081   3.790  14.368  0.00  0.00    +0.000 A 
ATOM     23  C   UNL     1       6.263   4.085  13.672  0.00  0.00    +0.000 A 
ATOM     24  C   UNL     1       7.287   4.789  14.332  0.00  0.00    +0.000 A 
ATOM     25  C   UNL     1       7.140   5.173  15.670  0.00  0.00    +0.000 A 
BRANCH  23  26
ATOM     26  C   UNL     1       6.443   3.654  12.235  0.00  0.00    +0.000 C 
ATOM     27  F   UNL     1       5.276   3.603  11.533  0.00  0.00    +0.000 F 
ATOM     28  F   UNL     1       7.262   4.487  11.537  0.00  0.00    +0.000 F 
ATOM     29  F   UNL     1       6.994   2.413  12.130  0.00  0.00    +0.000 F 
ENDBRANCH  23  26
ENDBRANCH  18  20
ENDBRANCH   1  18
TORSDOF 5
ENDMDL
MODEL 6
REMARK VINA RESULT:      -7.5      4.061      6.843
REMARK  Name = 
REMARK  5 active torsions:
REMARK  status: ('A' for Active; 'I' for Inactive)
REMARK    1  A    between atoms: S_2  and  N_4
REMARK    2  A    between atoms: S_2  and  C_19
REMARK    3  A    between atoms: N_4  and  C_5
REMARK    4  A    between atoms: C_9  and  C_10
REMARK    5  A    between atoms: C_22  and  C_23
REMARK                            x       y       z     vdW  Elec       q    Type
REMARK                         _______ _______ _______ _____ _____    ______ ____
ROOT
ATOM      1  N   UNL     1       3.395   5.978  19.938  0.00  0.00    +0.000 N 
ATOM      2  H   UNL     1       3.089   6.516  20.759  0.00  0.00    +0.000 HD
ENDROOT
BRANCH   1   3
ATOM      3  C   UNL     1       3.008   4.596  20.032  0.00  0.00    +0.000 A 
ATOM      4  S   UNL     1       1.887   4.043  21.194  0.00  0.00    +0.000 S 
ATOM      5  C   UNL     1       1.907   2.461  20.548  0.00  0.00    +0.000 A 
ATOM      6  C   UNL     1       2.754   2.356  19.466  0.00  0.00    +0.000 A 
ATOM      7  C   UNL     1       3.415   3.592  19.174  0.00  0.00    +0.000 A 
BRANCH   7   8
ATOM      8  C   UNL     1       4.484   3.774  18.130  0.00  0.00    +0.000 A 
ATOM      9  N   UNL     1       4.294   3.387  16.886  0.00  0.00    +0.000 NA
ATOM     10  C   UNL     1       5.287   3.913  16.077  0.00  0.00    +0.000 A 
ATOM     11  C   UNL     1       5.330   3.853  14.669  0.00  0.00    +0.000 A 
ATOM     12  C   UNL     1       6.383   4.462  13.980  0.00  0.00    +0.000 A 
ATOM     13  C   UNL     1       7.403   5.109  14.674  0.00  0.00    +0.000 A 
ATOM     14  C   UNL     1       7.390   5.171  16.070  0.00  0.00    +0.000 A 
ATOM     15  C   UNL     1       6.312   4.581  16.749  0.00  0.00    +0.000 A 
ATOM     16  S   UNL     1       5.981   4.554  18.436  0.00  0.00    +0.000 S 
ENDBRANCH   7   8
ENDBRANCH   1   3
BRANCH   1  18
ATOM     17  O   UNL     1       3.699   7.445  17.815  0.00  0.00    +0.000 OA
ATOM     18  S   UNL     1       2.685   6.817  18.637  0.00  0.00    +0.000 S 
ATOM     19  O   UNL     1       1.706   5.919  18.059  0.00  0.00    +0.000 OA
BRANCH  18  20
ATOM     20  C   UNL     1       1.777   8.109  19.459  0.00  0.00    +0.000 A 
ATOM     21  C   UNL     1       1.527   7.994  20.829  0.00  0.00    +0.000 A 
ATOM     22  C   UNL     1       0.853   9.014  21.498  0.00  0.00    +0.000 A 
ATOM     23  C   UNL     1       0.438  10.165  20.811  0.00  0.00    +0.000 A 
ATOM     24  C   UNL     1       0.728  10.283  19.440  0.00  0.00    +0.000 A 
ATOM     25  C   UNL     1       1.401   9.260  18.763  0.00  0.00    +0.000 A 
BRANCH  23  26
ATOM     26  C   UNL     1      -0.311  11.266  21.526  0.00  0.00    +0.000 C 
ATOM     27  F   UNL     1       0.388  12.433  21.610  0.00  0.00    +0.000 F 
ATOM     28  F   UNL     1      -1.488  11.579  20.918  0.00  0.00    +0.000 F 
ATOM     29  F   UNL     1      -0.628  10.930  22.807  0.00  0.00    +0.000 F 
ENDBRANCH  23  26
ENDBRANCH  18  20
ENDBRANCH   1  18
TORSDOF 5
ENDMDL
MODEL 7
REMARK VINA RESULT:      -7.4      3.908      4.667
REMARK  Name = 
REMARK  5 active torsions:
REMARK  status: ('A' for Active; 'I' for Inactive)
REMARK    1  A    between atoms: S_2  and  N_4
REMARK    2  A    between atoms: S_2  and  C_19
REMARK    3  A    between atoms: N_4  and  C_5
REMARK    4  A    between atoms: C_9  and  C_10
REMARK    5  A    between atoms: C_22  and  C_23
REMARK                            x       y       z     vdW  Elec       q    Type
REMARK                         _______ _______ _______ _____ _____    ______ ____
ROOT
ATOM      1  N   UNL     1       4.326   5.943  18.264  0.00  0.00    +0.000 N 
ATOM      2  H   UNL     1       3.990   5.930  17.292  0.00  0.00    +0.000 HD
ENDROOT
BRANCH   1   3
ATOM      3  C   UNL     1       3.493   5.149  19.127  0.00  0.00    +0.000 A 
ATOM      4  S   UNL     1       3.668   3.457  19.253  0.00  0.00    +0.000 S 
ATOM      5  C   UNL     1       2.489   3.367  20.487  0.00  0.00    +0.000 A 
ATOM      6  C   UNL     1       1.971   4.606  20.797  0.00  0.00    +0.000 A 
ATOM      7  C   UNL     1       2.536   5.646  19.992  0.00  0.00    +0.000 A 
BRANCH   7   8
ATOM      8  C   UNL     1       2.097   7.085  20.007  0.00  0.00    +0.000 A 
ATOM      9  N   UNL     1       2.256   7.857  18.954  0.00  0.00    +0.000 NA
ATOM     10  C   UNL     1       1.529   9.025  19.116  0.00  0.00    +0.000 A 
ATOM     11  C   UNL     1       1.323  10.018  18.137  0.00  0.00    +0.000 A 
ATOM     12  C   UNL     1       0.532  11.132  18.434  0.00  0.00    +0.000 A 
ATOM     13  C   UNL     1      -0.036  11.281  19.697  0.00  0.00    +0.000 A 
ATOM     14  C   UNL     1       0.164  10.316  20.689  0.00  0.00    +0.000 A 
ATOM     15  C   UNL     1       0.935   9.188  20.369  0.00  0.00    +0.000 A 
ATOM     16  S   UNL     1       1.296   7.815  21.339  0.00  0.00    +0.000 S 
ENDBRANCH   7   8
ENDBRANCH   1   3
BRANCH   1  18
ATOM     17  O   UNL     1       6.870   6.464  18.333  0.00  0.00    +0.000 OA
ATOM     18  S   UNL     1       5.929   5.383  18.128  0.00  0.00    +0.000 S 
ATOM     19  O   UNL     1       6.003   4.168  18.916  0.00  0.00    +0.000 OA
BRANCH  18  20
ATOM     20  C   UNL     1       6.026   4.896  16.419  0.00  0.00    +0.000 A 
ATOM     21  C   UNL     1       7.164   5.235  15.683  0.00  0.00    +0.000 A 
ATOM     22  C   UNL     1       7.276   4.826  14.355  0.00  0.00    +0.000 A 
ATOM     23  C   UNL     1       6.262   4.064  13.755  0.00  0.00    +0.000 A 
ATOM     24  C   UNL     1       5.139   3.700  14.519  0.00  0.00    +0.000 A 
ATOM     25  C   UNL     1       5.020   4.110  15.852  0.00  0.00    +0.000 A 
BRANCH  23  26
ATOM     26  C   UNL     1       6.368   3.636  12.309  0.00  0.00    +0.000 C 
ATOM     27  F   UNL     1       7.216   4.409  11.574  0.00  0.00    +0.000 F 
ATOM     28  F   UNL     1       6.816   2.358  12.173  0.00  0.00    +0.000 F 
ATOM     29  F   UNL     1       5.169   3.683  11.665  0.00  0.00    +0.000 F 
ENDBRANCH  23  26
ENDBRANCH  18  20
ENDBRANCH   1  18
TORSDOF 5
ENDMDL
MODEL 8
REMARK VINA RESULT:      -7.4      0.857      1.533
REMARK  Name = 
REMARK  5 active torsions:
REMARK  status: ('A' for Active; 'I' for Inactive)
REMARK    1  A    between atoms: S_2  and  N_4
REMARK    2  A    between atoms: S_2  and  C_19
REMARK    3  A    between atoms: N_4  and  C_5
REMARK    4  A    between atoms: C_9  and  C_10
REMARK    5  A    between atoms: C_22  and  C_23
REMARK                            x       y       z     vdW  Elec       q    Type
REMARK                         _______ _______ _______ _____ _____    ______ ____
ROOT
ATOM      1  N   UNL     1       5.119   4.425  18.815  0.00  0.00    +0.000 N 
ATOM      2  H   UNL     1       5.032   5.334  19.288  0.00  0.00    +0.000 HD
ENDROOT
BRANCH   1   3
ATOM      3  C   UNL     1       3.852   3.752  18.715  0.00  0.00    +0.000 A 
ATOM      4  S   UNL     1       3.733   2.091  18.343  0.00  0.00    +0.000 S 
ATOM      5  C   UNL     1       2.037   2.103  18.559  0.00  0.00    +0.000 A 
ATOM      6  C   UNL     1       1.570   3.352  18.908  0.00  0.00    +0.000 A 
ATOM      7  C   UNL     1       2.621   4.322  18.979  0.00  0.00    +0.000 A 
BRANCH   7   8
ATOM      8  C   UNL     1       2.422   5.794  19.221  0.00  0.00    +0.000 A 
ATOM      9  N   UNL     1       2.685   6.680  18.284  0.00  0.00    +0.000 NA
ATOM     10  C   UNL     1       2.160   7.910  18.643  0.00  0.00    +0.000 A 
ATOM     11  C   UNL     1       2.101   9.058  17.828  0.00  0.00    +0.000 A 
ATOM     12  C   UNL     1       1.507  10.227  18.316  0.00  0.00    +0.000 A 
ATOM     13  C   UNL     1       0.993  10.272  19.609  0.00  0.00    +0.000 A 
ATOM     14  C   UNL     1       1.051   9.151  20.442  0.00  0.00    +0.000 A 
ATOM     15  C   UNL     1       1.624   7.976  19.931  0.00  0.00    +0.000 A 
ATOM     16  S   UNL     1       1.774   6.434  20.676  0.00  0.00    +0.000 S 
ENDBRANCH   7   8
ENDBRANCH   1   3
BRANCH   1  18
ATOM     17  O   UNL     1       6.790   3.840  16.913  0.00  0.00    +0.000 OA
ATOM     18  S   UNL     1       5.815   4.833  17.315  0.00  0.00    +0.000 S 
ATOM     19  O   UNL     1       4.716   5.198  16.443  0.00  0.00    +0.000 OA
BRANCH  18  20
ATOM     20  C   UNL     1       6.694   6.334  17.692  0.00  0.00    +0.000 A 
ATOM     21  C   UNL     1       7.757   6.286  18.597  0.00  0.00    +0.000 A 
ATOM     22  C   UNL     1       8.484   7.444  18.873  0.00  0.00    +0.000 A 
ATOM     23  C   UNL     1       8.167   8.654  18.238  0.00  0.00    +0.000 A 
ATOM     24  C   UNL     1       7.116   8.679  17.302  0.00  0.00    +0.000 A 
ATOM     25  C   UNL     1       6.382   7.521  17.023  0.00  0.00    +0.000 A 
BRANCH  23  26
ATOM     26  C   UNL     1       8.937   9.916  18.548  0.00  0.00    +0.000 C 
ATOM     27  F   UNL     1       9.765  10.310  17.539  0.00  0.00    +0.000 F 
ATOM     28  F   UNL     1       8.123  10.978  18.798  0.00  0.00    +0.000 F 
ATOM     29  F   UNL     1       9.729   9.784  19.648  0.00  0.00    +0.000 F 
ENDBRANCH  23  26
ENDBRANCH  18  20
ENDBRANCH   1  18
TORSDOF 5
ENDMDL
MODEL 9
REMARK VINA RESULT:      -7.4      1.288      1.707
REMARK  Name = 
REMARK  5 active torsions:
REMARK  status: ('A' for Active; 'I' for Inactive)
REMARK    1  A    between atoms: S_2  and  N_4
REMARK    2  A    between atoms: S_2  and  C_19
REMARK    3  A    between atoms: N_4  and  C_5
REMARK    4  A    between atoms: C_9  and  C_10
REMARK    5  A    between atoms: C_22  and  C_23
REMARK                            x       y       z     vdW  Elec       q    Type
REMARK                         _______ _______ _______ _____ _____    ______ ____
ROOT
ATOM      1  N   UNL     1       3.391   4.497  17.804  0.00  0.00    +0.000 N 
ATOM      2  H   UNL     1       3.078   4.173  16.879  0.00  0.00    +0.000 HD
ENDROOT
BRANCH   1   3
ATOM      3  C   UNL     1       2.539   4.012  18.855  0.00  0.00    +0.000 A 
ATOM      4  S   UNL     1       2.246   2.349  19.094  0.00  0.00    +0.000 S 
ATOM      5  C   UNL     1       1.336   2.650  20.508  0.00  0.00    +0.000 A 
ATOM      6  C   UNL     1       1.255   3.996  20.793  0.00  0.00    +0.000 A 
ATOM      7  C   UNL     1       1.936   4.796  19.821  0.00  0.00    +0.000 A 
BRANCH   7   8
ATOM      8  C   UNL     1       1.934   6.301  19.787  0.00  0.00    +0.000 A 
ATOM      9  N   UNL     1       2.396   6.959  18.745  0.00  0.00    +0.000 NA
ATOM     10  C   UNL     1       2.028   8.292  18.834  0.00  0.00    +0.000 A 
ATOM     11  C   UNL     1       2.201   9.269  17.833  0.00  0.00    +0.000 A 
ATOM     12  C   UNL     1       1.745  10.574  18.051  0.00  0.00    +0.000 A 
ATOM     13  C   UNL     1       1.143  10.921  19.257  0.00  0.00    +0.000 A 
ATOM     14  C   UNL     1       0.972   9.973  20.270  0.00  0.00    +0.000 A 
ATOM     15  C   UNL     1       1.407   8.660  20.029  0.00  0.00    +0.000 A 
ATOM     16  S   UNL     1       1.273   7.274  21.037  0.00  0.00    +0.000 S 
ENDBRANCH   7   8
ENDBRANCH   1   3
BRANCH   1  18
ATOM     17  O   UNL     1       5.232   3.234  19.133  0.00  0.00    +0.000 OA
ATOM     18  S   UNL     1       4.997   3.935  17.888  0.00  0.00    +0.000 S 
ATOM     19  O   UNL     1       5.274   3.305  16.612  0.00  0.00    +0.000 OA
BRANCH  18  20
ATOM     20  C   UNL     1       5.935   5.447  17.931  0.00  0.00    +0.000 A 
ATOM     21  C   UNL     1       7.153   5.468  18.615  0.00  0.00    +0.000 A 
ATOM     22  C   UNL     1       7.921   6.631  18.625  0.00  0.00    +0.000 A 
ATOM     23  C   UNL     1       7.489   7.777  17.940  0.00  0.00    +0.000 A 
ATOM     24  C   UNL     1       6.278   7.730  17.227  0.00  0.00    +0.000 A 
ATOM     25  C   UNL     1       5.502   6.566  17.216  0.00  0.00    +0.000 A 
BRANCH  23  26
ATOM     26  C   UNL     1       8.307   9.048  17.965  0.00  0.00    +0.000 C 
ATOM     27  F   UNL     1       9.054   9.192  19.096  0.00  0.00    +0.000 F 
ATOM     28  F   UNL     1       9.183   9.127  16.927  0.00  0.00    +0.000 F 
ATOM     29  F   UNL     1       7.532  10.165  17.887  0.00  0.00    +0.000 F 
ENDBRANCH  23  26
ENDBRANCH  18  20
ENDBRANCH   1  18
TORSDOF 5
ENDMDL
