MODEL 1
REMARK VINA RESULT:      -9.5      0.000      0.000
REMARK  Name = 
REMARK  7 active torsions:
REMARK  status: ('A' for Active; 'I' for Inactive)
REMARK    1  A    between atoms: C_1  and  C_2
REMARK    2  A    between atoms: N_4  and  C_5
REMARK    3  A    between atoms: N_14  and  C_15
REMARK    4  A    between atoms: C_15  and  C_16
REMARK    5  A    between atoms: C_18  and  C_19
REMARK    6  A    between atoms: C_20  and  C_21
REMARK    7  A    between atoms: C_24  and  C_25
REMARK                            x       y       z     vdW  Elec       q    Type
REMARK                         _______ _______ _______ _____ _____    ______ ____
ROOT
ATOM      1  C   UNL     1       1.161   9.890  19.942  0.00  0.00    +0.000 A 
ATOM      2  C   UNL     1       1.609  10.022  18.676  0.00  0.00    +0.000 A 
ATOM      3  C   UNL     1       2.230   8.923  17.944  0.00  0.00    +0.000 A 
ATOM      4  C   UNL     1       2.319   7.687  18.466  0.00  0.00    +0.000 A 
ATOM      5  N   UNL     1       1.818   7.488  19.748  0.00  0.00    +0.000 N 
ATOM      6  C   UNL     1       1.405   8.531  20.570  0.00  0.00    +0.000 A 
ATOM      7  O   UNL     1       1.234   8.362  21.773  0.00  0.00    +0.000 OA
ATOM      8  C   UNL     1       1.950   6.163  20.361  0.00  0.00    +0.000 C 
ATOM      9  C   UNL     1       2.065   5.037  19.339  0.00  0.00    +0.000 C 
ATOM     10  N   UNL     1       3.045   5.294  18.283  0.00  0.00    +0.000 N 
ATOM     11  C   UNL     1       3.066   6.573  17.714  0.00  0.00    +0.000 C 
ATOM     12  O   UNL     1       3.715   6.835  16.703  0.00  0.00    +0.000 OA
ENDROOT
BRANCH   1  16
ATOM     13  C   UNL     1      -2.019  12.699  22.715  0.00  0.00    +0.000 C 
ATOM     14  C   UNL     1      -0.897  12.134  21.930  0.00  0.00    +0.000 A 
ATOM     15  C   UNL     1      -0.706  10.878  21.372  0.00  0.00    +0.000 A 
ATOM     16  N   UNL     1       0.506  10.913  20.684  0.00  0.00    +0.000 N 
ATOM     17  C   UNL     1       0.976  12.196  20.917  0.00  0.00    +0.000 A 
ATOM     18  N   UNL     1       0.169  12.930  21.648  0.00  0.00    +0.000 NA
ENDBRANCH   1  16
BRANCH  10  19
ATOM     19  C   UNL     1       4.242   4.413  18.226  0.00  0.00    +0.000 C 
BRANCH  19  20
ATOM     20  C   UNL     1       5.531   4.634  19.102  0.00  0.00    +0.000 C 
ATOM     21  C   UNL     1       6.066   6.069  19.173  0.00  0.00    +0.000 C 
ATOM     22  C   UNL     1       7.437   6.051  18.483  0.00  0.00    +0.000 C 
ATOM     23  C   UNL     1       7.839   7.377  17.851  0.00  0.00    +0.000 C 
ATOM     24  C   UNL     1       7.436   4.762  17.658  0.00  0.00    +0.000 C 
ATOM     25  O   UNL     1       6.650   3.881  18.527  0.00  0.00    +0.000 OA
BRANCH  24  26
ATOM     26  C   UNL     1       6.805   4.637  16.282  0.00  0.00    +0.000 A 
ATOM     27  C   UNL     1       5.853   3.678  15.935  0.00  0.00    +0.000 A 
ATOM     28  C   UNL     1       5.643   3.345  14.599  0.00  0.00    +0.000 A 
ATOM     29  C   UNL     1       6.322   4.016  13.577  0.00  0.00    +0.000 A 
ATOM     30  C   UNL     1       7.119   5.117  13.913  0.00  0.00    +0.000 A 
ATOM     31  C   UNL     1       7.328   5.442  15.252  0.00  0.00    +0.000 A 
BRANCH  29  32
ATOM     32  C   UNL     1       6.255   3.516  12.161  0.00  0.00    +0.000 C 
ATOM     33  F   UNL     1       5.028   3.686  11.592  0.00  0.00    +0.000 F 
ATOM     34  F   UNL     1       7.143   4.128  11.335  0.00  0.00    +0.000 F 
ATOM     35  F   UNL     1       6.513   2.180  12.080  0.00  0.00    +0.000 F 
ENDBRANCH  29  32
ENDBRANCH  24  26
ENDBRANCH  19  20
ENDBRANCH  10  19
TORSDOF 5
ENDMDL
MODEL 2
REMARK VINA RESULT:      -9.3      2.735      4.571
REMARK  Name = 
REMARK  7 active torsions:
REMARK  status: ('A' for Active; 'I' for Inactive)
REMARK    1  A    between atoms: C_1  and  C_2
REMARK    2  A    between atoms: N_4  and  C_5
REMARK    3  A    between atoms: N_14  and  C_15
REMARK    4  A    between atoms: C_15  and  C_16
REMARK    5  A    between atoms: C_18  and  C_19
REMARK    6  A    between atoms: C_20  and  C_21
REMARK    7  A    between atoms: C_24  and  C_25
REMARK                            x       y       z     vdW  Elec       q    Type
REMARK                         _______ _______ _______ _____ _____    ______ ____
ROOT
ATOM      1  C   UNL     1      -1.243  11.638  20.705  0.00  0.00    +0.000 A 
ATOM      2  C   UNL     1      -0.690  11.079  21.802  0.00  0.00    +0.000 A 
ATOM      3  C   UNL     1       0.266   9.979  21.726  0.00  0.00    +0.000 A 
ATOM      4  C   UNL     1       0.713   9.510  20.548  0.00  0.00    +0.000 A 
ATOM      5  N   UNL     1       0.215  10.096  19.388  0.00  0.00    +0.000 N 
ATOM      6  C   UNL     1      -0.842  10.999  19.388  0.00  0.00    +0.000 A 
ATOM      7  O   UNL     1      -1.437  11.281  18.353  0.00  0.00    +0.000 OA
ATOM      8  C   UNL     1       0.646   9.569  18.090  0.00  0.00    +0.000 C 
ATOM      9  C   UNL     1       2.002   8.873  18.144  0.00  0.00    +0.000 C 
ATOM     10  N   UNL     1       2.130   7.910  19.237  0.00  0.00    +0.000 N 
ATOM     11  C   UNL     1       1.643   8.287  20.495  0.00  0.00    +0.000 C 
ATOM     12  O   UNL     1       1.868   7.635  21.512  0.00  0.00    +0.000 OA
ENDROOT
BRANCH   1  16
ATOM     13  C   UNL     1      -5.273  14.711  20.759  0.00  0.00    +0.000 C 
ATOM     14  C   UNL     1      -3.930  14.087  20.767  0.00  0.00    +0.000 A 
ATOM     15  C   UNL     1      -3.534  12.758  20.780  0.00  0.00    +0.000 A 
ATOM     16  N   UNL     1      -2.141  12.742  20.719  0.00  0.00    +0.000 N 
ATOM     17  C   UNL     1      -1.800  14.085  20.714  0.00  0.00    +0.000 A 
ATOM     18  N   UNL     1      -2.835  14.893  20.744  0.00  0.00    +0.000 NA
ENDBRANCH   1  16
BRANCH  10  19
ATOM     19  C   UNL     1       2.285   6.476  18.877  0.00  0.00    +0.000 C 
BRANCH  19  20
ATOM     20  C   UNL     1       1.236   5.364  19.253  0.00  0.00    +0.000 C 
ATOM     21  C   UNL     1       1.424   4.685  20.614  0.00  0.00    +0.000 C 
ATOM     22  C   UNL     1       1.769   3.218  20.319  0.00  0.00    +0.000 C 
ATOM     23  C   UNL     1       2.620   2.546  21.389  0.00  0.00    +0.000 C 
ATOM     24  C   UNL     1       2.212   3.214  18.854  0.00  0.00    +0.000 C 
ATOM     25  O   UNL     1       1.338   4.252  18.301  0.00  0.00    +0.000 OA
BRANCH  24  26
ATOM     26  C   UNL     1       3.612   3.578  18.390  0.00  0.00    +0.000 A 
ATOM     27  C   UNL     1       4.686   3.825  19.244  0.00  0.00    +0.000 A 
ATOM     28  C   UNL     1       5.788   4.552  18.799  0.00  0.00    +0.000 A 
ATOM     29  C   UNL     1       5.874   4.982  17.471  0.00  0.00    +0.000 A 
ATOM     30  C   UNL     1       4.897   4.556  16.564  0.00  0.00    +0.000 A 
ATOM     31  C   UNL     1       3.796   3.832  17.017  0.00  0.00    +0.000 A 
BRANCH  29  32
ATOM     32  C   UNL     1       6.953   5.941  17.049  0.00  0.00    +0.000 C 
ATOM     33  F   UNL     1       7.503   5.628  15.841  0.00  0.00    +0.000 F 
ATOM     34  F   UNL     1       6.518   7.224  16.947  0.00  0.00    +0.000 F 
ATOM     35  F   UNL     1       7.992   5.956  17.930  0.00  0.00    +0.000 F 
ENDBRANCH  29  32
ENDBRANCH  24  26
ENDBRANCH  19  20
ENDBRANCH  10  19
TORSDOF 5
ENDMDL
MODEL 3
REMARK VINA RESULT:      -9.2      2.856      4.762
REMARK  Name = 
REMARK  7 active torsions:
REMARK  status: ('A' for Active; 'I' for Inactive)
REMARK    1  A    between atoms: C_1  and  C_2
REMARK    2  A    between atoms: N_4  and  C_5
REMARK    3  A    between atoms: N_14  and  C_15
REMARK    4  A    between atoms: C_15  and  C_16
REMARK    5  A    between atoms: C_18  and  C_19
REMARK    6  A    between atoms: C_20  and  C_21
REMARK    7  A    between atoms: C_24  and  C_25
REMARK                            x       y       z     vdW  Elec       q    Type
REMARK                         _______ _______ _______ _____ _____    ______ ____
ROOT
ATOM      1  C   UNL     1      -1.476  11.695  20.789  0.00  0.00    +0.000 A 
ATOM      2  C   UNL     1      -0.891  11.187  21.895  0.00  0.00    +0.000 A 
ATOM      3  C   UNL     1       0.125  10.141  21.835  0.00  0.00    +0.000 A 
ATOM      4  C   UNL     1       0.595   9.677  20.664  0.00  0.00    +0.000 A 
ATOM      5  N   UNL     1       0.063  10.212  19.496  0.00  0.00    +0.000 N 
ATOM      6  C   UNL     1      -1.042  11.055  19.483  0.00  0.00    +0.000 A 
ATOM      7  O   UNL     1      -1.654  11.285  18.445  0.00  0.00    +0.000 OA
ATOM      8  C   UNL     1       0.521   9.687  18.206  0.00  0.00    +0.000 C 
ATOM      9  C   UNL     1       1.914   9.069  18.269  0.00  0.00    +0.000 C 
ATOM     10  N   UNL     1       2.097   8.135  19.379  0.00  0.00    +0.000 N 
ATOM     11  C   UNL     1       1.592   8.506  20.631  0.00  0.00    +0.000 C 
ATOM     12  O   UNL     1       1.854   7.886  21.659  0.00  0.00    +0.000 OA
ENDROOT
BRANCH   1  16
ATOM     13  C   UNL     1      -3.926  16.129  20.937  0.00  0.00    +0.000 C 
ATOM     14  C   UNL     1      -3.501  14.714  20.829  0.00  0.00    +0.000 A 
ATOM     15  C   UNL     1      -2.247  14.125  20.881  0.00  0.00    +0.000 A 
ATOM     16  N   UNL     1      -2.434  12.747  20.786  0.00  0.00    +0.000 N 
ATOM     17  C   UNL     1      -3.806  12.615  20.643  0.00  0.00    +0.000 A 
ATOM     18  N   UNL     1      -4.453  13.757  20.663  0.00  0.00    +0.000 NA
ENDBRANCH   1  16
BRANCH  10  19
ATOM     19  C   UNL     1       2.331   6.705  19.044  0.00  0.00    +0.000 C 
BRANCH  19  20
ATOM     20  C   UNL     1       1.276   5.565  19.299  0.00  0.00    +0.000 C 
ATOM     21  C   UNL     1       1.406   4.803  20.623  0.00  0.00    +0.000 C 
ATOM     22  C   UNL     1       1.777   3.360  20.253  0.00  0.00    +0.000 C 
ATOM     23  C   UNL     1       2.582   2.626  21.317  0.00  0.00    +0.000 C 
ATOM     24  C   UNL     1       2.288   3.451  18.812  0.00  0.00    +0.000 C 
ATOM     25  O   UNL     1       1.432   4.517  18.285  0.00  0.00    +0.000 OA
BRANCH  24  26
ATOM     26  C   UNL     1       3.705   3.851  18.440  0.00  0.00    +0.000 A 
ATOM     27  C   UNL     1       4.725   4.087  19.360  0.00  0.00    +0.000 A 
ATOM     28  C   UNL     1       5.837   4.846  19.000  0.00  0.00    +0.000 A 
ATOM     29  C   UNL     1       5.990   5.320  17.693  0.00  0.00    +0.000 A 
ATOM     30  C   UNL     1       5.072   4.907  16.719  0.00  0.00    +0.000 A 
ATOM     31  C   UNL     1       3.960   4.152  17.087  0.00  0.00    +0.000 A 
BRANCH  29  32
ATOM     32  C   UNL     1       7.073   6.308  17.362  0.00  0.00    +0.000 C 
ATOM     33  F   UNL     1       6.613   7.586  17.244  0.00  0.00    +0.000 F 
ATOM     34  F   UNL     1       8.065   6.347  18.289  0.00  0.00    +0.000 F 
ATOM     35  F   UNL     1       7.672   6.025  16.171  0.00  0.00    +0.000 F 
ENDBRANCH  29  32
ENDBRANCH  24  26
ENDBRANCH  19  20
ENDBRANCH  10  19
TORSDOF 5
ENDMDL
MODEL 4
REMARK VINA RESULT:      -8.9      3.476      4.945
REMARK  Name = 
REMARK  7 active torsions:
REMARK  status: ('A' for Active; 'I' for Inactive)
REMARK    1  A    between atoms: C_1  and  C_2
REMARK    2  A    between atoms: N_4  and  C_5
REMARK    3  A    between atoms: N_14  and  C_15
REMARK    4  A    between atoms: C_15  and  C_16
REMARK    5  A    between atoms: C_18  and  C_19
REMARK    6  A    between atoms: C_20  and  C_21
REMARK    7  A    between atoms: C_24  and  C_25
REMARK                            x       y       z     vdW  Elec       q    Type
REMARK                         _______ _______ _______ _____ _____    ______ ____
ROOT
ATOM      1  C   UNL     1      -0.860  10.597  20.441  0.00  0.00    +0.000 A 
ATOM      2  C   UNL     1      -0.531   9.590  21.278  0.00  0.00    +0.000 A 
ATOM      3  C   UNL     1       0.537   8.641  20.983  0.00  0.00    +0.000 A 
ATOM      4  C   UNL     1       1.312   8.764  19.891  0.00  0.00    +0.000 A 
ATOM      5  N   UNL     1       1.048   9.822  19.027  0.00  0.00    +0.000 N 
ATOM      6  C   UNL     1      -0.076  10.632  19.142  0.00  0.00    +0.000 A 
ATOM      7  O   UNL     1      -0.428  11.365  18.223  0.00  0.00    +0.000 OA
ATOM      8  C   UNL     1       1.843   9.949  17.802  0.00  0.00    +0.000 C 
ATOM      9  C   UNL     1       3.217   9.296  17.908  0.00  0.00    +0.000 C 
ATOM     10  N   UNL     1       3.186   7.936  18.447  0.00  0.00    +0.000 N 
ATOM     11  C   UNL     1       2.364   7.695  19.554  0.00  0.00    +0.000 C 
ATOM     12  O   UNL     1       2.408   6.646  20.193  0.00  0.00    +0.000 OA
ENDROOT
BRANCH   1  16
ATOM     13  C   UNL     1      -3.935  14.085  22.456  0.00  0.00    +0.000 C 
ATOM     14  C   UNL     1      -3.194  13.134  21.596  0.00  0.00    +0.000 A 
ATOM     15  C   UNL     1      -2.109  12.311  21.859  0.00  0.00    +0.000 A 
ATOM     16  N   UNL     1      -1.859  11.577  20.700  0.00  0.00    +0.000 N 
ATOM     17  C   UNL     1      -2.803  12.052  19.803  0.00  0.00    +0.000 A 
ATOM     18  N   UNL     1      -3.596  12.969  20.307  0.00  0.00    +0.000 NA
ENDBRANCH   1  16
BRANCH  10  19
ATOM     19  C   UNL     1       3.594   6.829  17.543  0.00  0.00    +0.000 C 
BRANCH  19  20
ATOM     20  C   UNL     1       5.020   6.718  16.886  0.00  0.00    +0.000 C 
ATOM     21  C   UNL     1       5.069   6.161  15.458  0.00  0.00    +0.000 C 
ATOM     22  C   UNL     1       5.818   4.824  15.545  0.00  0.00    +0.000 C 
ATOM     23  C   UNL     1       5.427   3.815  14.473  0.00  0.00    +0.000 C 
ATOM     24  C   UNL     1       5.764   4.447  17.028  0.00  0.00    +0.000 C 
ATOM     25  O   UNL     1       5.841   5.772  17.649  0.00  0.00    +0.000 OA
BRANCH  24  26
ATOM     26  C   UNL     1       4.579   3.762  17.685  0.00  0.00    +0.000 A 
ATOM     27  C   UNL     1       3.372   3.486  17.044  0.00  0.00    +0.000 A 
ATOM     28  C   UNL     1       2.215   3.262  17.786  0.00  0.00    +0.000 A 
ATOM     29  C   UNL     1       2.253   3.234  19.184  0.00  0.00    +0.000 A 
ATOM     30  C   UNL     1       3.498   3.302  19.822  0.00  0.00    +0.000 A 
ATOM     31  C   UNL     1       4.651   3.530  19.073  0.00  0.00    +0.000 A 
BRANCH  29  32
ATOM     32  C   UNL     1       0.979   3.205  19.982  0.00  0.00    +0.000 C 
ATOM     33  F   UNL     1       1.118   2.587  21.189  0.00  0.00    +0.000 F 
ATOM     34  F   UNL     1       0.485   4.443  20.245  0.00  0.00    +0.000 F 
ATOM     35  F   UNL     1      -0.009   2.526  19.335  0.00  0.00    +0.000 F 
ENDBRANCH  29  32
ENDBRANCH  24  26
ENDBRANCH  19  20
ENDBRANCH  10  19
TORSDOF 5
ENDMDL
MODEL 5
REMARK VINA RESULT:      -8.7      4.730     10.027
REMARK  Name = 
REMARK  7 active torsions:
REMARK  status: ('A' for Active; 'I' for Inactive)
REMARK    1  A    between atoms: C_1  and  C_2
REMARK    2  A    between atoms: N_4  and  C_5
REMARK    3  A    between atoms: N_14  and  C_15
REMARK    4  A    between atoms: C_15  and  C_16
REMARK    5  A    between atoms: C_18  and  C_19
REMARK    6  A    between atoms: C_20  and  C_21
REMARK    7  A    between atoms: C_24  and  C_25
REMARK                            x       y       z     vdW  Elec       q    Type
REMARK                         _______ _______ _______ _____ _____    ______ ____
ROOT
ATOM      1  C   UNL     1       2.721   6.285  18.980  0.00  0.00    +0.000 A 
ATOM      2  C   UNL     1       2.761   7.201  17.990  0.00  0.00    +0.000 A 
ATOM      3  C   UNL     1       2.178   8.532  18.127  0.00  0.00    +0.000 A 
ATOM      4  C   UNL     1       1.635   8.951  19.284  0.00  0.00    +0.000 A 
ATOM      5  N   UNL     1       1.624   8.060  20.353  0.00  0.00    +0.000 N 
ATOM      6  C   UNL     1       1.973   6.720  20.227  0.00  0.00    +0.000 A 
ATOM      7  O   UNL     1       1.692   5.906  21.100  0.00  0.00    +0.000 OA
ATOM      8  C   UNL     1       0.991   8.473  21.609  0.00  0.00    +0.000 C 
ATOM      9  C   UNL     1       0.960   9.986  21.797  0.00  0.00    +0.000 C 
ATOM     10  N   UNL     1       0.473  10.718  20.629  0.00  0.00    +0.000 N 
ATOM     11  C   UNL     1       0.941  10.320  19.371  0.00  0.00    +0.000 C 
ATOM     12  O   UNL     1       0.743  10.980  18.353  0.00  0.00    +0.000 OA
ENDROOT
BRANCH   1  16
ATOM     13  C   UNL     1       3.786   1.382  18.266  0.00  0.00    +0.000 C 
ATOM     14  C   UNL     1       3.780   2.830  18.574  0.00  0.00    +0.000 A 
ATOM     15  C   UNL     1       2.812   3.805  18.387  0.00  0.00    +0.000 A 
ATOM     16  N   UNL     1       3.314   4.993  18.918  0.00  0.00    +0.000 N 
ATOM     17  C   UNL     1       4.582   4.642  19.356  0.00  0.00    +0.000 A 
ATOM     18  N   UNL     1       4.877   3.378  19.163  0.00  0.00    +0.000 NA
ENDBRANCH   1  16
BRANCH  10  19
ATOM     19  C   UNL     1      -0.808  11.461  20.767  0.00  0.00    +0.000 C 
BRANCH  19  20
ATOM     20  C   UNL     1      -1.497  11.762  22.150  0.00  0.00    +0.000 C 
ATOM     21  C   UNL     1      -2.767  12.619  22.103  0.00  0.00    +0.000 C 
ATOM     22  C   UNL     1      -2.428  13.931  22.824  0.00  0.00    +0.000 C 
ATOM     23  C   UNL     1      -3.230  15.135  22.349  0.00  0.00    +0.000 C 
ATOM     24  C   UNL     1      -0.897  13.973  22.847  0.00  0.00    +0.000 C 
ATOM     25  O   UNL     1      -0.587  12.547  22.991  0.00  0.00    +0.000 OA
BRANCH  24  26
ATOM     26  C   UNL     1      -0.045  14.456  21.687  0.00  0.00    +0.000 A 
ATOM     27  C   UNL     1      -0.535  14.736  20.412  0.00  0.00    +0.000 A 
ATOM     28  C   UNL     1       0.324  14.753  19.316  0.00  0.00    +0.000 A 
ATOM     29  C   UNL     1       1.700  14.566  19.479  0.00  0.00    +0.000 A 
ATOM     30  C   UNL     1       2.217  14.493  20.778  0.00  0.00    +0.000 A 
ATOM     31  C   UNL     1       1.352  14.473  21.870  0.00  0.00    +0.000 A 
BRANCH  29  32
ATOM     32  C   UNL     1       2.591  14.373  18.283  0.00  0.00    +0.000 C 
ATOM     33  F   UNL     1       2.131  13.423  17.421  0.00  0.00    +0.000 F 
ATOM     34  F   UNL     1       2.754  15.505  17.549  0.00  0.00    +0.000 F 
ATOM     35  F   UNL     1       3.841  13.966  18.643  0.00  0.00    +0.000 F 
ENDBRANCH  29  32
ENDBRANCH  24  26
ENDBRANCH  19  20
ENDBRANCH  10  19
TORSDOF 5
ENDMDL
MODEL 6
REMARK VINA RESULT:      -8.7      3.982      9.967
REMARK  Name = 
REMARK  7 active torsions:
REMARK  status: ('A' for Active; 'I' for Inactive)
REMARK    1  A    between atoms: C_1  and  C_2
REMARK    2  A    between atoms: N_4  and  C_5
REMARK    3  A    between atoms: N_14  and  C_15
REMARK    4  A    between atoms: C_15  and  C_16
REMARK    5  A    between atoms: C_18  and  C_19
REMARK    6  A    between atoms: C_20  and  C_21
REMARK    7  A    between atoms: C_24  and  C_25
REMARK                            x       y       z     vdW  Elec       q    Type
REMARK                         _______ _______ _______ _____ _____    ______ ____
ROOT
ATOM      1  C   UNL     1       2.984   6.813  18.017  0.00  0.00    +0.000 A 
ATOM      2  C   UNL     1       2.920   8.022  17.419  0.00  0.00    +0.000 A 
ATOM      3  C   UNL     1       2.256   9.167  18.034  0.00  0.00    +0.000 A 
ATOM      4  C   UNL     1       1.738   9.103  19.273  0.00  0.00    +0.000 A 
ATOM      5  N   UNL     1       1.833   7.892  19.952  0.00  0.00    +0.000 N 
ATOM      6  C   UNL     1       2.264   6.717  19.349  0.00  0.00    +0.000 A 
ATOM      7  O   UNL     1       2.077   5.626  19.877  0.00  0.00    +0.000 OA
ATOM      8  C   UNL     1       1.230   7.781  21.284  0.00  0.00    +0.000 C 
ATOM      9  C   UNL     1       1.107   9.120  22.003  0.00  0.00    +0.000 C 
ATOM     10  N   UNL     1       0.521  10.180  21.182  0.00  0.00    +0.000 N 
ATOM     11  C   UNL     1       0.958  10.293  19.857  0.00  0.00    +0.000 C 
ATOM     12  O   UNL     1       0.673  11.255  19.147  0.00  0.00    +0.000 OA
ENDROOT
BRANCH   1  16
ATOM     13  C   UNL     1       6.141   3.592  15.704  0.00  0.00    +0.000 C 
ATOM     14  C   UNL     1       5.074   4.265  16.480  0.00  0.00    +0.000 A 
ATOM     15  C   UNL     1       4.849   5.604  16.764  0.00  0.00    +0.000 A 
ATOM     16  N   UNL     1       3.658   5.678  17.486  0.00  0.00    +0.000 N 
ATOM     17  C   UNL     1       3.273   4.352  17.614  0.00  0.00    +0.000 A 
ATOM     18  N   UNL     1       4.091   3.505  17.033  0.00  0.00    +0.000 NA
ENDBRANCH   1  16
BRANCH  10  19
ATOM     19  C   UNL     1      -0.799  10.723  21.599  0.00  0.00    +0.000 C 
BRANCH  19  20
ATOM     20  C   UNL     1      -0.977  11.832  22.703  0.00  0.00    +0.000 C 
ATOM     21  C   UNL     1      -2.334  11.867  23.416  0.00  0.00    +0.000 C 
ATOM     22  C   UNL     1      -2.990  13.199  23.023  0.00  0.00    +0.000 C 
ATOM     23  C   UNL     1      -4.513  13.175  23.035  0.00  0.00    +0.000 C 
ATOM     24  C   UNL     1      -2.226  13.652  21.777  0.00  0.00    +0.000 C 
ATOM     25  O   UNL     1      -0.881  13.159  22.086  0.00  0.00    +0.000 OA
BRANCH  24  26
ATOM     26  C   UNL     1      -2.524  13.156  20.373  0.00  0.00    +0.000 A 
ATOM     27  C   UNL     1      -3.660  12.431  20.018  0.00  0.00    +0.000 A 
ATOM     28  C   UNL     1      -3.669  11.657  18.860  0.00  0.00    +0.000 A 
ATOM     29  C   UNL     1      -2.571  11.651  17.993  0.00  0.00    +0.000 A 
ATOM     30  C   UNL     1      -1.517  12.538  18.240  0.00  0.00    +0.000 A 
ATOM     31  C   UNL     1      -1.513  13.306  19.403  0.00  0.00    +0.000 A 
BRANCH  29  32
ATOM     32  C   UNL     1      -2.496  10.660  16.864  0.00  0.00    +0.000 C 
ATOM     33  F   UNL     1      -1.393   9.862  16.925  0.00  0.00    +0.000 F 
ATOM     34  F   UNL     1      -3.566   9.824  16.813  0.00  0.00    +0.000 F 
ATOM     35  F   UNL     1      -2.433  11.278  15.650  0.00  0.00    +0.000 F 
ENDBRANCH  29  32
ENDBRANCH  24  26
ENDBRANCH  19  20
ENDBRANCH  10  19
TORSDOF 5
ENDMDL
MODEL 7
REMARK VINA RESULT:      -8.7      4.793      9.917
REMARK  Name = 
REMARK  7 active torsions:
REMARK  status: ('A' for Active; 'I' for Inactive)
REMARK    1  A    between atoms: C_1  and  C_2
REMARK    2  A    between atoms: N_4  and  C_5
REMARK    3  A    between atoms: N_14  and  C_15
REMARK    4  A    between atoms: C_15  and  C_16
REMARK    5  A    between atoms: C_18  and  C_19
REMARK    6  A    between atoms: C_20  and  C_21
REMARK    7  A    between atoms: C_24  and  C_25
REMARK                            x       y       z     vdW  Elec       q    Type
REMARK                         _______ _______ _______ _____ _____    ______ ____
ROOT
ATOM      1  C   UNL     1       2.700   6.608  18.855  0.00  0.00    +0.000 A 
ATOM      2  C   UNL     1       2.846   7.578  17.927  0.00  0.00    +0.000 A 
ATOM      3  C   UNL     1       2.304   8.921  18.102  0.00  0.00    +0.000 A 
ATOM      4  C   UNL     1       1.694   9.295  19.241  0.00  0.00    +0.000 A 
ATOM      5  N   UNL     1       1.572   8.346  20.251  0.00  0.00    +0.000 N 
ATOM      6  C   UNL     1       1.880   7.002  20.069  0.00  0.00    +0.000 A 
ATOM      7  O   UNL     1       1.506   6.151  20.870  0.00  0.00    +0.000 OA
ATOM      8  C   UNL     1       0.865   8.711  21.482  0.00  0.00    +0.000 C 
ATOM      9  C   UNL     1       0.877  10.211  21.759  0.00  0.00    +0.000 C 
ATOM     10  N   UNL     1       0.503  11.029  20.605  0.00  0.00    +0.000 N 
ATOM     11  C   UNL     1       1.046  10.684  19.361  0.00  0.00    +0.000 C 
ATOM     12  O   UNL     1       0.948  11.410  18.373  0.00  0.00    +0.000 OA
ENDROOT
BRANCH   1  16
ATOM     13  C   UNL     1       3.568   1.676  18.078  0.00  0.00    +0.000 C 
ATOM     14  C   UNL     1       3.624   3.124  18.386  0.00  0.00    +0.000 A 
ATOM     15  C   UNL     1       2.678   4.128  18.257  0.00  0.00    +0.000 A 
ATOM     16  N   UNL     1       3.248   5.299  18.757  0.00  0.00    +0.000 N 
ATOM     17  C   UNL     1       4.528   4.908  19.118  0.00  0.00    +0.000 A 
ATOM     18  N   UNL     1       4.772   3.636  18.907  0.00  0.00    +0.000 NA
ENDBRANCH   1  16
BRANCH  10  19
ATOM     19  C   UNL     1      -0.756  11.814  20.696  0.00  0.00    +0.000 C 
BRANCH  19  20
ATOM     20  C   UNL     1      -1.180  12.637  21.970  0.00  0.00    +0.000 C 
ATOM     21  C   UNL     1      -2.061  13.866  21.722  0.00  0.00    +0.000 C 
ATOM     22  C   UNL     1      -1.220  15.086  22.125  0.00  0.00    +0.000 C 
ATOM     23  C   UNL     1      -1.576  16.367  21.381  0.00  0.00    +0.000 C 
ATOM     24  C   UNL     1       0.221  14.570  22.145  0.00  0.00    +0.000 C 
ATOM     25  O   UNL     1       0.013  13.197  22.613  0.00  0.00    +0.000 OA
BRANCH  24  26
ATOM     26  C   UNL     1       1.095  14.447  20.909  0.00  0.00    +0.000 A 
ATOM     27  C   UNL     1       2.367  13.875  20.897  0.00  0.00    +0.000 A 
ATOM     28  C   UNL     1       3.262  14.172  19.872  0.00  0.00    +0.000 A 
ATOM     29  C   UNL     1       2.882  14.984  18.799  0.00  0.00    +0.000 A 
ATOM     30  C   UNL     1       1.543  15.386  18.704  0.00  0.00    +0.000 A 
ATOM     31  C   UNL     1       0.654  15.089  19.735  0.00  0.00    +0.000 A 
BRANCH  29  32
ATOM     32  C   UNL     1       3.905  15.473  17.811  0.00  0.00    +0.000 C 
ATOM     33  F   UNL     1       4.489  16.647  18.183  0.00  0.00    +0.000 F 
ATOM     34  F   UNL     1       4.919  14.592  17.610  0.00  0.00    +0.000 F 
ATOM     35  F   UNL     1       3.355  15.711  16.587  0.00  0.00    +0.000 F 
ENDBRANCH  29  32
ENDBRANCH  24  26
ENDBRANCH  19  20
ENDBRANCH  10  19
TORSDOF 5
ENDMDL
MODEL 8
REMARK VINA RESULT:      -8.7      2.659      4.534
REMARK  Name = 
REMARK  7 active torsions:
REMARK  status: ('A' for Active; 'I' for Inactive)
REMARK    1  A    between atoms: C_1  and  C_2
REMARK    2  A    between atoms: N_4  and  C_5
REMARK    3  A    between atoms: N_14  and  C_15
REMARK    4  A    between atoms: C_15  and  C_16
REMARK    5  A    between atoms: C_18  and  C_19
REMARK    6  A    between atoms: C_20  and  C_21
REMARK    7  A    between atoms: C_24  and  C_25
REMARK                            x       y       z     vdW  Elec       q    Type
REMARK                         _______ _______ _______ _____ _____    ______ ____
ROOT
ATOM      1  C   UNL     1      -0.580  11.004  21.505  0.00  0.00    +0.000 A 
ATOM      2  C   UNL     1      -0.049  10.131  22.386  0.00  0.00    +0.000 A 
ATOM      3  C   UNL     1       0.788   9.010  21.973  0.00  0.00    +0.000 A 
ATOM      4  C   UNL     1       1.146   8.829  20.690  0.00  0.00    +0.000 A 
ATOM      5  N   UNL     1       0.670   9.739  19.751  0.00  0.00    +0.000 N 
ATOM      6  C   UNL     1      -0.291  10.699  20.046  0.00  0.00    +0.000 A 
ATOM      7  O   UNL     1      -0.889  11.294  19.156  0.00  0.00    +0.000 OA
ATOM      8  C   UNL     1       1.002   9.535  18.338  0.00  0.00    +0.000 C 
ATOM      9  C   UNL     1       2.283   8.733  18.131  0.00  0.00    +0.000 C 
ATOM     10  N   UNL     1       2.351   7.510  18.930  0.00  0.00    +0.000 N 
ATOM     11  C   UNL     1       1.947   7.585  20.269  0.00  0.00    +0.000 C 
ATOM     12  O   UNL     1       2.140   6.672  21.069  0.00  0.00    +0.000 OA
ENDROOT
BRANCH   1  16
ATOM     13  C   UNL     1      -2.301  15.577  22.851  0.00  0.00    +0.000 C 
ATOM     14  C   UNL     1      -2.109  14.171  22.427  0.00  0.00    +0.000 A 
ATOM     15  C   UNL     1      -0.963  13.443  22.149  0.00  0.00    +0.000 A 
ATOM     16  N   UNL     1      -1.363  12.140  21.855  0.00  0.00    +0.000 N 
ATOM     17  C   UNL     1      -2.745  12.197  21.942  0.00  0.00    +0.000 A 
ATOM     18  N   UNL     1      -3.206  13.380  22.274  0.00  0.00    +0.000 NA
ENDBRANCH   1  16
BRANCH  10  19
ATOM     19  C   UNL     1       2.350   6.213  18.205  0.00  0.00    +0.000 C 
BRANCH  19  20
ATOM     20  C   UNL     1       1.182   5.161  18.299  0.00  0.00    +0.000 C 
ATOM     21  C   UNL     1       0.960   4.514  19.671  0.00  0.00    +0.000 C 
ATOM     22  C   UNL     1       1.294   3.025  19.502  0.00  0.00    +0.000 C 
ATOM     23  C   UNL     1       1.788   2.345  20.772  0.00  0.00    +0.000 C 
ATOM     24  C   UNL     1       2.115   2.958  18.212  0.00  0.00    +0.000 C 
ATOM     25  O   UNL     1       1.477   4.019  17.427  0.00  0.00    +0.000 OA
BRANCH  24  26
ATOM     26  C   UNL     1       3.605   3.243  18.139  0.00  0.00    +0.000 A 
ATOM     27  C   UNL     1       4.426   3.435  19.249  0.00  0.00    +0.000 A 
ATOM     28  C   UNL     1       5.643   4.099  19.119  0.00  0.00    +0.000 A 
ATOM     29  C   UNL     1       6.102   4.518  17.866  0.00  0.00    +0.000 A 
ATOM     30  C   UNL     1       5.378   4.142  16.728  0.00  0.00    +0.000 A 
ATOM     31  C   UNL     1       4.159   3.481  16.866  0.00  0.00    +0.000 A 
BRANCH  29  32
ATOM     32  C   UNL     1       7.303   5.415  17.754  0.00  0.00    +0.000 C 
ATOM     33  F   UNL     1       8.394   4.933  18.414  0.00  0.00    +0.000 F 
ATOM     34  F   UNL     1       7.698   5.623  16.471  0.00  0.00    +0.000 F 
ATOM     35  F   UNL     1       7.069   6.647  18.287  0.00  0.00    +0.000 F 
ENDBRANCH  29  32
ENDBRANCH  24  26
ENDBRANCH  19  20
ENDBRANCH  10  19
TORSDOF 5
ENDMDL
MODEL 9
REMARK VINA RESULT:      -8.6      4.608     10.495
REMARK  Name = 
REMARK  7 active torsions:
REMARK  status: ('A' for Active; 'I' for Inactive)
REMARK    1  A    between atoms: C_1  and  C_2
REMARK    2  A    between atoms: N_4  and  C_5
REMARK    3  A    between atoms: N_14  and  C_15
REMARK    4  A    between atoms: C_15  and  C_16
REMARK    5  A    between atoms: C_18  and  C_19
REMARK    6  A    between atoms: C_20  and  C_21
REMARK    7  A    between atoms: C_24  and  C_25
REMARK                            x       y       z     vdW  Elec       q    Type
REMARK                         _______ _______ _______ _____ _____    ______ ____
ROOT
ATOM      1  C   UNL     1       2.258   7.136  19.200  0.00  0.00    +0.000 A 
ATOM      2  C   UNL     1       1.974   6.997  20.513  0.00  0.00    +0.000 A 
ATOM      3  C   UNL     1       1.352   8.057  21.299  0.00  0.00    +0.000 A 
ATOM      4  C   UNL     1       0.951   9.212  20.737  0.00  0.00    +0.000 A 
ATOM      5  N   UNL     1       1.170   9.378  19.373  0.00  0.00    +0.000 N 
ATOM      6  C   UNL     1       1.936   8.499  18.616  0.00  0.00    +0.000 A 
ATOM      7  O   UNL     1       2.341   8.809  17.500  0.00  0.00    +0.000 OA
ATOM      8  C   UNL     1       0.790  10.647  18.747  0.00  0.00    +0.000 C 
ATOM      9  C   UNL     1      -0.315  11.382  19.499  0.00  0.00    +0.000 C 
ATOM     10  N   UNL     1      -0.082  11.487  20.939  0.00  0.00    +0.000 N 
ATOM     11  C   UNL     1       0.389  10.350  21.606  0.00  0.00    +0.000 C 
ATOM     12  O   UNL     1       0.439  10.276  22.832  0.00  0.00    +0.000 OA
ENDROOT
BRANCH   1  16
ATOM     13  C   UNL     1       5.207   4.238  16.270  0.00  0.00    +0.000 C 
ATOM     14  C   UNL     1       4.140   4.839  17.104  0.00  0.00    +0.000 A 
ATOM     15  C   UNL     1       4.096   6.020  17.828  0.00  0.00    +0.000 A 
ATOM     16  N   UNL     1       2.818   6.120  18.377  0.00  0.00    +0.000 N 
ATOM     17  C   UNL     1       2.195   4.952  17.964  0.00  0.00    +0.000 A 
ATOM     18  N   UNL     1       2.954   4.184  17.218  0.00  0.00    +0.000 NA
ENDBRANCH   1  16
BRANCH  10  19
ATOM     19  C   UNL     1       0.130  12.846  21.504  0.00  0.00    +0.000 C 
BRANCH  19  20
ATOM     20  C   UNL     1      -0.816  13.501  22.579  0.00  0.00    +0.000 C 
ATOM     21  C   UNL     1      -2.188  13.968  22.081  0.00  0.00    +0.000 C 
ATOM     22  C   UNL     1      -2.198  15.497  22.219  0.00  0.00    +0.000 C 
ATOM     23  C   UNL     1      -3.104  16.211  21.225  0.00  0.00    +0.000 C 
ATOM     24  C   UNL     1      -0.721  15.882  22.344  0.00  0.00    +0.000 C 
ATOM     25  O   UNL     1      -0.201  14.731  23.089  0.00  0.00    +0.000 OA
BRANCH  24  26
ATOM     26  C   UNL     1       0.214  16.051  21.160  0.00  0.00    +0.000 A 
ATOM     27  C   UNL     1      -0.186  15.995  19.825  0.00  0.00    +0.000 A 
ATOM     28  C   UNL     1       0.743  15.730  18.822  0.00  0.00    +0.000 A 
ATOM     29  C   UNL     1       2.102  15.590  19.121  0.00  0.00    +0.000 A 
ATOM     30  C   UNL     1       2.531  15.853  20.428  0.00  0.00    +0.000 A 
ATOM     31  C   UNL     1       1.596  16.113  21.427  0.00  0.00    +0.000 A 
BRANCH  29  32
ATOM     32  C   UNL     1       3.066  15.097  18.078  0.00  0.00    +0.000 C 
ATOM     33  F   UNL     1       3.204  15.956  17.028  0.00  0.00    +0.000 F 
ATOM     34  F   UNL     1       4.318  14.887  18.562  0.00  0.00    +0.000 F 
ATOM     35  F   UNL     1       2.662  13.915  17.531  0.00  0.00    +0.000 F 
ENDBRANCH  29  32
ENDBRANCH  24  26
ENDBRANCH  19  20
ENDBRANCH  10  19
TORSDOF 5
ENDMDL
