MODEL 1
REMARK VINA RESULT:      -6.4      0.000      0.000
REMARK  Name = 
REMARK  4 active torsions:
REMARK  status: ('A' for Active; 'I' for Inactive)
REMARK    1  A    between atoms: N_7  and  C_8
REMARK    2  A    between atoms: C_8  and  C_9
REMARK    3  A    between atoms: C_9  and  C_10
REMARK    4  A    between atoms: C_10  and  O_11
REMARK                            x       y       z     vdW  Elec       q    Type
REMARK                         _______ _______ _______ _____ _____    ______ ____
ROOT
ATOM      1  O   UNL     1       5.655   4.379  19.882  0.00  0.00    +0.000 OA
ATOM      2  C   UNL     1       5.124   4.208  18.790  0.00  0.00    +0.000 A 
ATOM      3  C   UNL     1       3.774   3.834  18.635  0.00  0.00    +0.000 A 
ATOM      4  C   UNL     1       3.157   3.631  17.428  0.00  0.00    +0.000 A 
ATOM      5  N   UNL     1       3.850   3.790  16.227  0.00  0.00    +0.000 NA
ATOM      6  C   UNL     1       5.094   4.143  16.380  0.00  0.00    +0.000 A 
ATOM      7  N   UNL     1       5.775   4.369  17.571  0.00  0.00    +0.000 N 
ATOM      8  N   UNL     1       1.829   3.260  17.579  0.00  0.00    +0.000 NA
ATOM      9  C   UNL     1       1.667   3.268  18.888  0.00  0.00    +0.000 A 
ATOM     10  N   UNL     1       2.814   3.605  19.538  0.00  0.00    +0.000 N 
ATOM     11  C   UNL     1       2.692   3.625  20.975  0.00  0.00    +0.000 C 
ATOM     12  C   UNL     1       1.368   2.869  21.183  0.00  0.00    +0.000 C 
ATOM     13  C   UNL     1       0.578   3.010  19.852  0.00  0.00    +0.000 C 
ENDROOT
BRANCH   7  14
ATOM     14  C   UNL     1       7.194   4.723  17.638  0.00  0.00    +0.000 C 
BRANCH  14  15
ATOM     15  C   UNL     1       7.512   6.223  17.624  0.00  0.00    +0.000 C 
BRANCH  15  16
ATOM     16  C   UNL     1       8.160   6.697  18.919  0.00  0.00    +0.000 C 
BRANCH  16  17
ATOM     17  O   UNL     1       8.256   5.614  19.833  0.00  0.00    +0.000 OA
ATOM     18  H   UNL     1       7.610   5.765  20.544  0.00  0.00    +0.000 HD
ENDBRANCH  16  17
ENDBRANCH  15  16
ENDBRANCH  14  15
ENDBRANCH   7  14
TORSDOF 4
ENDMDL
MODEL 2
REMARK VINA RESULT:      -6.4      1.796      5.330
REMARK  Name = 
REMARK  4 active torsions:
REMARK  status: ('A' for Active; 'I' for Inactive)
REMARK    1  A    between atoms: N_7  and  C_8
REMARK    2  A    between atoms: C_8  and  C_9
REMARK    3  A    between atoms: C_9  and  C_10
REMARK    4  A    between atoms: C_10  and  O_11
REMARK                            x       y       z     vdW  Elec       q    Type
REMARK                         _______ _______ _______ _____ _____    ______ ____
ROOT
ATOM      1  O   UNL     1       5.267   3.169  19.629  0.00  0.00    +0.000 OA
ATOM      2  C   UNL     1       4.498   3.904  19.018  0.00  0.00    +0.000 A 
ATOM      3  C   UNL     1       4.902   5.104  18.400  0.00  0.00    +0.000 A 
ATOM      4  C   UNL     1       4.063   5.946  17.717  0.00  0.00    +0.000 A 
ATOM      5  N   UNL     1       2.704   5.658  17.579  0.00  0.00    +0.000 NA
ATOM      6  C   UNL     1       2.344   4.544  18.148  0.00  0.00    +0.000 A 
ATOM      7  N   UNL     1       3.142   3.647  18.849  0.00  0.00    +0.000 N 
ATOM      8  N   UNL     1       4.732   7.057  17.223  0.00  0.00    +0.000 NA
ATOM      9  C   UNL     1       5.976   6.847  17.607  0.00  0.00    +0.000 A 
ATOM     10  N   UNL     1       6.100   5.690  18.312  0.00  0.00    +0.000 N 
ATOM     11  C   UNL     1       7.444   5.415  18.759  0.00  0.00    +0.000 C 
ATOM     12  C   UNL     1       8.123   6.781  18.559  0.00  0.00    +0.000 C 
ATOM     13  C   UNL     1       7.283   7.525  17.483  0.00  0.00    +0.000 C 
ENDROOT
BRANCH   7  14
ATOM     14  C   UNL     1       2.628   2.436  19.490  0.00  0.00    +0.000 C 
BRANCH  14  15
ATOM     15  C   UNL     1       1.268   2.570  20.185  0.00  0.00    +0.000 C 
BRANCH  15  16
ATOM     16  C   UNL     1       1.392   2.723  21.695  0.00  0.00    +0.000 C 
BRANCH  16  17
ATOM     17  O   UNL     1       2.739   2.510  22.090  0.00  0.00    +0.000 OA
ATOM     18  H   UNL     1       3.053   1.699  21.655  0.00  0.00    +0.000 HD
ENDBRANCH  16  17
ENDBRANCH  15  16
ENDBRANCH  14  15
ENDBRANCH   7  14
TORSDOF 4
ENDMDL
MODEL 3
REMARK VINA RESULT:      -6.4      1.096      1.152
REMARK  Name = 
REMARK  4 active torsions:
REMARK  status: ('A' for Active; 'I' for Inactive)
REMARK    1  A    between atoms: N_7  and  C_8
REMARK    2  A    between atoms: C_8  and  C_9
REMARK    3  A    between atoms: C_9  and  C_10
REMARK    4  A    between atoms: C_10  and  O_11
REMARK                            x       y       z     vdW  Elec       q    Type
REMARK                         _______ _______ _______ _____ _____    ______ ____
ROOT
ATOM      1  O   UNL     1       5.760   4.433  19.963  0.00  0.00    +0.000 OA
ATOM      2  C   UNL     1       5.402   4.302  18.798  0.00  0.00    +0.000 A 
ATOM      3  C   UNL     1       4.112   3.874  18.428  0.00  0.00    +0.000 A 
ATOM      4  C   UNL     1       3.688   3.713  17.134  0.00  0.00    +0.000 A 
ATOM      5  N   UNL     1       4.536   3.977  16.057  0.00  0.00    +0.000 NA
ATOM      6  C   UNL     1       5.723   4.379  16.410  0.00  0.00    +0.000 A 
ATOM      7  N   UNL     1       6.212   4.566  17.698  0.00  0.00    +0.000 N 
ATOM      8  N   UNL     1       2.374   3.272  17.069  0.00  0.00    +0.000 NA
ATOM      9  C   UNL     1       2.026   3.194  18.338  0.00  0.00    +0.000 A 
ATOM     10  N   UNL     1       3.046   3.546  19.166  0.00  0.00    +0.000 N 
ATOM     11  C   UNL     1       2.718   3.475  20.570  0.00  0.00    +0.000 C 
ATOM     12  C   UNL     1       1.422   2.646  20.542  0.00  0.00    +0.000 C 
ATOM     13  C   UNL     1       0.825   2.828  19.118  0.00  0.00    +0.000 C 
ENDROOT
BRANCH   7  14
ATOM     14  C   UNL     1       7.584   4.983  17.991  0.00  0.00    +0.000 C 
BRANCH  14  15
ATOM     15  C   UNL     1       7.755   6.419  18.499  0.00  0.00    +0.000 C 
BRANCH  15  16
ATOM     16  C   UNL     1       7.471   7.460  17.424  0.00  0.00    +0.000 C 
BRANCH  16  17
ATOM     17  O   UNL     1       8.055   8.701  17.791  0.00  0.00    +0.000 OA
ATOM     18  H   UNL     1       7.367   9.385  17.731  0.00  0.00    +0.000 HD
ENDBRANCH  16  17
ENDBRANCH  15  16
ENDBRANCH  14  15
ENDBRANCH   7  14
TORSDOF 4
ENDMDL
MODEL 4
REMARK VINA RESULT:      -6.1      2.397      5.880
REMARK  Name = 
REMARK  4 active torsions:
REMARK  status: ('A' for Active; 'I' for Inactive)
REMARK    1  A    between atoms: N_7  and  C_8
REMARK    2  A    between atoms: C_8  and  C_9
REMARK    3  A    between atoms: C_9  and  C_10
REMARK    4  A    between atoms: C_10  and  O_11
REMARK                            x       y       z     vdW  Elec       q    Type
REMARK                         _______ _______ _______ _____ _____    ______ ____
ROOT
ATOM      1  O   UNL     1       3.046   3.538  16.710  0.00  0.00    +0.000 OA
ATOM      2  C   UNL     1       4.018   3.864  17.382  0.00  0.00    +0.000 A 
ATOM      3  C   UNL     1       5.262   4.219  16.823  0.00  0.00    +0.000 A 
ATOM      4  C   UNL     1       6.366   4.581  17.550  0.00  0.00    +0.000 A 
ATOM      5  N   UNL     1       6.329   4.628  18.945  0.00  0.00    +0.000 NA
ATOM      6  C   UNL     1       5.174   4.305  19.451  0.00  0.00    +0.000 A 
ATOM      7  N   UNL     1       4.018   3.935  18.771  0.00  0.00    +0.000 N 
ATOM      8  N   UNL     1       7.453   4.868  16.738  0.00  0.00    +0.000 NA
ATOM      9  C   UNL     1       6.969   4.689  15.524  0.00  0.00    +0.000 A 
ATOM     10  N   UNL     1       5.665   4.300  15.551  0.00  0.00    +0.000 N 
ATOM     11  C   UNL     1       5.087   4.088  14.246  0.00  0.00    +0.000 C 
ATOM     12  C   UNL     1       6.343   4.031  13.357  0.00  0.00    +0.000 C 
ATOM     13  C   UNL     1       7.453   4.796  14.132  0.00  0.00    +0.000 C 
ENDROOT
BRANCH   7  14
ATOM     14  C   UNL     1       2.775   3.547  19.438  0.00  0.00    +0.000 C 
BRANCH  14  15
ATOM     15  C   UNL     1       2.928   2.894  20.817  0.00  0.00    +0.000 C 
BRANCH  15  16
ATOM     16  C   UNL     1       1.596   2.709  21.531  0.00  0.00    +0.000 C 
BRANCH  16  17
ATOM     17  O   UNL     1       0.533   3.089  20.669  0.00  0.00    +0.000 OA
ATOM     18  H   UNL     1      -0.298   2.770  21.061  0.00  0.00    +0.000 HD
ENDBRANCH  16  17
ENDBRANCH  15  16
ENDBRANCH  14  15
ENDBRANCH   7  14
TORSDOF 4
ENDMDL
MODEL 5
REMARK VINA RESULT:      -6.1      1.363      1.466
REMARK  Name = 
REMARK  4 active torsions:
REMARK  status: ('A' for Active; 'I' for Inactive)
REMARK    1  A    between atoms: N_7  and  C_8
REMARK    2  A    between atoms: C_8  and  C_9
REMARK    3  A    between atoms: C_9  and  C_10
REMARK    4  A    between atoms: C_10  and  O_11
REMARK                            x       y       z     vdW  Elec       q    Type
REMARK                         _______ _______ _______ _____ _____    ______ ____
ROOT
ATOM      1  O   UNL     1       3.895   6.587  19.070  0.00  0.00    +0.000 OA
ATOM      2  C   UNL     1       4.061   5.749  18.191  0.00  0.00    +0.000 A 
ATOM      3  C   UNL     1       3.281   4.581  18.078  0.00  0.00    +0.000 A 
ATOM      4  C   UNL     1       3.449   3.626  17.109  0.00  0.00    +0.000 A 
ATOM      5  N   UNL     1       4.436   3.754  16.131  0.00  0.00    +0.000 NA
ATOM      6  C   UNL     1       5.145   4.840  16.239  0.00  0.00    +0.000 A 
ATOM      7  N   UNL     1       5.024   5.846  17.192  0.00  0.00    +0.000 N 
ATOM      8  N   UNL     1       2.548   2.581  17.248  0.00  0.00    +0.000 NA
ATOM      9  C   UNL     1       1.837   2.942  18.298  0.00  0.00    +0.000 A 
ATOM     10  N   UNL     1       2.258   4.130  18.810  0.00  0.00    +0.000 N 
ATOM     11  C   UNL     1       1.513   4.571  19.965  0.00  0.00    +0.000 C 
ATOM     12  C   UNL     1       0.772   3.283  20.365  0.00  0.00    +0.000 C 
ATOM     13  C   UNL     1       0.700   2.412  19.079  0.00  0.00    +0.000 C 
ENDROOT
BRANCH   7  14
ATOM     14  C   UNL     1       5.904   7.014  17.253  0.00  0.00    +0.000 C 
BRANCH  14  15
ATOM     15  C   UNL     1       7.392   6.722  17.482  0.00  0.00    +0.000 C 
BRANCH  15  16
ATOM     16  C   UNL     1       7.652   5.994  18.795  0.00  0.00    +0.000 C 
BRANCH  16  17
ATOM     17  O   UNL     1       7.963   4.634  18.536  0.00  0.00    +0.000 OA
ATOM     18  H   UNL     1       7.887   4.145  19.373  0.00  0.00    +0.000 HD
ENDBRANCH  16  17
ENDBRANCH  15  16
ENDBRANCH  14  15
ENDBRANCH   7  14
TORSDOF 4
ENDMDL
MODEL 6
REMARK VINA RESULT:      -6.0      2.903      3.642
REMARK  Name = 
REMARK  4 active torsions:
REMARK  status: ('A' for Active; 'I' for Inactive)
REMARK    1  A    between atoms: N_7  and  C_8
REMARK    2  A    between atoms: C_8  and  C_9
REMARK    3  A    between atoms: C_9  and  C_10
REMARK    4  A    between atoms: C_10  and  O_11
REMARK                            x       y       z     vdW  Elec       q    Type
REMARK                         _______ _______ _______ _____ _____    ______ ____
ROOT
ATOM      1  O   UNL     1       4.442   2.807  17.039  0.00  0.00    +0.000 OA
ATOM      2  C   UNL     1       4.459   4.032  17.084  0.00  0.00    +0.000 A 
ATOM      3  C   UNL     1       3.694   4.783  17.999  0.00  0.00    +0.000 A 
ATOM      4  C   UNL     1       3.690   6.152  18.067  0.00  0.00    +0.000 A 
ATOM      5  N   UNL     1       4.476   6.921  17.208  0.00  0.00    +0.000 NA
ATOM      6  C   UNL     1       5.184   6.218  16.373  0.00  0.00    +0.000 A 
ATOM      7  N   UNL     1       5.237   4.833  16.255  0.00  0.00    +0.000 N 
ATOM      8  N   UNL     1       2.835   6.620  19.054  0.00  0.00    +0.000 NA
ATOM      9  C   UNL     1       2.352   5.510  19.578  0.00  0.00    +0.000 A 
ATOM     10  N   UNL     1       2.849   4.403  18.962  0.00  0.00    +0.000 N 
ATOM     11  C   UNL     1       2.349   3.158  19.495  0.00  0.00    +0.000 C 
ATOM     12  C   UNL     1       1.141   3.638  20.319  0.00  0.00    +0.000 C 
ATOM     13  C   UNL     1       1.415   5.131  20.655  0.00  0.00    +0.000 C 
ENDROOT
BRANCH   7  14
ATOM     14  C   UNL     1       6.039   4.136  15.249  0.00  0.00    +0.000 C 
BRANCH  14  15
ATOM     15  C   UNL     1       5.447   4.088  13.835  0.00  0.00    +0.000 C 
BRANCH  15  16
ATOM     16  C   UNL     1       6.475   3.696  12.781  0.00  0.00    +0.000 C 
BRANCH  16  17
ATOM     17  O   UNL     1       6.119   2.448  12.205  0.00  0.00    +0.000 OA
ATOM     18  H   UNL     1       6.501   1.744  12.756  0.00  0.00    +0.000 HD
ENDBRANCH  16  17
ENDBRANCH  15  16
ENDBRANCH  14  15
ENDBRANCH   7  14
TORSDOF 4
ENDMDL
MODEL 7
REMARK VINA RESULT:      -6.0      2.782      5.998
REMARK  Name = 
REMARK  4 active torsions:
REMARK  status: ('A' for Active; 'I' for Inactive)
REMARK    1  A    between atoms: N_7  and  C_8
REMARK    2  A    between atoms: C_8  and  C_9
REMARK    3  A    between atoms: C_9  and  C_10
REMARK    4  A    between atoms: C_10  and  O_11
REMARK                            x       y       z     vdW  Elec       q    Type
REMARK                         _______ _______ _______ _____ _____    ______ ____
ROOT
ATOM      1  O   UNL     1       3.921   3.570  16.425  0.00  0.00    +0.000 OA
ATOM      2  C   UNL     1       4.949   4.205  16.636  0.00  0.00    +0.000 A 
ATOM      3  C   UNL     1       5.891   4.506  15.633  0.00  0.00    +0.000 A 
ATOM      4  C   UNL     1       7.050   5.208  15.842  0.00  0.00    +0.000 A 
ATOM      5  N   UNL     1       7.383   5.694  17.108  0.00  0.00    +0.000 NA
ATOM      6  C   UNL     1       6.501   5.417  18.025  0.00  0.00    +0.000 A 
ATOM      7  N   UNL     1       5.309   4.716  17.879  0.00  0.00    +0.000 N 
ATOM      8  N   UNL     1       7.792   5.346  14.678  0.00  0.00    +0.000 NA
ATOM      9  C   UNL     1       7.046   4.733  13.779  0.00  0.00    +0.000 A 
ATOM     10  N   UNL     1       5.909   4.223  14.327  0.00  0.00    +0.000 N 
ATOM     11  C   UNL     1       5.058   3.538  13.385  0.00  0.00    +0.000 C 
ATOM     12  C   UNL     1       6.009   3.348  12.190  0.00  0.00    +0.000 C 
ATOM     13  C   UNL     1       7.102   4.445  12.331  0.00  0.00    +0.000 C 
ENDROOT
BRANCH   7  14
ATOM     14  C   UNL     1       4.402   4.419  18.988  0.00  0.00    +0.000 C 
BRANCH  14  15
ATOM     15  C   UNL     1       4.492   3.003  19.568  0.00  0.00    +0.000 C 
BRANCH  15  16
ATOM     16  C   UNL     1       3.167   2.255  19.500  0.00  0.00    +0.000 C 
BRANCH  16  17
ATOM     17  O   UNL     1       3.189   1.336  18.418  0.00  0.00    +0.000 OA
ATOM     18  H   UNL     1       2.498   1.599  17.788  0.00  0.00    +0.000 HD
ENDBRANCH  16  17
ENDBRANCH  15  16
ENDBRANCH  14  15
ENDBRANCH   7  14
TORSDOF 4
ENDMDL
MODEL 8
REMARK VINA RESULT:      -6.0      2.410      5.666
REMARK  Name = 
REMARK  4 active torsions:
REMARK  status: ('A' for Active; 'I' for Inactive)
REMARK    1  A    between atoms: N_7  and  C_8
REMARK    2  A    between atoms: C_8  and  C_9
REMARK    3  A    between atoms: C_9  and  C_10
REMARK    4  A    between atoms: C_10  and  O_11
REMARK                            x       y       z     vdW  Elec       q    Type
REMARK                         _______ _______ _______ _____ _____    ______ ____
ROOT
ATOM      1  O   UNL     1       2.432   3.395  16.763  0.00  0.00    +0.000 OA
ATOM      2  C   UNL     1       3.099   4.033  17.569  0.00  0.00    +0.000 A 
ATOM      3  C   UNL     1       4.379   4.547  17.281  0.00  0.00    +0.000 A 
ATOM      4  C   UNL     1       5.149   5.258  18.165  0.00  0.00    +0.000 A 
ATOM      5  N   UNL     1       4.697   5.535  19.456  0.00  0.00    +0.000 NA
ATOM      6  C   UNL     1       3.510   5.063  19.710  0.00  0.00    +0.000 A 
ATOM      7  N   UNL     1       2.680   4.341  18.860  0.00  0.00    +0.000 N 
ATOM      8  N   UNL     1       6.366   5.628  17.613  0.00  0.00    +0.000 NA
ATOM      9  C   UNL     1       6.295   5.143  16.388  0.00  0.00    +0.000 A 
ATOM     10  N   UNL     1       5.120   4.492  16.169  0.00  0.00    +0.000 N 
ATOM     11  C   UNL     1       4.993   3.939  14.843  0.00  0.00    +0.000 C 
ATOM     12  C   UNL     1       6.446   4.002  14.340  0.00  0.00    +0.000 C 
ATOM     13  C   UNL     1       7.143   5.109  15.179  0.00  0.00    +0.000 C 
ENDROOT
BRANCH   7  14
ATOM     14  C   UNL     1       1.373   3.815  19.257  0.00  0.00    +0.000 C 
BRANCH  14  15
ATOM     15  C   UNL     1       1.391   2.508  20.058  0.00  0.00    +0.000 C 
BRANCH  15  16
ATOM     16  C   UNL     1       1.404   2.741  21.563  0.00  0.00    +0.000 C 
BRANCH  16  17
ATOM     17  O   UNL     1       2.707   2.504  22.075  0.00  0.00    +0.000 OA
ATOM     18  H   UNL     1       2.786   2.975  22.922  0.00  0.00    +0.000 HD
ENDBRANCH  16  17
ENDBRANCH  15  16
ENDBRANCH  14  15
ENDBRANCH   7  14
TORSDOF 4
ENDMDL
MODEL 9
REMARK VINA RESULT:      -5.9      2.197      5.506
REMARK  Name = 
REMARK  4 active torsions:
REMARK  status: ('A' for Active; 'I' for Inactive)
REMARK    1  A    between atoms: N_7  and  C_8
REMARK    2  A    between atoms: C_8  and  C_9
REMARK    3  A    between atoms: C_9  and  C_10
REMARK    4  A    between atoms: C_10  and  O_11
REMARK                            x       y       z     vdW  Elec       q    Type
REMARK                         _______ _______ _______ _____ _____    ______ ____
ROOT
ATOM      1  O   UNL     1       4.243   2.653  18.806  0.00  0.00    +0.000 OA
ATOM      2  C   UNL     1       3.887   3.826  18.851  0.00  0.00    +0.000 A 
ATOM      3  C   UNL     1       4.276   4.789  17.901  0.00  0.00    +0.000 A 
ATOM      4  C   UNL     1       3.899   6.107  17.931  0.00  0.00    +0.000 A 
ATOM      5  N   UNL     1       3.070   6.598  18.941  0.00  0.00    +0.000 NA
ATOM      6  C   UNL     1       2.710   5.698  19.809  0.00  0.00    +0.000 A 
ATOM      7  N   UNL     1       3.053   4.350  19.833  0.00  0.00    +0.000 N 
ATOM      8  N   UNL     1       4.440   6.827  16.875  0.00  0.00    +0.000 NA
ATOM      9  C   UNL     1       5.122   5.913  16.214  0.00  0.00    +0.000 A 
ATOM     10  N   UNL     1       5.041   4.692  16.808  0.00  0.00    +0.000 N 
ATOM     11  C   UNL     1       5.775   3.654  16.124  0.00  0.00    +0.000 C 
ATOM     12  C   UNL     1       6.673   4.479  15.185  0.00  0.00    +0.000 C 
ATOM     13  C   UNL     1       5.958   5.846  14.997  0.00  0.00    +0.000 C 
ENDROOT
BRANCH   7  14
ATOM     14  C   UNL     1       2.628   3.425  20.883  0.00  0.00    +0.000 C 
BRANCH  14  15
ATOM     15  C   UNL     1       1.169   2.959  20.818  0.00  0.00    +0.000 C 
BRANCH  15  16
ATOM     16  C   UNL     1       0.729   2.603  19.403  0.00  0.00    +0.000 C 
BRANCH  16  17
ATOM     17  O   UNL     1       1.451   1.469  18.947  0.00  0.00    +0.000 OA
ATOM     18  H   UNL     1       2.199   1.786  18.413  0.00  0.00    +0.000 HD
ENDBRANCH  16  17
ENDBRANCH  15  16
ENDBRANCH  14  15
ENDBRANCH   7  14
TORSDOF 4
ENDMDL
