MODEL 1
REMARK VINA RESULT:      -8.4      0.000      0.000
REMARK  Name = 
REMARK  11 active torsions:
REMARK  status: ('A' for Active; 'I' for Inactive)
REMARK    1  A    between atoms: C_2  and  C_3
REMARK    2  A    between atoms: C_4  and  C_5
REMARK    3  A    between atoms: N_11  and  C_12
REMARK    4  A    between atoms: C_12  and  C_13
REMARK    5  A    between atoms: C_13  and  C_14
REMARK    6  A    between atoms: C_14  and  C_15
REMARK    7  A    between atoms: C_15  and  N_16
REMARK    8  A    between atoms: C_19  and  C_20
REMARK    9  A    between atoms: C_20  and  O_21
REMARK   10  A    between atoms: C_20  and  C_22
REMARK   11  A    between atoms: C_20  and  C_28
REMARK                            x       y       z     vdW  Elec       q    Type
REMARK                         _______ _______ _______ _____ _____    ______ ____
ROOT
ATOM      1  N   UNL     1       5.050   5.049  16.724  0.00  0.00    +0.000 NA
ATOM      2  C   UNL     1       4.426   6.385  16.712  0.00  0.00    +0.000 C 
ATOM      3  C   UNL     1       4.606   7.101  18.038  0.00  0.00    +0.000 C 
ATOM      4  C   UNL     1       3.968   6.332  19.193  0.00  0.00    +0.000 C 
ATOM      5  C   UNL     1       4.686   4.953  19.202  0.00  0.00    +0.000 C 
ATOM      6  C   UNL     1       4.638   4.220  17.860  0.00  0.00    +0.000 C 
ENDROOT
BRANCH   1   7
ATOM      7  C   UNL     1       4.780   4.333  15.465  0.00  0.00    +0.000 C 
BRANCH   7   8
ATOM      8  C   UNL     1       6.063   3.909  14.735  0.00  0.00    +0.000 C 
BRANCH   8   9
ATOM      9  C   UNL     1       7.125   5.011  14.722  0.00  0.00    +0.000 C 
BRANCH   9  10
ATOM     10  C   UNL     1       7.660   5.222  16.144  0.00  0.00    +0.000 C 
BRANCH  10  13
ATOM     11  O   UNL     1       7.905   6.271  18.752  0.00  0.00    +0.000 OA
ATOM     12  C   UNL     1       7.927   7.012  17.795  0.00  0.00    +0.000 C 
ATOM     13  N   UNL     1       7.814   6.606  16.497  0.00  0.00    +0.000 N 
ATOM     14  H   UNL     1       7.824   7.288  15.749  0.00  0.00    +0.000 HD
BRANCH  12  15
ATOM     15  C   UNL     1       8.077   8.489  17.943  0.00  0.00    +0.000 C 
ATOM     16  C   UNL     1       8.918   8.988  18.865  0.00  0.00    +0.000 C 
BRANCH  16  17
ATOM     17  C   UNL     1       9.153  10.427  19.012  0.00  0.00    +0.000 A 
ATOM     18  C   UNL     1       9.243  11.060  20.257  0.00  0.00    +0.000 A 
ATOM     19  C   UNL     1       9.441  12.435  20.330  0.00  0.00    +0.000 A 
ATOM     20  C   UNL     1       9.564  13.145  19.145  0.00  0.00    +0.000 A 
ATOM     21  N   UNL     1       9.509  12.574  17.924  0.00  0.00    +0.000 NA
ATOM     22  C   UNL     1       9.312  11.232  17.885  0.00  0.00    +0.000 A 
ENDBRANCH  16  17
ENDBRANCH  12  15
ENDBRANCH  10  13
ENDBRANCH   9  10
ENDBRANCH   8   9
ENDBRANCH   7   8
ENDBRANCH   1   7
BRANCH   4  23
ATOM     23  C   UNL     1       2.377   6.256  19.212  0.00  0.00    +0.000 C 
BRANCH  23  24
ATOM     24  C   UNL     1       1.950   4.962  19.967  0.00  0.00    +0.000 A 
ATOM     25  C   UNL     1       2.391   4.663  21.273  0.00  0.00    +0.000 A 
ATOM     26  C   UNL     1       2.178   3.410  21.852  0.00  0.00    +0.000 A 
ATOM     27  C   UNL     1       1.498   2.428  21.149  0.00  0.00    +0.000 A 
ATOM     28  C   UNL     1       0.989   2.714  19.886  0.00  0.00    +0.000 A 
ATOM     29  C   UNL     1       1.192   3.970  19.308  0.00  0.00    +0.000 A 
ENDBRANCH  23  24
BRANCH  23  30
ATOM     30  C   UNL     1       1.688   7.524  19.777  0.00  0.00    +0.000 A 
ATOM     31  C   UNL     1       1.203   7.585  21.108  0.00  0.00    +0.000 A 
ATOM     32  C   UNL     1       0.620   8.746  21.633  0.00  0.00    +0.000 A 
ATOM     33  C   UNL     1       0.513   9.885  20.845  0.00  0.00    +0.000 A 
ATOM     34  C   UNL     1       0.951   9.843  19.526  0.00  0.00    +0.000 A 
ATOM     35  C   UNL     1       1.505   8.670  18.990  0.00  0.00    +0.000 A 
ENDBRANCH  23  30
BRANCH  23  36
ATOM     36  O   UNL     1       1.909   6.171  17.854  0.00  0.00    +0.000 OA
ATOM     37  H   UNL     1       2.280   5.372  17.448  0.00  0.00    +0.000 HD
ENDBRANCH  23  36
ENDBRANCH   4  23
TORSDOF 11
ENDMDL
MODEL 2
REMARK VINA RESULT:      -8.2      2.069      4.541
REMARK  Name = 
REMARK  11 active torsions:
REMARK  status: ('A' for Active; 'I' for Inactive)
REMARK    1  A    between atoms: C_2  and  C_3
REMARK    2  A    between atoms: C_4  and  C_5
REMARK    3  A    between atoms: N_11  and  C_12
REMARK    4  A    between atoms: C_12  and  C_13
REMARK    5  A    between atoms: C_13  and  C_14
REMARK    6  A    between atoms: C_14  and  C_15
REMARK    7  A    between atoms: C_15  and  N_16
REMARK    8  A    between atoms: C_19  and  C_20
REMARK    9  A    between atoms: C_20  and  O_21
REMARK   10  A    between atoms: C_20  and  C_22
REMARK   11  A    between atoms: C_20  and  C_28
REMARK                            x       y       z     vdW  Elec       q    Type
REMARK                         _______ _______ _______ _____ _____    ______ ____
ROOT
ATOM      1  N   UNL     1       6.038   5.645  16.839  0.00  0.00    +0.000 NA
ATOM      2  C   UNL     1       5.344   4.508  17.472  0.00  0.00    +0.000 C 
ATOM      3  C   UNL     1       3.858   4.514  17.161  0.00  0.00    +0.000 C 
ATOM      4  C   UNL     1       3.174   5.782  17.670  0.00  0.00    +0.000 C 
ATOM      5  C   UNL     1       3.901   6.949  16.944  0.00  0.00    +0.000 C 
ATOM      6  C   UNL     1       5.419   6.942  17.125  0.00  0.00    +0.000 C 
ENDROOT
BRANCH   1   7
ATOM      7  C   UNL     1       7.458   5.677  17.232  0.00  0.00    +0.000 C 
BRANCH   7   8
ATOM      8  C   UNL     1       7.743   6.692  18.348  0.00  0.00    +0.000 C 
BRANCH   8   9
ATOM      9  C   UNL     1       7.972   8.107  17.813  0.00  0.00    +0.000 C 
BRANCH   9  10
ATOM     10  C   UNL     1       8.676   8.951  18.884  0.00  0.00    +0.000 C 
BRANCH  10  13
ATOM     11  O   UNL     1       9.721  11.083  20.408  0.00  0.00    +0.000 OA
ATOM     12  C   UNL     1       9.713  11.148  19.199  0.00  0.00    +0.000 C 
ATOM     13  N   UNL     1       9.229  10.175  18.374  0.00  0.00    +0.000 N 
ATOM     14  H   UNL     1       9.241  10.308  17.370  0.00  0.00    +0.000 HD
BRANCH  12  15
ATOM     15  C   UNL     1      10.241  12.336  18.468  0.00  0.00    +0.000 C 
ATOM     16  C   UNL     1       9.905  13.574  18.871  0.00  0.00    +0.000 C 
BRANCH  16  17
ATOM     17  C   UNL     1      10.444  14.778  18.231  0.00  0.00    +0.000 A 
ATOM     18  C   UNL     1      11.788  14.904  17.860  0.00  0.00    +0.000 A 
ATOM     19  C   UNL     1      12.245  16.083  17.280  0.00  0.00    +0.000 A 
ATOM     20  C   UNL     1      11.335  17.107  17.067  0.00  0.00    +0.000 A 
ATOM     21  N   UNL     1      10.026  17.020  17.386  0.00  0.00    +0.000 NA
ATOM     22  C   UNL     1       9.612  15.859  17.954  0.00  0.00    +0.000 A 
ENDBRANCH  16  17
ENDBRANCH  12  15
ENDBRANCH  10  13
ENDBRANCH   9  10
ENDBRANCH   8   9
ENDBRANCH   7   8
ENDBRANCH   1   7
BRANCH   4  23
ATOM     23  C   UNL     1       3.057   5.948  19.250  0.00  0.00    +0.000 C 
BRANCH  23  24
ATOM     24  C   UNL     1       2.298   7.274  19.555  0.00  0.00    +0.000 A 
ATOM     25  C   UNL     1       1.675   7.525  20.796  0.00  0.00    +0.000 A 
ATOM     26  C   UNL     1       0.822   8.615  20.983  0.00  0.00    +0.000 A 
ATOM     27  C   UNL     1       0.587   9.497  19.941  0.00  0.00    +0.000 A 
ATOM     28  C   UNL     1       1.241   9.316  18.726  0.00  0.00    +0.000 A 
ATOM     29  C   UNL     1       2.102   8.232  18.539  0.00  0.00    +0.000 A 
ENDBRANCH  23  24
BRANCH  23  30
ATOM     30  C   UNL     1       2.430   4.728  19.972  0.00  0.00    +0.000 A 
ATOM     31  C   UNL     1       3.099   4.051  21.023  0.00  0.00    +0.000 A 
ATOM     32  C   UNL     1       2.512   2.977  21.705  0.00  0.00    +0.000 A 
ATOM     33  C   UNL     1       1.233   2.553  21.363  0.00  0.00    +0.000 A 
ATOM     34  C   UNL     1       0.567   3.179  20.315  0.00  0.00    +0.000 A 
ATOM     35  C   UNL     1       1.168   4.234  19.610  0.00  0.00    +0.000 A 
ENDBRANCH  23  30
BRANCH  23  36
ATOM     36  O   UNL     1       4.384   6.042  19.797  0.00  0.00    +0.000 OA
ATOM     37  H   UNL     1       4.367   6.656  20.548  0.00  0.00    +0.000 HD
ENDBRANCH  23  36
ENDBRANCH   4  23
TORSDOF 11
ENDMDL
MODEL 3
REMARK VINA RESULT:      -7.9      2.592      5.149
REMARK  Name = 
REMARK  11 active torsions:
REMARK  status: ('A' for Active; 'I' for Inactive)
REMARK    1  A    between atoms: C_2  and  C_3
REMARK    2  A    between atoms: C_4  and  C_5
REMARK    3  A    between atoms: N_11  and  C_12
REMARK    4  A    between atoms: C_12  and  C_13
REMARK    5  A    between atoms: C_13  and  C_14
REMARK    6  A    between atoms: C_14  and  C_15
REMARK    7  A    between atoms: C_15  and  N_16
REMARK    8  A    between atoms: C_19  and  C_20
REMARK    9  A    between atoms: C_20  and  O_21
REMARK   10  A    between atoms: C_20  and  C_22
REMARK   11  A    between atoms: C_20  and  C_28
REMARK                            x       y       z     vdW  Elec       q    Type
REMARK                         _______ _______ _______ _____ _____    ______ ____
ROOT
ATOM      1  N   UNL     1       6.704   6.582  17.301  0.00  0.00    +0.000 NA
ATOM      2  C   UNL     1       6.296   5.303  17.910  0.00  0.00    +0.000 C 
ATOM      3  C   UNL     1       5.046   4.744  17.257  0.00  0.00    +0.000 C 
ATOM      4  C   UNL     1       3.856   5.692  17.396  0.00  0.00    +0.000 C 
ATOM      5  C   UNL     1       4.309   7.007  16.701  0.00  0.00    +0.000 C 
ATOM      6  C   UNL     1       5.625   7.571  17.237  0.00  0.00    +0.000 C 
ENDROOT
BRANCH   1   7
ATOM      7  C   UNL     1       7.860   7.157  18.011  0.00  0.00    +0.000 C 
BRANCH   7   8
ATOM      8  C   UNL     1       8.000   8.670  17.794  0.00  0.00    +0.000 C 
BRANCH   8   9
ATOM      9  C   UNL     1       8.938   9.328  18.808  0.00  0.00    +0.000 C 
BRANCH   9  10
ATOM     10  C   UNL     1       9.257  10.759  18.357  0.00  0.00    +0.000 C 
BRANCH  10  13
ATOM     11  O   UNL     1      11.633  11.594  19.629  0.00  0.00    +0.000 OA
ATOM     12  C   UNL     1      10.565  12.032  19.991  0.00  0.00    +0.000 C 
ATOM     13  N   UNL     1       9.362  11.691  19.445  0.00  0.00    +0.000 N 
ATOM     14  H   UNL     1       8.506  12.087  19.814  0.00  0.00    +0.000 HD
BRANCH  12  15
ATOM     15  C   UNL     1      10.451  13.014  21.110  0.00  0.00    +0.000 C 
ATOM     16  C   UNL     1       9.241  13.336  21.597  0.00  0.00    +0.000 C 
BRANCH  16  17
ATOM     17  C   UNL     1       9.073  14.244  22.735  0.00  0.00    +0.000 A 
ATOM     18  C   UNL     1       8.405  13.877  23.909  0.00  0.00    +0.000 A 
ATOM     19  C   UNL     1       8.255  14.794  24.945  0.00  0.00    +0.000 A 
ATOM     20  C   UNL     1       8.799  16.059  24.786  0.00  0.00    +0.000 A 
ATOM     21  N   UNL     1       9.472  16.449  23.683  0.00  0.00    +0.000 NA
ATOM     22  C   UNL     1       9.598  15.534  22.689  0.00  0.00    +0.000 A 
ENDBRANCH  16  17
ENDBRANCH  12  15
ENDBRANCH  10  13
ENDBRANCH   9  10
ENDBRANCH   8   9
ENDBRANCH   7   8
ENDBRANCH   1   7
BRANCH   4  23
ATOM     23  C   UNL     1       3.260   5.883  18.861  0.00  0.00    +0.000 C 
BRANCH  23  24
ATOM     24  C   UNL     1       2.504   7.244  18.916  0.00  0.00    +0.000 A 
ATOM     25  C   UNL     1       2.007   7.790  20.119  0.00  0.00    +0.000 A 
ATOM     26  C   UNL     1       1.152   8.894  20.127  0.00  0.00    +0.000 A 
ATOM     27  C   UNL     1       0.789   9.498  18.933  0.00  0.00    +0.000 A 
ATOM     28  C   UNL     1       1.318   9.027  17.735  0.00  0.00    +0.000 A 
ATOM     29  C   UNL     1       2.181   7.928  17.725  0.00  0.00    +0.000 A 
ENDBRANCH  23  24
BRANCH  23  30
ATOM     30  C   UNL     1       2.383   4.701  19.348  0.00  0.00    +0.000 A 
ATOM     31  C   UNL     1       2.368   4.286  20.704  0.00  0.00    +0.000 A 
ATOM     32  C   UNL     1       1.542   3.247  21.153  0.00  0.00    +0.000 A 
ATOM     33  C   UNL     1       0.697   2.597  20.259  0.00  0.00    +0.000 A 
ATOM     34  C   UNL     1       0.716   2.964  18.918  0.00  0.00    +0.000 A 
ATOM     35  C   UNL     1       1.567   3.982  18.463  0.00  0.00    +0.000 A 
ENDBRANCH  23  30
BRANCH  23  36
ATOM     36  O   UNL     1       4.352   5.926  19.796  0.00  0.00    +0.000 OA
ATOM     37  H   UNL     1       5.056   5.340  19.478  0.00  0.00    +0.000 HD
ENDBRANCH  23  36
ENDBRANCH   4  23
TORSDOF 11
ENDMDL
MODEL 4
REMARK VINA RESULT:      -7.9      3.054      5.429
REMARK  Name = 
REMARK  11 active torsions:
REMARK  status: ('A' for Active; 'I' for Inactive)
REMARK    1  A    between atoms: C_2  and  C_3
REMARK    2  A    between atoms: C_4  and  C_5
REMARK    3  A    between atoms: N_11  and  C_12
REMARK    4  A    between atoms: C_12  and  C_13
REMARK    5  A    between atoms: C_13  and  C_14
REMARK    6  A    between atoms: C_14  and  C_15
REMARK    7  A    between atoms: C_15  and  N_16
REMARK    8  A    between atoms: C_19  and  C_20
REMARK    9  A    between atoms: C_20  and  O_21
REMARK   10  A    between atoms: C_20  and  C_22
REMARK   11  A    between atoms: C_20  and  C_28
REMARK                            x       y       z     vdW  Elec       q    Type
REMARK                         _______ _______ _______ _____ _____    ______ ____
ROOT
ATOM      1  N   UNL     1       6.681   6.573  17.488  0.00  0.00    +0.000 NA
ATOM      2  C   UNL     1       6.257   5.299  18.098  0.00  0.00    +0.000 C 
ATOM      3  C   UNL     1       5.034   4.724  17.406  0.00  0.00    +0.000 C 
ATOM      4  C   UNL     1       3.836   5.667  17.490  0.00  0.00    +0.000 C 
ATOM      5  C   UNL     1       4.306   6.976  16.794  0.00  0.00    +0.000 C 
ATOM      6  C   UNL     1       5.599   7.555  17.371  0.00  0.00    +0.000 C 
ENDROOT
BRANCH   1   7
ATOM      7  C   UNL     1       7.807   7.162  18.233  0.00  0.00    +0.000 C 
BRANCH   7   8
ATOM      8  C   UNL     1       8.435   8.362  17.509  0.00  0.00    +0.000 C 
BRANCH   8   9
ATOM      9  C   UNL     1       8.202   9.683  18.246  0.00  0.00    +0.000 C 
BRANCH   9  10
ATOM     10  C   UNL     1       9.367   9.944  19.209  0.00  0.00    +0.000 C 
BRANCH  10  13
ATOM     11  O   UNL     1      10.824  11.976  20.516  0.00  0.00    +0.000 OA
ATOM     12  C   UNL     1       9.755  11.617  20.956  0.00  0.00    +0.000 C 
ATOM     13  N   UNL     1       8.976  10.643  20.402  0.00  0.00    +0.000 N 
ATOM     14  H   UNL     1       8.100  10.385  20.838  0.00  0.00    +0.000 HD
BRANCH  12  15
ATOM     15  C   UNL     1       9.167  12.215  22.190  0.00  0.00    +0.000 C 
ATOM     16  C   UNL     1       8.220  11.548  22.872  0.00  0.00    +0.000 C 
BRANCH  16  17
ATOM     17  C   UNL     1       7.653  12.058  24.124  0.00  0.00    +0.000 A 
ATOM     18  C   UNL     1       8.315  12.986  24.935  0.00  0.00    +0.000 A 
ATOM     19  C   UNL     1       7.735  13.412  26.127  0.00  0.00    +0.000 A 
ATOM     20  C   UNL     1       6.490  12.908  26.469  0.00  0.00    +0.000 A 
ATOM     21  N   UNL     1       5.805  12.031  25.705  0.00  0.00    +0.000 NA
ATOM     22  C   UNL     1       6.397  11.632  24.552  0.00  0.00    +0.000 A 
ENDBRANCH  16  17
ENDBRANCH  12  15
ENDBRANCH  10  13
ENDBRANCH   9  10
ENDBRANCH   8   9
ENDBRANCH   7   8
ENDBRANCH   1   7
BRANCH   4  23
ATOM     23  C   UNL     1       3.184   5.873  18.929  0.00  0.00    +0.000 C 
BRANCH  23  24
ATOM     24  C   UNL     1       2.315   7.166  18.900  0.00  0.00    +0.000 A 
ATOM     25  C   UNL     1       2.032   7.866  17.708  0.00  0.00    +0.000 A 
ATOM     26  C   UNL     1       1.438   9.130  17.721  0.00  0.00    +0.000 A 
ATOM     27  C   UNL     1       1.090   9.719  18.926  0.00  0.00    +0.000 A 
ATOM     28  C   UNL     1       1.291   9.025  20.115  0.00  0.00    +0.000 A 
ATOM     29  C   UNL     1       1.876   7.756  20.104  0.00  0.00    +0.000 A 
ENDBRANCH  23  24
BRANCH  23  30
ATOM     30  C   UNL     1       2.398   4.645  19.451  0.00  0.00    +0.000 A 
ATOM     31  C   UNL     1       1.580   3.858  18.600  0.00  0.00    +0.000 A 
ATOM     32  C   UNL     1       0.904   2.721  19.063  0.00  0.00    +0.000 A 
ATOM     33  C   UNL     1       1.034   2.330  20.390  0.00  0.00    +0.000 A 
ATOM     34  C   UNL     1       1.804   3.101  21.254  0.00  0.00    +0.000 A 
ATOM     35  C   UNL     1       2.454   4.258  20.798  0.00  0.00    +0.000 A 
ENDBRANCH  23  30
BRANCH  23  36
ATOM     36  O   UNL     1       4.242   6.053  19.886  0.00  0.00    +0.000 OA
ATOM     37  H   UNL     1       5.091   5.903  19.443  0.00  0.00    +0.000 HD
ENDBRANCH  23  36
ENDBRANCH   4  23
TORSDOF 11
ENDMDL
MODEL 5
REMARK VINA RESULT:      -7.8      3.196     10.535
REMARK  Name = 
REMARK  11 active torsions:
REMARK  status: ('A' for Active; 'I' for Inactive)
REMARK    1  A    between atoms: C_2  and  C_3
REMARK    2  A    between atoms: C_4  and  C_5
REMARK    3  A    between atoms: N_11  and  C_12
REMARK    4  A    between atoms: C_12  and  C_13
REMARK    5  A    between atoms: C_13  and  C_14
REMARK    6  A    between atoms: C_14  and  C_15
REMARK    7  A    between atoms: C_15  and  N_16
REMARK    8  A    between atoms: C_19  and  C_20
REMARK    9  A    between atoms: C_20  and  O_21
REMARK   10  A    between atoms: C_20  and  C_22
REMARK   11  A    between atoms: C_20  and  C_28
REMARK                            x       y       z     vdW  Elec       q    Type
REMARK                         _______ _______ _______ _____ _____    ______ ____
ROOT
ATOM      1  N   UNL     1      10.063  11.072  18.676  0.00  0.00    +0.000 NA
ATOM      2  C   UNL     1       9.183  12.140  18.168  0.00  0.00    +0.000 C 
ATOM      3  C   UNL     1       9.957  13.413  17.874  0.00  0.00    +0.000 C 
ATOM      4  C   UNL     1      10.638  13.967  19.124  0.00  0.00    +0.000 C 
ATOM      5  C   UNL     1      11.589  12.833  19.598  0.00  0.00    +0.000 C 
ATOM      6  C   UNL     1      10.893  11.487  19.810  0.00  0.00    +0.000 C 
ENDROOT
BRANCH   1   7
ATOM      7  C   UNL     1       9.280   9.880  19.047  0.00  0.00    +0.000 C 
BRANCH   7   8
ATOM      8  C   UNL     1       8.057   9.667  18.143  0.00  0.00    +0.000 C 
BRANCH   8   9
ATOM      9  C   UNL     1       8.112   8.342  17.379  0.00  0.00    +0.000 C 
BRANCH   9  10
ATOM     10  C   UNL     1       7.992   7.176  18.369  0.00  0.00    +0.000 C 
BRANCH  10  13
ATOM     11  O   UNL     1       7.557   4.389  18.382  0.00  0.00    +0.000 OA
ATOM     12  C   UNL     1       6.617   5.149  18.329  0.00  0.00    +0.000 C 
ATOM     13  N   UNL     1       6.721   6.510  18.315  0.00  0.00    +0.000 N 
ATOM     14  H   UNL     1       5.888   7.082  18.252  0.00  0.00    +0.000 HD
BRANCH  12  15
ATOM     15  C   UNL     1       5.208   4.662  18.266  0.00  0.00    +0.000 C 
ATOM     16  C   UNL     1       4.672   4.024  19.321  0.00  0.00    +0.000 C 
BRANCH  16  17
ATOM     17  C   UNL     1       3.275   3.581  19.338  0.00  0.00    +0.000 A 
ATOM     18  C   UNL     1       2.293   4.193  20.125  0.00  0.00    +0.000 A 
ATOM     19  C   UNL     1       0.988   3.708  20.118  0.00  0.00    +0.000 A 
ATOM     20  C   UNL     1       0.694   2.625  19.303  0.00  0.00    +0.000 A 
ATOM     21  N   UNL     1       1.603   2.020  18.510  0.00  0.00    +0.000 NA
ATOM     22  C   UNL     1       2.867   2.513  18.542  0.00  0.00    +0.000 A 
ENDBRANCH  16  17
ENDBRANCH  12  15
ENDBRANCH  10  13
ENDBRANCH   9  10
ENDBRANCH   8   9
ENDBRANCH   7   8
ENDBRANCH   1   7
BRANCH   4  23
ATOM     23  C   UNL     1       9.686  14.558  20.257  0.00  0.00    +0.000 C 
BRANCH  23  24
ATOM     24  C   UNL     1      10.548  15.415  21.231  0.00  0.00    +0.000 A 
ATOM     25  C   UNL     1      10.207  15.597  22.589  0.00  0.00    +0.000 A 
ATOM     26  C   UNL     1      10.861  16.533  23.392  0.00  0.00    +0.000 A 
ATOM     27  C   UNL     1      11.890  17.298  22.866  0.00  0.00    +0.000 A 
ATOM     28  C   UNL     1      12.297  17.094  21.551  0.00  0.00    +0.000 A 
ATOM     29  C   UNL     1      11.650  16.151  20.748  0.00  0.00    +0.000 A 
ENDBRANCH  23  24
BRANCH  23  30
ATOM     30  C   UNL     1       8.460  15.334  19.714  0.00  0.00    +0.000 A 
ATOM     31  C   UNL     1       7.135  14.852  19.871  0.00  0.00    +0.000 A 
ATOM     32  C   UNL     1       6.024  15.576  19.420  0.00  0.00    +0.000 A 
ATOM     33  C   UNL     1       6.202  16.810  18.806  0.00  0.00    +0.000 A 
ATOM     34  C   UNL     1       7.492  17.292  18.610  0.00  0.00    +0.000 A 
ATOM     35  C   UNL     1       8.607  16.551  19.033  0.00  0.00    +0.000 A 
ENDBRANCH  23  30
BRANCH  23  36
ATOM     36  O   UNL     1       9.118  13.460  20.992  0.00  0.00    +0.000 OA
ATOM     37  H   UNL     1       9.835  12.879  21.286  0.00  0.00    +0.000 HD
ENDBRANCH  23  36
ENDBRANCH   4  23
TORSDOF 11
ENDMDL
MODEL 6
REMARK VINA RESULT:      -7.8      3.129      7.953
REMARK  Name = 
REMARK  11 active torsions:
REMARK  status: ('A' for Active; 'I' for Inactive)
REMARK    1  A    between atoms: C_2  and  C_3
REMARK    2  A    between atoms: C_4  and  C_5
REMARK    3  A    between atoms: N_11  and  C_12
REMARK    4  A    between atoms: C_12  and  C_13
REMARK    5  A    between atoms: C_13  and  C_14
REMARK    6  A    between atoms: C_14  and  C_15
REMARK    7  A    between atoms: C_15  and  N_16
REMARK    8  A    between atoms: C_19  and  C_20
REMARK    9  A    between atoms: C_20  and  O_21
REMARK   10  A    between atoms: C_20  and  C_22
REMARK   11  A    between atoms: C_20  and  C_28
REMARK                            x       y       z     vdW  Elec       q    Type
REMARK                         _______ _______ _______ _____ _____    ______ ____
ROOT
ATOM      1  N   UNL     1       3.100   3.687  18.797  0.00  0.00    +0.000 NA
ATOM      2  C   UNL     1       3.909   4.917  18.714  0.00  0.00    +0.000 C 
ATOM      3  C   UNL     1       3.750   5.605  17.370  0.00  0.00    +0.000 C 
ATOM      4  C   UNL     1       4.198   4.710  16.216  0.00  0.00    +0.000 C 
ATOM      5  C   UNL     1       3.290   3.451  16.309  0.00  0.00    +0.000 C 
ATOM      6  C   UNL     1       3.317   2.767  17.677  0.00  0.00    +0.000 C 
ENDROOT
BRANCH   1   7
ATOM      7  C   UNL     1       3.342   2.985  20.069  0.00  0.00    +0.000 C 
BRANCH   7   8
ATOM      8  C   UNL     1       2.118   2.993  20.996  0.00  0.00    +0.000 C 
BRANCH   8   9
ATOM      9  C   UNL     1       1.260   4.249  20.827  0.00  0.00    +0.000 C 
BRANCH   9  10
ATOM     10  C   UNL     1       2.139   5.495  20.991  0.00  0.00    +0.000 C 
BRANCH  10  13
ATOM     11  O   UNL     1       2.246   7.948  19.602  0.00  0.00    +0.000 OA
ATOM     12  C   UNL     1       1.516   7.825  20.559  0.00  0.00    +0.000 C 
ATOM     13  N   UNL     1       1.394   6.684  21.298  0.00  0.00    +0.000 N 
ATOM     14  H   UNL     1       0.773   6.661  22.098  0.00  0.00    +0.000 HD
BRANCH  12  15
ATOM     15  C   UNL     1       0.655   8.942  21.047  0.00  0.00    +0.000 C 
ATOM     16  C   UNL     1       0.100   9.793  20.166  0.00  0.00    +0.000 C 
BRANCH  16  17
ATOM     17  C   UNL     1      -0.804  10.869  20.583  0.00  0.00    +0.000 A 
ATOM     18  C   UNL     1      -0.925  11.288  21.912  0.00  0.00    +0.000 A 
ATOM     19  C   UNL     1      -1.822  12.297  22.249  0.00  0.00    +0.000 A 
ATOM     20  C   UNL     1      -2.567  12.879  21.235  0.00  0.00    +0.000 A 
ATOM     21  N   UNL     1      -2.465  12.524  19.936  0.00  0.00    +0.000 NA
ATOM     22  C   UNL     1      -1.585  11.534  19.641  0.00  0.00    +0.000 A 
ENDBRANCH  16  17
ENDBRANCH  12  15
ENDBRANCH  10  13
ENDBRANCH   9  10
ENDBRANCH   8   9
ENDBRANCH   7   8
ENDBRANCH   1   7
BRANCH   4  23
ATOM     23  C   UNL     1       5.758   4.402  16.110  0.00  0.00    +0.000 C 
BRANCH  23  24
ATOM     24  C   UNL     1       6.172   4.448  14.609  0.00  0.00    +0.000 A 
ATOM     25  C   UNL     1       5.523   3.684  13.617  0.00  0.00    +0.000 A 
ATOM     26  C   UNL     1       6.037   3.569  12.323  0.00  0.00    +0.000 A 
ATOM     27  C   UNL     1       7.203   4.236  11.979  0.00  0.00    +0.000 A 
ATOM     28  C   UNL     1       7.828   5.055  12.915  0.00  0.00    +0.000 A 
ATOM     29  C   UNL     1       7.311   5.178  14.207  0.00  0.00    +0.000 A 
ENDBRANCH  23  24
BRANCH  23  30
ATOM     30  C   UNL     1       6.645   5.312  16.996  0.00  0.00    +0.000 A 
ATOM     31  C   UNL     1       6.804   6.697  16.730  0.00  0.00    +0.000 A 
ATOM     32  C   UNL     1       7.570   7.528  17.557  0.00  0.00    +0.000 A 
ATOM     33  C   UNL     1       8.195   7.003  18.682  0.00  0.00    +0.000 A 
ATOM     34  C   UNL     1       8.082   5.642  18.949  0.00  0.00    +0.000 A 
ATOM     35  C   UNL     1       7.341   4.803  18.102  0.00  0.00    +0.000 A 
ENDBRANCH  23  30
BRANCH  23  36
ATOM     36  O   UNL     1       5.995   3.075  16.611  0.00  0.00    +0.000 OA
ATOM     37  H   UNL     1       6.913   3.018  16.916  0.00  0.00    +0.000 HD
ENDBRANCH  23  36
ENDBRANCH   4  23
TORSDOF 11
ENDMDL
MODEL 7
REMARK VINA RESULT:      -7.8      3.257     10.718
REMARK  Name = 
REMARK  11 active torsions:
REMARK  status: ('A' for Active; 'I' for Inactive)
REMARK    1  A    between atoms: C_2  and  C_3
REMARK    2  A    between atoms: C_4  and  C_5
REMARK    3  A    between atoms: N_11  and  C_12
REMARK    4  A    between atoms: C_12  and  C_13
REMARK    5  A    between atoms: C_13  and  C_14
REMARK    6  A    between atoms: C_14  and  C_15
REMARK    7  A    between atoms: C_15  and  N_16
REMARK    8  A    between atoms: C_19  and  C_20
REMARK    9  A    between atoms: C_20  and  O_21
REMARK   10  A    between atoms: C_20  and  C_22
REMARK   11  A    between atoms: C_20  and  C_28
REMARK                            x       y       z     vdW  Elec       q    Type
REMARK                         _______ _______ _______ _____ _____    ______ ____
ROOT
ATOM      1  N   UNL     1      10.354  11.149  19.249  0.00  0.00    +0.000 NA
ATOM      2  C   UNL     1      11.095  12.298  18.697  0.00  0.00    +0.000 C 
ATOM      3  C   UNL     1      11.788  13.095  19.787  0.00  0.00    +0.000 C 
ATOM      4  C   UNL     1      10.794  13.662  20.798  0.00  0.00    +0.000 C 
ATOM      5  C   UNL     1      10.071  12.420  21.390  0.00  0.00    +0.000 C 
ATOM      6  C   UNL     1       9.440  11.509  20.336  0.00  0.00    +0.000 C 
ENDROOT
BRANCH   1   7
ATOM      7  C   UNL     1       9.610  10.446  18.189  0.00  0.00    +0.000 C 
BRANCH   7   8
ATOM      8  C   UNL     1       8.716   9.323  18.734  0.00  0.00    +0.000 C 
BRANCH   8   9
ATOM      9  C   UNL     1       7.656   8.871  17.727  0.00  0.00    +0.000 C 
BRANCH   9  10
ATOM     10  C   UNL     1       7.796   7.364  17.480  0.00  0.00    +0.000 C 
BRANCH  10  13
ATOM     11  O   UNL     1       7.963   5.179  19.257  0.00  0.00    +0.000 OA
ATOM     12  C   UNL     1       6.885   5.554  18.857  0.00  0.00    +0.000 C 
ATOM     13  N   UNL     1       6.697   6.596  17.995  0.00  0.00    +0.000 N 
ATOM     14  H   UNL     1       5.763   6.841  17.690  0.00  0.00    +0.000 HD
BRANCH  12  15
ATOM     15  C   UNL     1       5.614   4.891  19.270  0.00  0.00    +0.000 C 
ATOM     16  C   UNL     1       4.627   4.715  18.374  0.00  0.00    +0.000 C 
BRANCH  16  17
ATOM     17  C   UNL     1       3.384   4.014  18.707  0.00  0.00    +0.000 A 
ATOM     18  C   UNL     1       2.318   3.889  17.810  0.00  0.00    +0.000 A 
ATOM     19  C   UNL     1       1.152   3.234  18.195  0.00  0.00    +0.000 A 
ATOM     20  C   UNL     1       1.090   2.701  19.473  0.00  0.00    +0.000 A 
ATOM     21  N   UNL     1       2.102   2.776  20.363  0.00  0.00    +0.000 NA
ATOM     22  C   UNL     1       3.224   3.424  19.959  0.00  0.00    +0.000 A 
ENDBRANCH  16  17
ENDBRANCH  12  15
ENDBRANCH  10  13
ENDBRANCH   9  10
ENDBRANCH   8   9
ENDBRANCH   7   8
ENDBRANCH   1   7
BRANCH   4  23
ATOM     23  C   UNL     1       9.824  14.816  20.280  0.00  0.00    +0.000 C 
BRANCH  23  24
ATOM     24  C   UNL     1       9.178  15.513  21.515  0.00  0.00    +0.000 A 
ATOM     25  C   UNL     1       9.920  15.873  22.660  0.00  0.00    +0.000 A 
ATOM     26  C   UNL     1       9.298  16.297  23.836  0.00  0.00    +0.000 A 
ATOM     27  C   UNL     1       7.917  16.395  23.892  0.00  0.00    +0.000 A 
ATOM     28  C   UNL     1       7.160  16.115  22.758  0.00  0.00    +0.000 A 
ATOM     29  C   UNL     1       7.781  15.700  21.577  0.00  0.00    +0.000 A 
ENDBRANCH  23  24
BRANCH  23  30
ATOM     30  C   UNL     1      10.497  15.826  19.317  0.00  0.00    +0.000 A 
ATOM     31  C   UNL     1      11.698  16.500  19.654  0.00  0.00    +0.000 A 
ATOM     32  C   UNL     1      12.330  17.380  18.765  0.00  0.00    +0.000 A 
ATOM     33  C   UNL     1      11.785  17.604  17.507  0.00  0.00    +0.000 A 
ATOM     34  C   UNL     1      10.590  16.980  17.162  0.00  0.00    +0.000 A 
ATOM     35  C   UNL     1       9.940  16.125  18.065  0.00  0.00    +0.000 A 
ENDBRANCH  23  30
BRANCH  23  36
ATOM     36  O   UNL     1       8.780  14.214  19.495  0.00  0.00    +0.000 OA
ATOM     37  H   UNL     1       8.542  14.821  18.778  0.00  0.00    +0.000 HD
ENDBRANCH  23  36
ENDBRANCH   4  23
TORSDOF 11
ENDMDL
MODEL 8
REMARK VINA RESULT:      -7.8      2.464      5.102
REMARK  Name = 
REMARK  11 active torsions:
REMARK  status: ('A' for Active; 'I' for Inactive)
REMARK    1  A    between atoms: C_2  and  C_3
REMARK    2  A    between atoms: C_4  and  C_5
REMARK    3  A    between atoms: N_11  and  C_12
REMARK    4  A    between atoms: C_12  and  C_13
REMARK    5  A    between atoms: C_13  and  C_14
REMARK    6  A    between atoms: C_14  and  C_15
REMARK    7  A    between atoms: C_15  and  N_16
REMARK    8  A    between atoms: C_19  and  C_20
REMARK    9  A    between atoms: C_20  and  O_21
REMARK   10  A    between atoms: C_20  and  C_22
REMARK   11  A    between atoms: C_20  and  C_28
REMARK                            x       y       z     vdW  Elec       q    Type
REMARK                         _______ _______ _______ _____ _____    ______ ____
ROOT
ATOM      1  N   UNL     1       6.731   6.330  17.309  0.00  0.00    +0.000 NA
ATOM      2  C   UNL     1       6.361   5.112  18.054  0.00  0.00    +0.000 C 
ATOM      3  C   UNL     1       5.099   4.476  17.499  0.00  0.00    +0.000 C 
ATOM      4  C   UNL     1       3.901   5.420  17.582  0.00  0.00    +0.000 C 
ATOM      5  C   UNL     1       4.312   6.665  16.746  0.00  0.00    +0.000 C 
ATOM      6  C   UNL     1       5.636   7.295  17.182  0.00  0.00    +0.000 C 
ENDROOT
BRANCH   1   7
ATOM      7  C   UNL     1       7.900   6.984  17.922  0.00  0.00    +0.000 C 
BRANCH   7   8
ATOM      8  C   UNL     1       7.850   8.515  17.810  0.00  0.00    +0.000 C 
BRANCH   8   9
ATOM      9  C   UNL     1       8.818   9.208  18.772  0.00  0.00    +0.000 C 
BRANCH   9  10
ATOM     10  C   UNL     1       9.373  10.477  18.113  0.00  0.00    +0.000 C 
BRANCH  10  13
ATOM     11  O   UNL     1       8.448  13.084  17.556  0.00  0.00    +0.000 OA
ATOM     12  C   UNL     1       8.941  12.832  18.632  0.00  0.00    +0.000 C 
ATOM     13  N   UNL     1       9.420  11.608  18.998  0.00  0.00    +0.000 N 
ATOM     14  H   UNL     1       9.835  11.477  19.912  0.00  0.00    +0.000 HD
BRANCH  12  15
ATOM     15  C   UNL     1       9.086  13.867  19.697  0.00  0.00    +0.000 C 
ATOM     16  C   UNL     1       9.388  13.497  20.954  0.00  0.00    +0.000 C 
BRANCH  16  17
ATOM     17  C   UNL     1       9.605  14.474  22.025  0.00  0.00    +0.000 A 
ATOM     18  C   UNL     1       8.840  14.500  23.197  0.00  0.00    +0.000 A 
ATOM     19  C   UNL     1       9.077  15.470  24.166  0.00  0.00    +0.000 A 
ATOM     20  C   UNL     1      10.095  16.385  23.944  0.00  0.00    +0.000 A 
ATOM     21  N   UNL     1      10.873  16.382  22.842  0.00  0.00    +0.000 NA
ATOM     22  C   UNL     1      10.615  15.427  21.914  0.00  0.00    +0.000 A 
ENDBRANCH  16  17
ENDBRANCH  12  15
ENDBRANCH  10  13
ENDBRANCH   9  10
ENDBRANCH   8   9
ENDBRANCH   7   8
ENDBRANCH   1   7
BRANCH   4  23
ATOM     23  C   UNL     1       3.346   5.748  19.039  0.00  0.00    +0.000 C 
BRANCH  23  24
ATOM     24  C   UNL     1       2.451   7.021  18.955  0.00  0.00    +0.000 A 
ATOM     25  C   UNL     1       2.210   7.703  17.744  0.00  0.00    +0.000 A 
ATOM     26  C   UNL     1       1.589   8.953  17.714  0.00  0.00    +0.000 A 
ATOM     27  C   UNL     1       1.172   9.547  18.895  0.00  0.00    +0.000 A 
ATOM     28  C   UNL     1       1.332   8.869  20.100  0.00  0.00    +0.000 A 
ATOM     29  C   UNL     1       1.944   7.613  20.131  0.00  0.00    +0.000 A 
ENDBRANCH  23  24
BRANCH  23  30
ATOM     30  C   UNL     1       2.622   4.562  19.724  0.00  0.00    +0.000 A 
ATOM     31  C   UNL     1       3.167   3.901  20.855  0.00  0.00    +0.000 A 
ATOM     32  C   UNL     1       2.491   2.857  21.501  0.00  0.00    +0.000 A 
ATOM     33  C   UNL     1       1.244   2.450  21.043  0.00  0.00    +0.000 A 
ATOM     34  C   UNL     1       0.701   3.060  19.917  0.00  0.00    +0.000 A 
ATOM     35  C   UNL     1       1.393   4.082  19.250  0.00  0.00    +0.000 A 
ENDBRANCH  23  30
BRANCH  23  36
ATOM     36  O   UNL     1       4.464   6.029  19.899  0.00  0.00    +0.000 OA
ATOM     37  H   UNL     1       4.612   5.264  20.476  0.00  0.00    +0.000 HD
ENDBRANCH  23  36
ENDBRANCH   4  23
TORSDOF 11
ENDMDL
MODEL 9
REMARK VINA RESULT:      -7.7      3.842      8.393
REMARK  Name = 
REMARK  11 active torsions:
REMARK  status: ('A' for Active; 'I' for Inactive)
REMARK    1  A    between atoms: C_2  and  C_3
REMARK    2  A    between atoms: C_4  and  C_5
REMARK    3  A    between atoms: N_11  and  C_12
REMARK    4  A    between atoms: C_12  and  C_13
REMARK    5  A    between atoms: C_13  and  C_14
REMARK    6  A    between atoms: C_14  and  C_15
REMARK    7  A    between atoms: C_15  and  N_16
REMARK    8  A    between atoms: C_19  and  C_20
REMARK    9  A    between atoms: C_20  and  O_21
REMARK   10  A    between atoms: C_20  and  C_22
REMARK   11  A    between atoms: C_20  and  C_28
REMARK                            x       y       z     vdW  Elec       q    Type
REMARK                         _______ _______ _______ _____ _____    ______ ____
ROOT
ATOM      1  N   UNL     1       0.950   9.422  19.674  0.00  0.00    +0.000 NA
ATOM      2  C   UNL     1      -0.396   9.685  20.215  0.00  0.00    +0.000 C 
ATOM      3  C   UNL     1      -1.155  10.690  19.367  0.00  0.00    +0.000 C 
ATOM      4  C   UNL     1      -0.440  12.038  19.302  0.00  0.00    +0.000 C 
ATOM      5  C   UNL     1       0.952  11.724  18.683  0.00  0.00    +0.000 C 
ATOM      6  C   UNL     1       1.731  10.637  19.426  0.00  0.00    +0.000 C 
ENDROOT
BRANCH   1   7
ATOM      7  C   UNL     1       1.706   8.521  20.562  0.00  0.00    +0.000 C 
BRANCH   7   8
ATOM      8  C   UNL     1       2.042   7.177  19.900  0.00  0.00    +0.000 C 
BRANCH   8   9
ATOM      9  C   UNL     1       1.409   5.988  20.625  0.00  0.00    +0.000 C 
BRANCH   9  10
ATOM     10  C   UNL     1       2.380   4.801  20.605  0.00  0.00    +0.000 C 
BRANCH  10  13
ATOM     11  O   UNL     1       1.743   3.062  18.477  0.00  0.00    +0.000 OA
ATOM     12  C   UNL     1       2.702   3.795  18.395  0.00  0.00    +0.000 C 
ATOM     13  N   UNL     1       3.096   4.669  19.367  0.00  0.00    +0.000 N 
ATOM     14  H   UNL     1       3.922   5.239  19.233  0.00  0.00    +0.000 HD
BRANCH  12  15
ATOM     15  C   UNL     1       3.582   3.814  17.190  0.00  0.00    +0.000 C 
ATOM     16  C   UNL     1       4.562   4.729  17.090  0.00  0.00    +0.000 C 
BRANCH  16  17
ATOM     17  C   UNL     1       5.496   4.754  15.961  0.00  0.00    +0.000 A 
ATOM     18  C   UNL     1       5.253   4.081  14.759  0.00  0.00    +0.000 A 
ATOM     19  C   UNL     1       6.192   4.121  13.732  0.00  0.00    +0.000 A 
ATOM     20  C   UNL     1       7.350   4.857  13.930  0.00  0.00    +0.000 A 
ATOM     21  N   UNL     1       7.615   5.541  15.062  0.00  0.00    +0.000 NA
ATOM     22  C   UNL     1       6.683   5.480  16.046  0.00  0.00    +0.000 A 
ENDBRANCH  16  17
ENDBRANCH  12  15
ENDBRANCH  10  13
ENDBRANCH   9  10
ENDBRANCH   8   9
ENDBRANCH   7   8
ENDBRANCH   1   7
BRANCH   4  23
ATOM     23  C   UNL     1      -0.395  12.891  20.647  0.00  0.00    +0.000 C 
BRANCH  23  24
ATOM     24  C   UNL     1       0.065  14.339  20.301  0.00  0.00    +0.000 A 
ATOM     25  C   UNL     1      -0.295  14.985  19.099  0.00  0.00    +0.000 A 
ATOM     26  C   UNL     1       0.294  16.189  18.706  0.00  0.00    +0.000 A 
ATOM     27  C   UNL     1       1.243  16.792  19.516  0.00  0.00    +0.000 A 
ATOM     28  C   UNL     1       1.569  16.216  20.740  0.00  0.00    +0.000 A 
ATOM     29  C   UNL     1       0.974  15.017  21.140  0.00  0.00    +0.000 A 
ENDBRANCH  23  24
BRANCH  23  30
ATOM     30  C   UNL     1      -1.716  12.869  21.456  0.00  0.00    +0.000 A 
ATOM     31  C   UNL     1      -2.923  13.404  20.940  0.00  0.00    +0.000 A 
ATOM     32  C   UNL     1      -4.127  13.344  21.653  0.00  0.00    +0.000 A 
ATOM     33  C   UNL     1      -4.163  12.737  22.903  0.00  0.00    +0.000 A 
ATOM     34  C   UNL     1      -2.986  12.233  23.448  0.00  0.00    +0.000 A 
ATOM     35  C   UNL     1      -1.774  12.322  22.746  0.00  0.00    +0.000 A 
ENDBRANCH  23  30
BRANCH  23  36
ATOM     36  O   UNL     1       0.575  12.300  21.529  0.00  0.00    +0.000 OA
ATOM     37  H   UNL     1       1.446  12.678  21.331  0.00  0.00    +0.000 HD
ENDBRANCH  23  36
ENDBRANCH   4  23
TORSDOF 11
ENDMDL
