MODEL 1
REMARK VINA RESULT:      -7.3      0.000      0.000
REMARK  Name = 
REMARK  11 active torsions:
REMARK  status: ('A' for Active; 'I' for Inactive)
REMARK    1  A    between atoms: C_1  and  O_2
REMARK    2  A    between atoms: O_2  and  C_3
REMARK    3  A    between atoms: C_5  and  C_6
REMARK    4  A    between atoms: C_6  and  C_7
REMARK    5  A    between atoms: C_7  and  N_8
REMARK    6  A    between atoms: N_11  and  C_12
REMARK    7  A    between atoms: C_12  and  C_13
REMARK    8  A    between atoms: C_13  and  C_14
REMARK    9  A    between atoms: C_14  and  C_15
REMARK   10  A    between atoms: C_25  and  O_26
REMARK   11  A    between atoms: O_26  and  C_27
REMARK                            x       y       z     vdW  Elec       q    Type
REMARK                         _______ _______ _______ _____ _____    ______ ____
ROOT
ATOM      1  N   UNL     1       7.777   6.403  17.495  0.00  0.00    +0.000 NA
ATOM      2  C   UNL     1       7.655   5.162  18.290  0.00  0.00    +0.000 C 
ATOM      3  C   UNL     1       6.345   5.047  19.102  0.00  0.00    +0.000 C 
ATOM      4  N   UNL     1       5.117   5.185  18.291  0.00  0.00    +0.000 NA
ATOM      5  C   UNL     1       5.214   6.443  17.517  0.00  0.00    +0.000 C 
ATOM      6  C   UNL     1       6.531   6.599  16.713  0.00  0.00    +0.000 C 
ENDROOT
BRANCH   1   7
ATOM      7  C   UNL     1       8.056   7.589  18.326  0.00  0.00    +0.000 C 
BRANCH   7   8
ATOM      8  C   UNL     1       7.917   8.928  17.571  0.00  0.00    +0.000 C 
BRANCH   8  11
ATOM      9  C   UNL     1       9.338  12.359  18.427  0.00  0.00    +0.000 A 
ATOM     10  C   UNL     1       8.785  11.289  17.708  0.00  0.00    +0.000 A 
ATOM     11  C   UNL     1       8.710  10.008  18.266  0.00  0.00    +0.000 A 
ATOM     12  C   UNL     1       9.282   9.778  19.520  0.00  0.00    +0.000 A 
ATOM     13  C   UNL     1       9.899  10.823  20.207  0.00  0.00    +0.000 A 
ATOM     14  C   UNL     1       9.932  12.117  19.674  0.00  0.00    +0.000 A 
BRANCH   9  16
ATOM     15  C   UNL     1       7.981  14.250  18.023  0.00  0.00    +0.000 C 
ATOM     16  O   UNL     1       9.272  13.642  17.953  0.00  0.00    +0.000 OA
ENDBRANCH   9  16
BRANCH  14  17
ATOM     17  O   UNL     1      10.469  13.043  20.527  0.00  0.00    +0.000 OA
BRANCH  17  18
ATOM     18  C   UNL     1       9.602  13.588  21.507  0.00  0.00    +0.000 C 
ATOM     19  F   UNL     1       9.348  14.871  21.114  0.00  0.00    +0.000 F 
ENDBRANCH  17  18
ENDBRANCH  14  17
ENDBRANCH   8  11
ENDBRANCH   7   8
ENDBRANCH   1   7
BRANCH   4  20
ATOM     20  C   UNL     1       4.890   4.046  17.385  0.00  0.00    +0.000 C 
BRANCH  20  21
ATOM     21  C   UNL     1       3.425   3.806  17.030  0.00  0.00    +0.000 C 
BRANCH  21  22
ATOM     22  C   UNL     1       2.909   2.441  17.490  0.00  0.00    +0.000 C 
BRANCH  22  23
ATOM     23  C   UNL     1       2.436   2.557  18.916  0.00  0.00    +0.000 A 
ATOM     24  C   UNL     1       1.154   3.050  19.195  0.00  0.00    +0.000 A 
ATOM     25  C   UNL     1       0.768   3.294  20.512  0.00  0.00    +0.000 A 
ATOM     26  C   UNL     1       1.652   3.047  21.556  0.00  0.00    +0.000 A 
ATOM     27  C   UNL     1       2.922   2.541  21.288  0.00  0.00    +0.000 A 
ATOM     28  C   UNL     1       3.311   2.290  19.972  0.00  0.00    +0.000 A 
ENDBRANCH  22  23
ENDBRANCH  21  22
ENDBRANCH  20  21
ENDBRANCH   4  20
TORSDOF 10
ENDMDL
MODEL 2
REMARK VINA RESULT:      -7.2      1.039      1.398
REMARK  Name = 
REMARK  11 active torsions:
REMARK  status: ('A' for Active; 'I' for Inactive)
REMARK    1  A    between atoms: C_1  and  O_2
REMARK    2  A    between atoms: O_2  and  C_3
REMARK    3  A    between atoms: C_5  and  C_6
REMARK    4  A    between atoms: C_6  and  C_7
REMARK    5  A    between atoms: C_7  and  N_8
REMARK    6  A    between atoms: N_11  and  C_12
REMARK    7  A    between atoms: C_12  and  C_13
REMARK    8  A    between atoms: C_13  and  C_14
REMARK    9  A    between atoms: C_14  and  C_15
REMARK   10  A    between atoms: C_25  and  O_26
REMARK   11  A    between atoms: O_26  and  C_27
REMARK                            x       y       z     vdW  Elec       q    Type
REMARK                         _______ _______ _______ _____ _____    ______ ____
ROOT
ATOM      1  N   UNL     1       7.838   6.719  17.666  0.00  0.00    +0.000 NA
ATOM      2  C   UNL     1       7.688   5.485  18.467  0.00  0.00    +0.000 C 
ATOM      3  C   UNL     1       6.425   5.446  19.356  0.00  0.00    +0.000 C 
ATOM      4  N   UNL     1       5.161   5.662  18.620  0.00  0.00    +0.000 NA
ATOM      5  C   UNL     1       5.288   6.915  17.842  0.00  0.00    +0.000 C 
ATOM      6  C   UNL     1       6.562   6.994  16.960  0.00  0.00    +0.000 C 
ENDROOT
BRANCH   1   7
ATOM      7  C   UNL     1       8.238   7.884  18.479  0.00  0.00    +0.000 C 
BRANCH   7   8
ATOM      8  C   UNL     1       8.230   9.219  17.706  0.00  0.00    +0.000 C 
BRANCH   8  11
ATOM      9  C   UNL     1      10.012  12.489  18.513  0.00  0.00    +0.000 A 
ATOM     10  C   UNL     1       9.479  11.404  17.801  0.00  0.00    +0.000 A 
ATOM     11  C   UNL     1       8.998  10.271  18.467  0.00  0.00    +0.000 A 
ATOM     12  C   UNL     1       9.140  10.187  19.854  0.00  0.00    +0.000 A 
ATOM     13  C   UNL     1       9.738  11.231  20.559  0.00  0.00    +0.000 A 
ATOM     14  C   UNL     1      10.175  12.388  19.902  0.00  0.00    +0.000 A 
BRANCH   9  16
ATOM     15  C   UNL     1      11.335  13.543  16.864  0.00  0.00    +0.000 C 
ATOM     16  O   UNL     1      10.339  13.660  17.883  0.00  0.00    +0.000 OA
ENDBRANCH   9  16
BRANCH  14  17
ATOM     17  O   UNL     1      10.628  13.359  20.754  0.00  0.00    +0.000 OA
BRANCH  17  18
ATOM     18  C   UNL     1       9.655  14.018  21.547  0.00  0.00    +0.000 C 
ATOM     19  F   UNL     1       8.606  14.284  20.714  0.00  0.00    +0.000 F 
ENDBRANCH  17  18
ENDBRANCH  14  17
ENDBRANCH   8  11
ENDBRANCH   7   8
ENDBRANCH   1   7
BRANCH   4  20
ATOM     20  C   UNL     1       4.812   4.543  17.729  0.00  0.00    +0.000 C 
BRANCH  20  21
ATOM     21  C   UNL     1       3.378   4.579  17.204  0.00  0.00    +0.000 C 
BRANCH  21  22
ATOM     22  C   UNL     1       2.427   5.370  18.104  0.00  0.00    +0.000 C 
BRANCH  22  23
ATOM     23  C   UNL     1       1.998   4.489  19.248  0.00  0.00    +0.000 A 
ATOM     24  C   UNL     1       2.399   4.790  20.557  0.00  0.00    +0.000 A 
ATOM     25  C   UNL     1       2.126   3.900  21.595  0.00  0.00    +0.000 A 
ATOM     26  C   UNL     1       1.453   2.712  21.338  0.00  0.00    +0.000 A 
ATOM     27  C   UNL     1       1.036   2.413  20.043  0.00  0.00    +0.000 A 
ATOM     28  C   UNL     1       1.301   3.303  19.002  0.00  0.00    +0.000 A 
ENDBRANCH  22  23
ENDBRANCH  21  22
ENDBRANCH  20  21
ENDBRANCH   4  20
TORSDOF 10
ENDMDL
MODEL 3
REMARK VINA RESULT:      -7.0      0.884      2.042
REMARK  Name = 
REMARK  11 active torsions:
REMARK  status: ('A' for Active; 'I' for Inactive)
REMARK    1  A    between atoms: C_1  and  O_2
REMARK    2  A    between atoms: O_2  and  C_3
REMARK    3  A    between atoms: C_5  and  C_6
REMARK    4  A    between atoms: C_6  and  C_7
REMARK    5  A    between atoms: C_7  and  N_8
REMARK    6  A    between atoms: N_11  and  C_12
REMARK    7  A    between atoms: C_12  and  C_13
REMARK    8  A    between atoms: C_13  and  C_14
REMARK    9  A    between atoms: C_14  and  C_15
REMARK   10  A    between atoms: C_25  and  O_26
REMARK   11  A    between atoms: O_26  and  C_27
REMARK                            x       y       z     vdW  Elec       q    Type
REMARK                         _______ _______ _______ _____ _____    ______ ____
ROOT
ATOM      1  N   UNL     1       7.404   6.174  17.531  0.00  0.00    +0.000 NA
ATOM      2  C   UNL     1       6.478   5.651  18.558  0.00  0.00    +0.000 C 
ATOM      3  C   UNL     1       4.987   5.962  18.296  0.00  0.00    +0.000 C 
ATOM      4  N   UNL     1       4.498   5.510  16.977  0.00  0.00    +0.000 NA
ATOM      5  C   UNL     1       5.399   6.057  15.938  0.00  0.00    +0.000 C 
ATOM      6  C   UNL     1       6.905   5.784  16.189  0.00  0.00    +0.000 C 
ENDROOT
BRANCH   1   7
ATOM      7  C   UNL     1       7.580   7.636  17.610  0.00  0.00    +0.000 C 
BRANCH   7   8
ATOM      8  C   UNL     1       8.589   8.087  18.687  0.00  0.00    +0.000 C 
BRANCH   8  11
ATOM      9  C   UNL     1       9.622  11.604  19.730  0.00  0.00    +0.000 A 
ATOM     10  C   UNL     1       9.319  10.235  19.782  0.00  0.00    +0.000 A 
ATOM     11  C   UNL     1       8.703   9.592  18.702  0.00  0.00    +0.000 A 
ATOM     12  C   UNL     1       8.300  10.349  17.599  0.00  0.00    +0.000 A 
ATOM     13  C   UNL     1       8.532  11.725  17.576  0.00  0.00    +0.000 A 
ATOM     14  C   UNL     1       9.194  12.363  18.632  0.00  0.00    +0.000 A 
BRANCH   9  16
ATOM     15  C   UNL     1       9.615  12.666  21.839  0.00  0.00    +0.000 C 
ATOM     16  O   UNL     1      10.363  12.205  20.712  0.00  0.00    +0.000 OA
ENDBRANCH   9  16
BRANCH  14  17
ATOM     17  O   UNL     1       9.443  13.688  18.395  0.00  0.00    +0.000 OA
BRANCH  17  18
ATOM     18  C   UNL     1       8.416  14.603  18.735  0.00  0.00    +0.000 C 
ATOM     19  F   UNL     1       8.997  15.839  18.739  0.00  0.00    +0.000 F 
ENDBRANCH  17  18
ENDBRANCH  14  17
ENDBRANCH   8  11
ENDBRANCH   7   8
ENDBRANCH   1   7
BRANCH   4  20
ATOM     20  C   UNL     1       4.419   4.043  16.860  0.00  0.00    +0.000 C 
BRANCH  20  21
ATOM     21  C   UNL     1       2.996   3.492  16.795  0.00  0.00    +0.000 C 
BRANCH  21  22
ATOM     22  C   UNL     1       2.805   2.219  17.621  0.00  0.00    +0.000 C 
BRANCH  22  23
ATOM     23  C   UNL     1       2.434   2.605  19.029  0.00  0.00    +0.000 A 
ATOM     24  C   UNL     1       3.336   2.388  20.079  0.00  0.00    +0.000 A 
ATOM     25  C   UNL     1       2.941   2.610  21.398  0.00  0.00    +0.000 A 
ATOM     26  C   UNL     1       1.652   3.048  21.678  0.00  0.00    +0.000 A 
ATOM     27  C   UNL     1       0.755   3.281  20.638  0.00  0.00    +0.000 A 
ATOM     28  C   UNL     1       1.147   3.067  19.317  0.00  0.00    +0.000 A 
ENDBRANCH  22  23
ENDBRANCH  21  22
ENDBRANCH  20  21
ENDBRANCH   4  20
TORSDOF 10
ENDMDL
MODEL 4
REMARK VINA RESULT:      -6.9      1.149      1.739
REMARK  Name = 
REMARK  11 active torsions:
REMARK  status: ('A' for Active; 'I' for Inactive)
REMARK    1  A    between atoms: C_1  and  O_2
REMARK    2  A    between atoms: O_2  and  C_3
REMARK    3  A    between atoms: C_5  and  C_6
REMARK    4  A    between atoms: C_6  and  C_7
REMARK    5  A    between atoms: C_7  and  N_8
REMARK    6  A    between atoms: N_11  and  C_12
REMARK    7  A    between atoms: C_12  and  C_13
REMARK    8  A    between atoms: C_13  and  C_14
REMARK    9  A    between atoms: C_14  and  C_15
REMARK   10  A    between atoms: C_25  and  O_26
REMARK   11  A    between atoms: O_26  and  C_27
REMARK                            x       y       z     vdW  Elec       q    Type
REMARK                         _______ _______ _______ _____ _____    ______ ____
ROOT
ATOM      1  N   UNL     1       7.078   6.976  18.504  0.00  0.00    +0.000 NA
ATOM      2  C   UNL     1       5.948   6.920  17.551  0.00  0.00    +0.000 C 
ATOM      3  C   UNL     1       6.161   5.961  16.359  0.00  0.00    +0.000 C 
ATOM      4  N   UNL     1       6.488   4.574  16.751  0.00  0.00    +0.000 NA
ATOM      5  C   UNL     1       7.641   4.615  17.678  0.00  0.00    +0.000 C 
ATOM      6  C   UNL     1       7.468   5.591  18.871  0.00  0.00    +0.000 C 
ENDROOT
BRANCH   1   7
ATOM      7  C   UNL     1       8.239   7.714  17.972  0.00  0.00    +0.000 C 
BRANCH   7   8
ATOM      8  C   UNL     1       7.928   9.174  17.583  0.00  0.00    +0.000 C 
BRANCH   8  11
ATOM      9  C   UNL     1      10.026  12.250  18.394  0.00  0.00    +0.000 A 
ATOM     10  C   UNL     1       9.351  11.250  17.678  0.00  0.00    +0.000 A 
ATOM     11  C   UNL     1       8.838  10.121  18.327  0.00  0.00    +0.000 A 
ATOM     12  C   UNL     1       9.088   9.948  19.690  0.00  0.00    +0.000 A 
ATOM     13  C   UNL     1       9.824  10.903  20.391  0.00  0.00    +0.000 A 
ATOM     14  C   UNL     1      10.295  12.059  19.756  0.00  0.00    +0.000 A 
BRANCH   9  16
ATOM     15  C   UNL     1      11.371  13.303  16.763  0.00  0.00    +0.000 C 
ATOM     16  O   UNL     1      10.392  13.426  17.797  0.00  0.00    +0.000 OA
ENDBRANCH   9  16
BRANCH  14  17
ATOM     17  O   UNL     1      10.893  12.943  20.613  0.00  0.00    +0.000 OA
BRANCH  17  18
ATOM     18  C   UNL     1      10.047  13.879  21.259  0.00  0.00    +0.000 C 
ATOM     19  F   UNL     1       9.628  13.277  22.411  0.00  0.00    +0.000 F 
ENDBRANCH  17  18
ENDBRANCH  14  17
ENDBRANCH   8  11
ENDBRANCH   7   8
ENDBRANCH   1   7
BRANCH   4  20
ATOM     20  C   UNL     1       5.357   3.866  17.377  0.00  0.00    +0.000 C 
BRANCH  20  21
ATOM     21  C   UNL     1       4.016   4.081  16.679  0.00  0.00    +0.000 C 
BRANCH  21  22
ATOM     22  C   UNL     1       2.910   3.165  17.203  0.00  0.00    +0.000 C 
BRANCH  22  23
ATOM     23  C   UNL     1       2.661   3.485  18.654  0.00  0.00    +0.000 A 
ATOM     24  C   UNL     1       2.761   2.479  19.625  0.00  0.00    +0.000 A 
ATOM     25  C   UNL     1       2.392   2.739  20.944  0.00  0.00    +0.000 A 
ATOM     26  C   UNL     1       1.924   3.997  21.304  0.00  0.00    +0.000 A 
ATOM     27  C   UNL     1       1.837   5.007  20.348  0.00  0.00    +0.000 A 
ATOM     28  C   UNL     1       2.211   4.754  19.028  0.00  0.00    +0.000 A 
ENDBRANCH  22  23
ENDBRANCH  21  22
ENDBRANCH  20  21
ENDBRANCH   4  20
TORSDOF 10
ENDMDL
MODEL 5
REMARK VINA RESULT:      -6.8      1.191      2.094
REMARK  Name = 
REMARK  11 active torsions:
REMARK  status: ('A' for Active; 'I' for Inactive)
REMARK    1  A    between atoms: C_1  and  O_2
REMARK    2  A    between atoms: O_2  and  C_3
REMARK    3  A    between atoms: C_5  and  C_6
REMARK    4  A    between atoms: C_6  and  C_7
REMARK    5  A    between atoms: C_7  and  N_8
REMARK    6  A    between atoms: N_11  and  C_12
REMARK    7  A    between atoms: C_12  and  C_13
REMARK    8  A    between atoms: C_13  and  C_14
REMARK    9  A    between atoms: C_14  and  C_15
REMARK   10  A    between atoms: C_25  and  O_26
REMARK   11  A    between atoms: O_26  and  C_27
REMARK                            x       y       z     vdW  Elec       q    Type
REMARK                         _______ _______ _______ _____ _____    ______ ____
ROOT
ATOM      1  N   UNL     1       7.403   7.102  16.967  0.00  0.00    +0.000 NA
ATOM      2  C   UNL     1       7.471   5.892  17.815  0.00  0.00    +0.000 C 
ATOM      3  C   UNL     1       6.160   5.554  18.559  0.00  0.00    +0.000 C 
ATOM      4  N   UNL     1       4.982   5.421  17.676  0.00  0.00    +0.000 NA
ATOM      5  C   UNL     1       4.884   6.643  16.848  0.00  0.00    +0.000 C 
ATOM      6  C   UNL     1       6.194   7.023  16.110  0.00  0.00    +0.000 C 
ENDROOT
BRANCH   1   7
ATOM      7  C   UNL     1       7.396   8.351  17.753  0.00  0.00    +0.000 C 
BRANCH   7   8
ATOM      8  C   UNL     1       8.677   8.575  18.582  0.00  0.00    +0.000 C 
BRANCH   8  11
ATOM      9  C   UNL     1       9.624  11.844  20.298  0.00  0.00    +0.000 A 
ATOM     10  C   UNL     1       9.209  10.520  20.094  0.00  0.00    +0.000 A 
ATOM     11  C   UNL     1       8.904  10.050  18.811  0.00  0.00    +0.000 A 
ATOM     12  C   UNL     1       8.923  10.943  17.738  0.00  0.00    +0.000 A 
ATOM     13  C   UNL     1       9.262  12.280  17.949  0.00  0.00    +0.000 A 
ATOM     14  C   UNL     1       9.617  12.742  19.222  0.00  0.00    +0.000 A 
BRANCH   9  16
ATOM     15  C   UNL     1       9.051  12.547  22.479  0.00  0.00    +0.000 C 
ATOM     16  O   UNL     1      10.073  12.266  21.521  0.00  0.00    +0.000 OA
ENDBRANCH   9  16
BRANCH  14  17
ATOM     17  O   UNL     1      10.034  14.045  19.230  0.00  0.00    +0.000 OA
BRANCH  17  18
ATOM     18  C   UNL     1      11.434  14.269  19.213  0.00  0.00    +0.000 C 
ATOM     19  F   UNL     1      12.012  13.036  19.115  0.00  0.00    +0.000 F 
ENDBRANCH  17  18
ENDBRANCH  14  17
ENDBRANCH   8  11
ENDBRANCH   7   8
ENDBRANCH   1   7
BRANCH   4  20
ATOM     20  C   UNL     1       5.035   4.226  16.816  0.00  0.00    +0.000 C 
BRANCH  20  21
ATOM     21  C   UNL     1       4.337   2.999  17.397  0.00  0.00    +0.000 C 
BRANCH  21  22
ATOM     22  C   UNL     1       2.819   3.156  17.488  0.00  0.00    +0.000 C 
BRANCH  22  23
ATOM     23  C   UNL     1       2.416   3.141  18.940  0.00  0.00    +0.000 A 
ATOM     24  C   UNL     1       3.337   2.752  19.923  0.00  0.00    +0.000 A 
ATOM     25  C   UNL     1       2.926   2.599  21.246  0.00  0.00    +0.000 A 
ATOM     26  C   UNL     1       1.602   2.833  21.599  0.00  0.00    +0.000 A 
ATOM     27  C   UNL     1       0.685   3.236  20.631  0.00  0.00    +0.000 A 
ATOM     28  C   UNL     1       1.092   3.396  19.306  0.00  0.00    +0.000 A 
ENDBRANCH  22  23
ENDBRANCH  21  22
ENDBRANCH  20  21
ENDBRANCH   4  20
TORSDOF 10
ENDMDL
MODEL 6
REMARK VINA RESULT:      -6.7      1.376      2.395
REMARK  Name = 
REMARK  11 active torsions:
REMARK  status: ('A' for Active; 'I' for Inactive)
REMARK    1  A    between atoms: C_1  and  O_2
REMARK    2  A    between atoms: O_2  and  C_3
REMARK    3  A    between atoms: C_5  and  C_6
REMARK    4  A    between atoms: C_6  and  C_7
REMARK    5  A    between atoms: C_7  and  N_8
REMARK    6  A    between atoms: N_11  and  C_12
REMARK    7  A    between atoms: C_12  and  C_13
REMARK    8  A    between atoms: C_13  and  C_14
REMARK    9  A    between atoms: C_14  and  C_15
REMARK   10  A    between atoms: C_25  and  O_26
REMARK   11  A    between atoms: O_26  and  C_27
REMARK                            x       y       z     vdW  Elec       q    Type
REMARK                         _______ _______ _______ _____ _____    ______ ____
ROOT
ATOM      1  N   UNL     1       6.437   7.081  17.832  0.00  0.00    +0.000 NA
ATOM      2  C   UNL     1       5.547   6.703  16.713  0.00  0.00    +0.000 C 
ATOM      3  C   UNL     1       6.113   5.606  15.784  0.00  0.00    +0.000 C 
ATOM      4  N   UNL     1       6.507   4.366  16.485  0.00  0.00    +0.000 NA
ATOM      5  C   UNL     1       7.427   4.729  17.586  0.00  0.00    +0.000 C 
ATOM      6  C   UNL     1       6.897   5.849  18.519  0.00  0.00    +0.000 C 
ENDROOT
BRANCH   1   7
ATOM      7  C   UNL     1       7.592   7.889  17.396  0.00  0.00    +0.000 C 
BRANCH   7   8
ATOM      8  C   UNL     1       8.577   8.235  18.532  0.00  0.00    +0.000 C 
BRANCH   8  11
ATOM      9  C   UNL     1       9.638  11.641  19.872  0.00  0.00    +0.000 A 
ATOM     10  C   UNL     1       9.296  10.282  19.812  0.00  0.00    +0.000 A 
ATOM     11  C   UNL     1       8.730   9.731  18.657  0.00  0.00    +0.000 A 
ATOM     12  C   UNL     1       8.415  10.572  17.587  0.00  0.00    +0.000 A 
ATOM     13  C   UNL     1       8.684  11.938  17.671  0.00  0.00    +0.000 A 
ATOM     14  C   UNL     1       9.297  12.484  18.805  0.00  0.00    +0.000 A 
BRANCH   9  16
ATOM     15  C   UNL     1       9.527  12.704  21.978  0.00  0.00    +0.000 C 
ATOM     16  O   UNL     1      10.333  12.152  20.935  0.00  0.00    +0.000 OA
ENDBRANCH   9  16
BRANCH  14  17
ATOM     17  O   UNL     1       9.594  13.814  18.675  0.00  0.00    +0.000 OA
BRANCH  17  18
ATOM     18  C   UNL     1       8.500  14.713  18.624  0.00  0.00    +0.000 C 
ATOM     19  F   UNL     1       7.712  14.408  19.698  0.00  0.00    +0.000 F 
ENDBRANCH  17  18
ENDBRANCH  14  17
ENDBRANCH   8  11
ENDBRANCH   7   8
ENDBRANCH   1   7
BRANCH   4  20
ATOM     20  C   UNL     1       5.358   3.608  17.011  0.00  0.00    +0.000 C 
BRANCH  20  21
ATOM     21  C   UNL     1       3.996   4.142  16.572  0.00  0.00    +0.000 C 
BRANCH  21  22
ATOM     22  C   UNL     1       2.823   3.399  17.211  0.00  0.00    +0.000 C 
BRANCH  22  23
ATOM     23  C   UNL     1       2.456   4.089  18.499  0.00  0.00    +0.000 A 
ATOM     24  C   UNL     1       1.667   3.430  19.452  0.00  0.00    +0.000 A 
ATOM     25  C   UNL     1       1.207   4.115  20.576  0.00  0.00    +0.000 A 
ATOM     26  C   UNL     1       1.530   5.454  20.758  0.00  0.00    +0.000 A 
ATOM     27  C   UNL     1       2.327   6.112  19.825  0.00  0.00    +0.000 A 
ATOM     28  C   UNL     1       2.795   5.430  18.701  0.00  0.00    +0.000 A 
ENDBRANCH  22  23
ENDBRANCH  21  22
ENDBRANCH  20  21
ENDBRANCH   4  20
TORSDOF 10
ENDMDL
MODEL 7
REMARK VINA RESULT:      -6.7      1.130      1.555
REMARK  Name = 
REMARK  11 active torsions:
REMARK  status: ('A' for Active; 'I' for Inactive)
REMARK    1  A    between atoms: C_1  and  O_2
REMARK    2  A    between atoms: O_2  and  C_3
REMARK    3  A    between atoms: C_5  and  C_6
REMARK    4  A    between atoms: C_6  and  C_7
REMARK    5  A    between atoms: C_7  and  N_8
REMARK    6  A    between atoms: N_11  and  C_12
REMARK    7  A    between atoms: C_12  and  C_13
REMARK    8  A    between atoms: C_13  and  C_14
REMARK    9  A    between atoms: C_14  and  C_15
REMARK   10  A    between atoms: C_25  and  O_26
REMARK   11  A    between atoms: O_26  and  C_27
REMARK                            x       y       z     vdW  Elec       q    Type
REMARK                         _______ _______ _______ _____ _____    ______ ____
ROOT
ATOM      1  N   UNL     1       7.269   7.263  16.952  0.00  0.00    +0.000 NA
ATOM      2  C   UNL     1       7.389   6.045  17.783  0.00  0.00    +0.000 C 
ATOM      3  C   UNL     1       6.185   5.784  18.716  0.00  0.00    +0.000 C 
ATOM      4  N   UNL     1       4.882   5.729  18.020  0.00  0.00    +0.000 NA
ATOM      5  C   UNL     1       4.737   6.961  17.212  0.00  0.00    +0.000 C 
ATOM      6  C   UNL     1       5.944   7.263  16.286  0.00  0.00    +0.000 C 
ENDROOT
BRANCH   1   7
ATOM      7  C   UNL     1       7.457   8.504  17.727  0.00  0.00    +0.000 C 
BRANCH   7   8
ATOM      8  C   UNL     1       8.717   8.501  18.618  0.00  0.00    +0.000 C 
BRANCH   8  11
ATOM      9  C   UNL     1       9.666  12.172  18.246  0.00  0.00    +0.000 A 
ATOM     10  C   UNL     1       9.495  10.808  17.971  0.00  0.00    +0.000 A 
ATOM     11  C   UNL     1       9.111   9.913  18.976  0.00  0.00    +0.000 A 
ATOM     12  C   UNL     1       8.990  10.376  20.289  0.00  0.00    +0.000 A 
ATOM     13  C   UNL     1       9.233  11.718  20.580  0.00  0.00    +0.000 A 
ATOM     14  C   UNL     1       9.569  12.626  19.568  0.00  0.00    +0.000 A 
BRANCH   9  16
ATOM     15  C   UNL     1      11.248  13.191  16.817  0.00  0.00    +0.000 C 
ATOM     16  O   UNL     1       9.888  13.076  17.241  0.00  0.00    +0.000 OA
ENDBRANCH   9  16
BRANCH  14  17
ATOM     17  O   UNL     1       9.656  13.920  20.007  0.00  0.00    +0.000 OA
BRANCH  17  18
ATOM     18  C   UNL     1      10.794  14.257  20.782  0.00  0.00    +0.000 C 
ATOM     19  F   UNL     1      11.859  14.213  19.928  0.00  0.00    +0.000 F 
ENDBRANCH  17  18
ENDBRANCH  14  17
ENDBRANCH   8  11
ENDBRANCH   7   8
ENDBRANCH   1   7
BRANCH   4  20
ATOM     20  C   UNL     1       4.732   4.539  17.164  0.00  0.00    +0.000 C 
BRANCH  20  21
ATOM     21  C   UNL     1       4.947   3.211  17.888  0.00  0.00    +0.000 C 
BRANCH  21  22
ATOM     22  C   UNL     1       3.696   2.333  17.921  0.00  0.00    +0.000 C 
BRANCH  22  23
ATOM     23  C   UNL     1       2.866   2.715  19.119  0.00  0.00    +0.000 A 
ATOM     24  C   UNL     1       3.401   2.605  20.410  0.00  0.00    +0.000 A 
ATOM     25  C   UNL     1       2.591   2.819  21.524  0.00  0.00    +0.000 A 
ATOM     26  C   UNL     1       1.250   3.143  21.361  0.00  0.00    +0.000 A 
ATOM     27  C   UNL     1       0.714   3.270  20.081  0.00  0.00    +0.000 A 
ATOM     28  C   UNL     1       1.522   3.064  18.963  0.00  0.00    +0.000 A 
ENDBRANCH  22  23
ENDBRANCH  21  22
ENDBRANCH  20  21
ENDBRANCH   4  20
TORSDOF 10
ENDMDL
MODEL 8
REMARK VINA RESULT:      -6.7      5.122      7.640
REMARK  Name = 
REMARK  11 active torsions:
REMARK  status: ('A' for Active; 'I' for Inactive)
REMARK    1  A    between atoms: C_1  and  O_2
REMARK    2  A    between atoms: O_2  and  C_3
REMARK    3  A    between atoms: C_5  and  C_6
REMARK    4  A    between atoms: C_6  and  C_7
REMARK    5  A    between atoms: C_7  and  N_8
REMARK    6  A    between atoms: N_11  and  C_12
REMARK    7  A    between atoms: C_12  and  C_13
REMARK    8  A    between atoms: C_13  and  C_14
REMARK    9  A    between atoms: C_14  and  C_15
REMARK   10  A    between atoms: C_25  and  O_26
REMARK   11  A    between atoms: O_26  and  C_27
REMARK                            x       y       z     vdW  Elec       q    Type
REMARK                         _______ _______ _______ _____ _____    ______ ____
ROOT
ATOM      1  N   UNL     1       1.355   3.963  18.935  0.00  0.00    +0.000 NA
ATOM      2  C   UNL     1       1.123   4.415  20.324  0.00  0.00    +0.000 C 
ATOM      3  C   UNL     1       2.175   5.414  20.859  0.00  0.00    +0.000 C 
ATOM      4  N   UNL     1       2.347   6.616  20.017  0.00  0.00    +0.000 NA
ATOM      5  C   UNL     1       2.615   6.175  18.630  0.00  0.00    +0.000 C 
ATOM      6  C   UNL     1       1.591   5.150  18.076  0.00  0.00    +0.000 C 
ENDROOT
BRANCH   1   7
ATOM      7  C   UNL     1       2.479   3.014  18.822  0.00  0.00    +0.000 C 
BRANCH   7   8
ATOM      8  C   UNL     1       3.079   2.921  17.404  0.00  0.00    +0.000 C 
BRANCH   8  11
ATOM      9  C   UNL     1       5.959   5.031  16.072  0.00  0.00    +0.000 A 
ATOM     10  C   UNL     1       4.850   4.173  16.123  0.00  0.00    +0.000 A 
ATOM     11  C   UNL     1       4.396   3.655  17.341  0.00  0.00    +0.000 A 
ATOM     12  C   UNL     1       5.118   3.925  18.506  0.00  0.00    +0.000 A 
ATOM     13  C   UNL     1       6.265   4.716  18.448  0.00  0.00    +0.000 A 
ATOM     14  C   UNL     1       6.694   5.277  17.239  0.00  0.00    +0.000 A 
BRANCH   9  16
ATOM     15  C   UNL     1       7.113   4.888  14.016  0.00  0.00    +0.000 C 
ATOM     16  O   UNL     1       6.312   5.664  14.910  0.00  0.00    +0.000 OA
ENDBRANCH   9  16
BRANCH  14  17
ATOM     17  O   UNL     1       7.764   6.120  17.381  0.00  0.00    +0.000 OA
BRANCH  17  18
ATOM     18  C   UNL     1       8.063   6.559  18.695  0.00  0.00    +0.000 C 
ATOM     19  F   UNL     1       8.445   7.865  18.578  0.00  0.00    +0.000 F 
ENDBRANCH  17  18
ENDBRANCH  14  17
ENDBRANCH   8  11
ENDBRANCH   7   8
ENDBRANCH   1   7
BRANCH   4  20
ATOM     20  C   UNL     1       1.182   7.517  20.048  0.00  0.00    +0.000 C 
BRANCH  20  21
ATOM     21  C   UNL     1       1.504   8.974  19.722  0.00  0.00    +0.000 C 
BRANCH  21  22
ATOM     22  C   UNL     1       1.024   9.401  18.334  0.00  0.00    +0.000 C 
BRANCH  22  23
ATOM     23  C   UNL     1      -0.297  10.110  18.474  0.00  0.00    +0.000 A 
ATOM     24  C   UNL     1      -1.295   9.939  17.504  0.00  0.00    +0.000 A 
ATOM     25  C   UNL     1      -2.460  10.704  17.555  0.00  0.00    +0.000 A 
ATOM     26  C   UNL     1      -2.639  11.638  18.568  0.00  0.00    +0.000 A 
ATOM     27  C   UNL     1      -1.660  11.802  19.545  0.00  0.00    +0.000 A 
ATOM     28  C   UNL     1      -0.495  11.035  19.502  0.00  0.00    +0.000 A 
ENDBRANCH  22  23
ENDBRANCH  21  22
ENDBRANCH  20  21
ENDBRANCH   4  20
TORSDOF 10
ENDMDL
MODEL 9
REMARK VINA RESULT:      -6.7      5.756      8.173
REMARK  Name = 
REMARK  11 active torsions:
REMARK  status: ('A' for Active; 'I' for Inactive)
REMARK    1  A    between atoms: C_1  and  O_2
REMARK    2  A    between atoms: O_2  and  C_3
REMARK    3  A    between atoms: C_5  and  C_6
REMARK    4  A    between atoms: C_6  and  C_7
REMARK    5  A    between atoms: C_7  and  N_8
REMARK    6  A    between atoms: N_11  and  C_12
REMARK    7  A    between atoms: C_12  and  C_13
REMARK    8  A    between atoms: C_13  and  C_14
REMARK    9  A    between atoms: C_14  and  C_15
REMARK   10  A    between atoms: C_25  and  O_26
REMARK   11  A    between atoms: O_26  and  C_27
REMARK                            x       y       z     vdW  Elec       q    Type
REMARK                         _______ _______ _______ _____ _____    ______ ____
ROOT
ATOM      1  N   UNL     1       2.352   4.511  18.539  0.00  0.00    +0.000 NA
ATOM      2  C   UNL     1       1.666   4.224  19.817  0.00  0.00    +0.000 C 
ATOM      3  C   UNL     1       2.167   5.060  21.017  0.00  0.00    +0.000 C 
ATOM      4  N   UNL     1       2.118   6.520  20.798  0.00  0.00    +0.000 NA
ATOM      5  C   UNL     1       2.833   6.823  19.538  0.00  0.00    +0.000 C 
ATOM      6  C   UNL     1       2.371   5.979  18.321  0.00  0.00    +0.000 C 
ENDROOT
BRANCH   1   7
ATOM      7  C   UNL     1       3.723   3.966  18.491  0.00  0.00    +0.000 C 
BRANCH   7   8
ATOM      8  C   UNL     1       4.035   3.174  17.204  0.00  0.00    +0.000 C 
BRANCH   8  11
ATOM      9  C   UNL     1       6.790   5.590  16.158  0.00  0.00    +0.000 A 
ATOM     10  C   UNL     1       5.744   4.997  16.880  0.00  0.00    +0.000 A 
ATOM     11  C   UNL     1       5.001   3.943  16.335  0.00  0.00    +0.000 A 
ATOM     12  C   UNL     1       5.247   3.546  15.019  0.00  0.00    +0.000 A 
ATOM     13  C   UNL     1       6.236   4.185  14.271  0.00  0.00    +0.000 A 
ATOM     14  C   UNL     1       7.016   5.205  14.829  0.00  0.00    +0.000 A 
BRANCH   9  16
ATOM     15  C   UNL     1       7.585   6.542  18.169  0.00  0.00    +0.000 C 
ATOM     16  O   UNL     1       7.620   6.511  16.740  0.00  0.00    +0.000 OA
ENDBRANCH   9  16
BRANCH  14  17
ATOM     17  O   UNL     1       8.015   5.640  14.001  0.00  0.00    +0.000 OA
BRANCH  17  18
ATOM     18  C   UNL     1       7.914   5.281  12.633  0.00  0.00    +0.000 C 
ATOM     19  F   UNL     1       8.288   6.386  11.924  0.00  0.00    +0.000 F 
ENDBRANCH  17  18
ENDBRANCH  14  17
ENDBRANCH   8  11
ENDBRANCH   7   8
ENDBRANCH   1   7
BRANCH   4  20
ATOM     20  C   UNL     1       0.745   7.052  20.744  0.00  0.00    +0.000 C 
BRANCH  20  21
ATOM     21  C   UNL     1       0.656   8.575  20.824  0.00  0.00    +0.000 C 
BRANCH  21  22
ATOM     22  C   UNL     1       0.592   9.100  22.259  0.00  0.00    +0.000 C 
BRANCH  22  23
ATOM     23  C   UNL     1      -0.105  10.435  22.257  0.00  0.00    +0.000 A 
ATOM     24  C   UNL     1      -1.142  10.689  23.165  0.00  0.00    +0.000 A 
ATOM     25  C   UNL     1      -1.883  11.866  23.069  0.00  0.00    +0.000 A 
ATOM     26  C   UNL     1      -1.596  12.795  22.075  0.00  0.00    +0.000 A 
ATOM     27  C   UNL     1      -0.556  12.557  21.180  0.00  0.00    +0.000 A 
ATOM     28  C   UNL     1       0.193  11.383  21.275  0.00  0.00    +0.000 A 
ENDBRANCH  22  23
ENDBRANCH  21  22
ENDBRANCH  20  21
ENDBRANCH   4  20
TORSDOF 10
ENDMDL
