MODEL 1
REMARK VINA RESULT:      -6.5      0.000      0.000
REMARK  Name = 
REMARK  9 active torsions:
REMARK  status: ('A' for Active; 'I' for Inactive)
REMARK    1  A    between atoms: C_1  and  C_2
REMARK    2  A    between atoms: C_2  and  C_3
REMARK    3  A    between atoms: C_4  and  O_5
REMARK    4  A    between atoms: C_6  and  O_7
REMARK    5  A    between atoms: N_10  and  C_11
REMARK    6  A    between atoms: C_11  and  C_12
REMARK    7  A    between atoms: C_11  and  C_14
REMARK    8  A    between atoms: C_12  and  O_13
REMARK    9  A    between atoms: C_14  and  C_15
REMARK                            x       y       z     vdW  Elec       q    Type
REMARK                         _______ _______ _______ _____ _____    ______ ____
ROOT
ATOM      1  C   UNL     1       4.267   4.527  17.087  0.00  0.00    +0.000 A 
ATOM      2  C   UNL     1       5.535   4.176  16.532  0.00  0.00    +0.000 A 
ATOM      3  C   UNL     1       6.598   5.061  16.547  0.00  0.00    +0.000 A 
ATOM      4  C   UNL     1       6.458   6.286  17.134  0.00  0.00    +0.000 A 
ATOM      5  C   UNL     1       5.228   6.626  17.653  0.00  0.00    +0.000 A 
ATOM      6  N   UNL     1       4.136   5.799  17.628  0.00  0.00    +0.000 N 
ENDROOT
BRANCH   1   8
ATOM      7  C   UNL     1       3.471   2.290  17.980  0.00  0.00    +0.000 C 
ATOM      8  C   UNL     1       3.192   3.465  17.048  0.00  0.00    +0.000 C 
ENDBRANCH   1   8
BRANCH   2   9
ATOM      9  O   UNL     1       5.820   2.969  15.943  0.00  0.00    +0.000 OA
ATOM     10  H   UNL     1       5.407   2.866  15.068  0.00  0.00    +0.000 HD
ENDBRANCH   2   9
BRANCH   3  11
ATOM     11  O   UNL     1       7.798   4.725  16.002  0.00  0.00    +0.000 OA
ATOM     12  H   UNL     1       8.427   4.622  16.746  0.00  0.00    +0.000 HD
ENDBRANCH   3  11
BRANCH   6  13
ATOM     13  C   UNL     1       2.896   6.422  18.285  0.00  0.00    +0.000 C 
BRANCH  13  14
ATOM     14  C   UNL     1       2.704   7.834  17.696  0.00  0.00    +0.000 C 
BRANCH  14  15
ATOM     15  O   UNL     1       1.841   8.591  18.525  0.00  0.00    +0.000 OA
ATOM     16  H   UNL     1       2.232   9.477  18.643  0.00  0.00    +0.000 HD
ENDBRANCH  14  15
ENDBRANCH  13  14
BRANCH  13  17
ATOM     17  C   UNL     1       2.799   6.350  19.812  0.00  0.00    +0.000 C 
BRANCH  17  18
ATOM     18  C   UNL     1       2.241   5.019  20.279  0.00  0.00    +0.000 A 
ATOM     19  C   UNL     1       2.922   4.242  21.226  0.00  0.00    +0.000 A 
ATOM     20  C   UNL     1       2.442   2.976  21.571  0.00  0.00    +0.000 A 
ATOM     21  C   UNL     1       1.285   2.476  20.978  0.00  0.00    +0.000 A 
ATOM     22  C   UNL     1       0.582   3.254  20.062  0.00  0.00    +0.000 A 
ATOM     23  C   UNL     1       1.050   4.523  19.724  0.00  0.00    +0.000 A 
ENDBRANCH  17  18
ENDBRANCH  13  17
ENDBRANCH   6  13
TORSDOF 8
ENDMDL
MODEL 2
REMARK VINA RESULT:      -6.5      0.183      1.093
REMARK  Name = 
REMARK  9 active torsions:
REMARK  status: ('A' for Active; 'I' for Inactive)
REMARK    1  A    between atoms: C_1  and  C_2
REMARK    2  A    between atoms: C_2  and  C_3
REMARK    3  A    between atoms: C_4  and  O_5
REMARK    4  A    between atoms: C_6  and  O_7
REMARK    5  A    between atoms: N_10  and  C_11
REMARK    6  A    between atoms: C_11  and  C_12
REMARK    7  A    between atoms: C_11  and  C_14
REMARK    8  A    between atoms: C_12  and  O_13
REMARK    9  A    between atoms: C_14  and  C_15
REMARK                            x       y       z     vdW  Elec       q    Type
REMARK                         _______ _______ _______ _____ _____    ______ ____
ROOT
ATOM      1  C   UNL     1       4.321   4.474  16.953  0.00  0.00    +0.000 A 
ATOM      2  C   UNL     1       5.575   4.145  16.354  0.00  0.00    +0.000 A 
ATOM      3  C   UNL     1       6.616   5.055  16.315  0.00  0.00    +0.000 A 
ATOM      4  C   UNL     1       6.468   6.285  16.889  0.00  0.00    +0.000 A 
ATOM      5  C   UNL     1       5.251   6.604  17.451  0.00  0.00    +0.000 A 
ATOM      6  N   UNL     1       4.180   5.751  17.481  0.00  0.00    +0.000 N 
ENDROOT
BRANCH   1   8
ATOM      7  C   UNL     1       3.574   2.273  17.970  0.00  0.00    +0.000 C 
ATOM      8  C   UNL     1       3.272   3.386  16.972  0.00  0.00    +0.000 C 
ENDBRANCH   1   8
BRANCH   2   9
ATOM      9  O   UNL     1       5.866   2.936  15.772  0.00  0.00    +0.000 OA
ATOM     10  H   UNL     1       5.101   2.335  15.742  0.00  0.00    +0.000 HD
ENDBRANCH   2   9
BRANCH   3  11
ATOM     11  O   UNL     1       7.801   4.739  15.727  0.00  0.00    +0.000 OA
ATOM     12  H   UNL     1       8.150   3.955  16.202  0.00  0.00    +0.000 HD
ENDBRANCH   3  11
BRANCH   6  13
ATOM     13  C   UNL     1       2.952   6.354  18.177  0.00  0.00    +0.000 C 
BRANCH  13  14
ATOM     14  C   UNL     1       2.742   7.778  17.622  0.00  0.00    +0.000 C 
BRANCH  14  15
ATOM     15  O   UNL     1       2.078   8.578  18.583  0.00  0.00    +0.000 OA
ATOM     16  H   UNL     1       2.670   9.314  18.828  0.00  0.00    +0.000 HD
ENDBRANCH  14  15
ENDBRANCH  13  14
BRANCH  13  17
ATOM     17  C   UNL     1       2.887   6.248  19.704  0.00  0.00    +0.000 C 
BRANCH  17  18
ATOM     18  C   UNL     1       2.316   4.917  20.153  0.00  0.00    +0.000 A 
ATOM     19  C   UNL     1       1.164   4.387  19.558  0.00  0.00    +0.000 A 
ATOM     20  C   UNL     1       0.599   3.207  20.050  0.00  0.00    +0.000 A 
ATOM     21  C   UNL     1       1.176   2.550  21.135  0.00  0.00    +0.000 A 
ATOM     22  C   UNL     1       2.340   3.050  21.712  0.00  0.00    +0.000 A 
ATOM     23  C   UNL     1       2.915   4.221  21.216  0.00  0.00    +0.000 A 
ENDBRANCH  17  18
ENDBRANCH  13  17
ENDBRANCH   6  13
TORSDOF 8
ENDMDL
MODEL 3
REMARK VINA RESULT:      -6.3      2.280      3.842
REMARK  Name = 
REMARK  9 active torsions:
REMARK  status: ('A' for Active; 'I' for Inactive)
REMARK    1  A    between atoms: C_1  and  C_2
REMARK    2  A    between atoms: C_2  and  C_3
REMARK    3  A    between atoms: C_4  and  O_5
REMARK    4  A    between atoms: C_6  and  O_7
REMARK    5  A    between atoms: N_10  and  C_11
REMARK    6  A    between atoms: C_11  and  C_12
REMARK    7  A    between atoms: C_11  and  C_14
REMARK    8  A    between atoms: C_12  and  O_13
REMARK    9  A    between atoms: C_14  and  C_15
REMARK                            x       y       z     vdW  Elec       q    Type
REMARK                         _______ _______ _______ _____ _____    ______ ____
ROOT
ATOM      1  C   UNL     1       5.903   5.185  17.419  0.00  0.00    +0.000 A 
ATOM      2  C   UNL     1       6.836   5.583  16.414  0.00  0.00    +0.000 A 
ATOM      3  C   UNL     1       6.824   5.015  15.152  0.00  0.00    +0.000 A 
ATOM      4  C   UNL     1       5.883   4.077  14.836  0.00  0.00    +0.000 A 
ATOM      5  C   UNL     1       4.996   3.684  15.815  0.00  0.00    +0.000 A 
ATOM      6  N   UNL     1       4.992   4.190  17.087  0.00  0.00    +0.000 N 
ENDROOT
BRANCH   1   8
ATOM      7  C   UNL     1       7.215   5.523  19.564  0.00  0.00    +0.000 C 
ATOM      8  C   UNL     1       5.987   5.905  18.745  0.00  0.00    +0.000 C 
ENDBRANCH   1   8
BRANCH   2   9
ATOM      9  O   UNL     1       7.809   6.536  16.589  0.00  0.00    +0.000 OA
ATOM     10  H   UNL     1       7.672   7.078  17.385  0.00  0.00    +0.000 HD
ENDBRANCH   2   9
BRANCH   3  11
ATOM     11  O   UNL     1       7.727   5.388  14.206  0.00  0.00    +0.000 OA
ATOM     12  H   UNL     1       7.635   4.755  13.464  0.00  0.00    +0.000 HD
ENDBRANCH   3  11
BRANCH   6  13
ATOM     13  C   UNL     1       3.891   3.586  17.971  0.00  0.00    +0.000 C 
BRANCH  13  14
ATOM     14  C   UNL     1       4.019   2.051  17.907  0.00  0.00    +0.000 C 
BRANCH  14  15
ATOM     15  O   UNL     1       2.754   1.452  18.117  0.00  0.00    +0.000 OA
ATOM     16  H   UNL     1       2.351   1.278  17.246  0.00  0.00    +0.000 HD
ENDBRANCH  14  15
ENDBRANCH  13  14
BRANCH  13  17
ATOM     17  C   UNL     1       2.467   4.116  17.779  0.00  0.00    +0.000 C 
BRANCH  17  18
ATOM     18  C   UNL     1       2.216   5.368  18.598  0.00  0.00    +0.000 A 
ATOM     19  C   UNL     1       2.417   6.642  18.052  0.00  0.00    +0.000 A 
ATOM     20  C   UNL     1       2.274   7.779  18.850  0.00  0.00    +0.000 A 
ATOM     21  C   UNL     1       1.930   7.656  20.195  0.00  0.00    +0.000 A 
ATOM     22  C   UNL     1       1.694   6.397  20.739  0.00  0.00    +0.000 A 
ATOM     23  C   UNL     1       1.824   5.259  19.942  0.00  0.00    +0.000 A 
ENDBRANCH  17  18
ENDBRANCH  13  17
ENDBRANCH   6  13
TORSDOF 8
ENDMDL
MODEL 4
REMARK VINA RESULT:      -6.3      2.299      3.827
REMARK  Name = 
REMARK  9 active torsions:
REMARK  status: ('A' for Active; 'I' for Inactive)
REMARK    1  A    between atoms: C_1  and  C_2
REMARK    2  A    between atoms: C_2  and  C_3
REMARK    3  A    between atoms: C_4  and  O_5
REMARK    4  A    between atoms: C_6  and  O_7
REMARK    5  A    between atoms: N_10  and  C_11
REMARK    6  A    between atoms: C_11  and  C_12
REMARK    7  A    between atoms: C_11  and  C_14
REMARK    8  A    between atoms: C_12  and  O_13
REMARK    9  A    between atoms: C_14  and  C_15
REMARK                            x       y       z     vdW  Elec       q    Type
REMARK                         _______ _______ _______ _____ _____    ______ ____
ROOT
ATOM      1  C   UNL     1       5.885   5.231  17.334  0.00  0.00    +0.000 A 
ATOM      2  C   UNL     1       6.822   5.614  16.327  0.00  0.00    +0.000 A 
ATOM      3  C   UNL     1       6.810   5.032  15.072  0.00  0.00    +0.000 A 
ATOM      4  C   UNL     1       5.866   4.096  14.763  0.00  0.00    +0.000 A 
ATOM      5  C   UNL     1       4.974   3.718  15.743  0.00  0.00    +0.000 A 
ATOM      6  N   UNL     1       4.970   4.237  17.011  0.00  0.00    +0.000 N 
ENDROOT
BRANCH   1   8
ATOM      7  C   UNL     1       7.125   5.497  19.531  0.00  0.00    +0.000 C 
ATOM      8  C   UNL     1       5.969   5.964  18.653  0.00  0.00    +0.000 C 
ENDBRANCH   1   8
BRANCH   2   9
ATOM      9  O   UNL     1       7.800   6.563  16.494  0.00  0.00    +0.000 OA
ATOM     10  H   UNL     1       7.918   7.129  15.712  0.00  0.00    +0.000 HD
ENDBRANCH   2   9
BRANCH   3  11
ATOM     11  O   UNL     1       7.717   5.392  14.124  0.00  0.00    +0.000 OA
ATOM     12  H   UNL     1       8.602   5.324  14.541  0.00  0.00    +0.000 HD
ENDBRANCH   3  11
BRANCH   6  13
ATOM     13  C   UNL     1       3.864   3.648  17.897  0.00  0.00    +0.000 C 
BRANCH  13  14
ATOM     14  C   UNL     1       3.910   2.113  17.759  0.00  0.00    +0.000 C 
BRANCH  14  15
ATOM     15  O   UNL     1       4.292   1.527  18.989  0.00  0.00    +0.000 OA
ATOM     16  H   UNL     1       3.515   1.072  19.365  0.00  0.00    +0.000 HD
ENDBRANCH  14  15
ENDBRANCH  13  14
BRANCH  13  17
ATOM     17  C   UNL     1       2.465   4.258  17.774  0.00  0.00    +0.000 C 
BRANCH  17  18
ATOM     18  C   UNL     1       2.312   5.498  18.634  0.00  0.00    +0.000 A 
ATOM     19  C   UNL     1       1.977   5.399  19.991  0.00  0.00    +0.000 A 
ATOM     20  C   UNL     1       1.746   6.554  20.743  0.00  0.00    +0.000 A 
ATOM     21  C   UNL     1       1.846   7.811  20.150  0.00  0.00    +0.000 A 
ATOM     22  C   UNL     1       2.212   7.921  18.812  0.00  0.00    +0.000 A 
ATOM     23  C   UNL     1       2.456   6.771  18.060  0.00  0.00    +0.000 A 
ENDBRANCH  17  18
ENDBRANCH  13  17
ENDBRANCH   6  13
TORSDOF 8
ENDMDL
MODEL 5
REMARK VINA RESULT:      -6.3      1.955      3.147
REMARK  Name = 
REMARK  9 active torsions:
REMARK  status: ('A' for Active; 'I' for Inactive)
REMARK    1  A    between atoms: C_1  and  C_2
REMARK    2  A    between atoms: C_2  and  C_3
REMARK    3  A    between atoms: C_4  and  O_5
REMARK    4  A    between atoms: C_6  and  O_7
REMARK    5  A    between atoms: N_10  and  C_11
REMARK    6  A    between atoms: C_11  and  C_12
REMARK    7  A    between atoms: C_11  and  C_14
REMARK    8  A    between atoms: C_12  and  O_13
REMARK    9  A    between atoms: C_14  and  C_15
REMARK                            x       y       z     vdW  Elec       q    Type
REMARK                         _______ _______ _______ _____ _____    ______ ____
ROOT
ATOM      1  C   UNL     1       6.332   5.812  16.472  0.00  0.00    +0.000 A 
ATOM      2  C   UNL     1       6.828   5.211  15.275  0.00  0.00    +0.000 A 
ATOM      3  C   UNL     1       6.164   4.161  14.666  0.00  0.00    +0.000 A 
ATOM      4  C   UNL     1       4.990   3.703  15.189  0.00  0.00    +0.000 A 
ATOM      5  C   UNL     1       4.524   4.274  16.353  0.00  0.00    +0.000 A 
ATOM      6  N   UNL     1       5.165   5.289  17.013  0.00  0.00    +0.000 N 
ENDROOT
BRANCH   1   8
ATOM      7  C   UNL     1       7.866   6.647  18.312  0.00  0.00    +0.000 C 
ATOM      8  C   UNL     1       7.121   6.977  17.023  0.00  0.00    +0.000 C 
ENDBRANCH   1   8
BRANCH   2   9
ATOM      9  O   UNL     1       7.976   5.597  14.628  0.00  0.00    +0.000 OA
ATOM     10  H   UNL     1       8.691   5.846  15.239  0.00  0.00    +0.000 HD
ENDBRANCH   2   9
BRANCH   3  11
ATOM     11  O   UNL     1       6.652   3.584  13.535  0.00  0.00    +0.000 OA
ATOM     12  H   UNL     1       7.044   4.305  12.998  0.00  0.00    +0.000 HD
ENDBRANCH   3  11
BRANCH   6  13
ATOM     13  C   UNL     1       4.423   5.747  18.277  0.00  0.00    +0.000 C 
BRANCH  13  14
ATOM     14  C   UNL     1       4.869   4.843  19.443  0.00  0.00    +0.000 C 
BRANCH  14  15
ATOM     15  O   UNL     1       5.537   3.700  18.941  0.00  0.00    +0.000 OA
ATOM     16  H   UNL     1       6.491   3.900  18.897  0.00  0.00    +0.000 HD
ENDBRANCH  14  15
ENDBRANCH  13  14
BRANCH  13  17
ATOM     17  C   UNL     1       2.908   5.948  18.169  0.00  0.00    +0.000 C 
BRANCH  17  18
ATOM     18  C   UNL     1       2.142   4.858  18.893  0.00  0.00    +0.000 A 
ATOM     19  C   UNL     1       1.975   4.893  20.283  0.00  0.00    +0.000 A 
ATOM     20  C   UNL     1       1.350   3.832  20.943  0.00  0.00    +0.000 A 
ATOM     21  C   UNL     1       0.888   2.732  20.224  0.00  0.00    +0.000 A 
ATOM     22  C   UNL     1       1.017   2.702  18.839  0.00  0.00    +0.000 A 
ATOM     23  C   UNL     1       1.630   3.765  18.174  0.00  0.00    +0.000 A 
ENDBRANCH  17  18
ENDBRANCH  13  17
ENDBRANCH   6  13
TORSDOF 8
ENDMDL
MODEL 6
REMARK VINA RESULT:      -6.2      1.975      3.346
REMARK  Name = 
REMARK  9 active torsions:
REMARK  status: ('A' for Active; 'I' for Inactive)
REMARK    1  A    between atoms: C_1  and  C_2
REMARK    2  A    between atoms: C_2  and  C_3
REMARK    3  A    between atoms: C_4  and  O_5
REMARK    4  A    between atoms: C_6  and  O_7
REMARK    5  A    between atoms: N_10  and  C_11
REMARK    6  A    between atoms: C_11  and  C_12
REMARK    7  A    between atoms: C_11  and  C_14
REMARK    8  A    between atoms: C_12  and  O_13
REMARK    9  A    between atoms: C_14  and  C_15
REMARK                            x       y       z     vdW  Elec       q    Type
REMARK                         _______ _______ _______ _____ _____    ______ ____
ROOT
ATOM      1  C   UNL     1       6.466   5.799  16.322  0.00  0.00    +0.000 A 
ATOM      2  C   UNL     1       6.937   5.185  15.121  0.00  0.00    +0.000 A 
ATOM      3  C   UNL     1       6.346   4.041  14.616  0.00  0.00    +0.000 A 
ATOM      4  C   UNL     1       5.266   3.495  15.250  0.00  0.00    +0.000 A 
ATOM      5  C   UNL     1       4.826   4.081  16.416  0.00  0.00    +0.000 A 
ATOM      6  N   UNL     1       5.402   5.191  16.975  0.00  0.00    +0.000 N 
ENDROOT
BRANCH   1   8
ATOM      7  C   UNL     1       7.887   6.934  18.091  0.00  0.00    +0.000 C 
ATOM      8  C   UNL     1       7.165   7.067  16.754  0.00  0.00    +0.000 C 
ENDBRANCH   1   8
BRANCH   2   9
ATOM      9  O   UNL     1       7.990   5.648  14.371  0.00  0.00    +0.000 OA
ATOM     10  H   UNL     1       7.920   6.596  14.164  0.00  0.00    +0.000 HD
ENDBRANCH   2   9
BRANCH   3  11
ATOM     11  O   UNL     1       6.811   3.453  13.481  0.00  0.00    +0.000 OA
ATOM     12  H   UNL     1       7.134   2.564  13.737  0.00  0.00    +0.000 HD
ENDBRANCH   3  11
BRANCH   6  13
ATOM     13  C   UNL     1       4.707   5.642  18.268  0.00  0.00    +0.000 C 
BRANCH  13  14
ATOM     14  C   UNL     1       5.072   4.637  19.379  0.00  0.00    +0.000 C 
BRANCH  14  15
ATOM     15  O   UNL     1       6.378   4.901  19.859  0.00  0.00    +0.000 OA
ATOM     16  H   UNL     1       6.424   5.842  20.115  0.00  0.00    +0.000 HD
ENDBRANCH  14  15
ENDBRANCH  13  14
BRANCH  13  17
ATOM     17  C   UNL     1       3.216   5.984  18.182  0.00  0.00    +0.000 C 
BRANCH  17  18
ATOM     18  C   UNL     1       2.353   4.904  18.806  0.00  0.00    +0.000 A 
ATOM     19  C   UNL     1       1.861   3.840  18.039  0.00  0.00    +0.000 A 
ATOM     20  C   UNL     1       0.989   2.908  18.609  0.00  0.00    +0.000 A 
ATOM     21  C   UNL     1       0.602   3.030  19.941  0.00  0.00    +0.000 A 
ATOM     22  C   UNL     1       1.112   4.064  20.721  0.00  0.00    +0.000 A 
ATOM     23  C   UNL     1       1.993   4.989  20.160  0.00  0.00    +0.000 A 
ENDBRANCH  17  18
ENDBRANCH  13  17
ENDBRANCH   6  13
TORSDOF 8
ENDMDL
MODEL 7
REMARK VINA RESULT:      -6.0      2.337      3.794
REMARK  Name = 
REMARK  9 active torsions:
REMARK  status: ('A' for Active; 'I' for Inactive)
REMARK    1  A    between atoms: C_1  and  C_2
REMARK    2  A    between atoms: C_2  and  C_3
REMARK    3  A    between atoms: C_4  and  O_5
REMARK    4  A    between atoms: C_6  and  O_7
REMARK    5  A    between atoms: N_10  and  C_11
REMARK    6  A    between atoms: C_11  and  C_12
REMARK    7  A    between atoms: C_11  and  C_14
REMARK    8  A    between atoms: C_12  and  O_13
REMARK    9  A    between atoms: C_14  and  C_15
REMARK                            x       y       z     vdW  Elec       q    Type
REMARK                         _______ _______ _______ _____ _____    ______ ____
ROOT
ATOM      1  C   UNL     1       5.673   5.238  17.039  0.00  0.00    +0.000 A 
ATOM      2  C   UNL     1       6.858   5.999  17.279  0.00  0.00    +0.000 A 
ATOM      3  C   UNL     1       7.376   6.144  18.553  0.00  0.00    +0.000 A 
ATOM      4  C   UNL     1       6.773   5.523  19.609  0.00  0.00    +0.000 A 
ATOM      5  C   UNL     1       5.622   4.804  19.375  0.00  0.00    +0.000 A 
ATOM      6  N   UNL     1       5.050   4.663  18.139  0.00  0.00    +0.000 N 
ENDROOT
BRANCH   1   8
ATOM      7  C   UNL     1       6.033   4.103  14.799  0.00  0.00    +0.000 C 
ATOM      8  C   UNL     1       5.225   5.117  15.601  0.00  0.00    +0.000 C 
ENDBRANCH   1   8
BRANCH   2   9
ATOM      9  O   UNL     1       7.578   6.645  16.305  0.00  0.00    +0.000 OA
ATOM     10  H   UNL     1       7.145   6.623  15.434  0.00  0.00    +0.000 HD
ENDBRANCH   2   9
BRANCH   3  11
ATOM     11  O   UNL     1       8.496   6.884  18.775  0.00  0.00    +0.000 OA
ATOM     12  H   UNL     1       9.260   6.303  18.579  0.00  0.00    +0.000 HD
ENDBRANCH   3  11
BRANCH   6  13
ATOM     13  C   UNL     1       3.779   3.802  18.159  0.00  0.00    +0.000 C 
BRANCH  13  14
ATOM     14  C   UNL     1       4.056   2.526  17.338  0.00  0.00    +0.000 C 
BRANCH  14  15
ATOM     15  O   UNL     1       3.956   1.385  18.170  0.00  0.00    +0.000 OA
ATOM     16  H   UNL     1       3.882   0.597  17.598  0.00  0.00    +0.000 HD
ENDBRANCH  14  15
ENDBRANCH  13  14
BRANCH  13  17
ATOM     17  C   UNL     1       2.454   4.497  17.832  0.00  0.00    +0.000 C 
BRANCH  17  18
ATOM     18  C   UNL     1       2.274   5.773  18.631  0.00  0.00    +0.000 A 
ATOM     19  C   UNL     1       1.933   5.733  19.989  0.00  0.00    +0.000 A 
ATOM     20  C   UNL     1       1.677   6.918  20.684  0.00  0.00    +0.000 A 
ATOM     21  C   UNL     1       1.758   8.147  20.032  0.00  0.00    +0.000 A 
ATOM     22  C   UNL     1       2.129   8.200  18.692  0.00  0.00    +0.000 A 
ATOM     23  C   UNL     1       2.398   7.020  17.998  0.00  0.00    +0.000 A 
ENDBRANCH  17  18
ENDBRANCH  13  17
ENDBRANCH   6  13
TORSDOF 8
ENDMDL
MODEL 8
REMARK VINA RESULT:      -6.0      2.721      6.491
REMARK  Name = 
REMARK  9 active torsions:
REMARK  status: ('A' for Active; 'I' for Inactive)
REMARK    1  A    between atoms: C_1  and  C_2
REMARK    2  A    between atoms: C_2  and  C_3
REMARK    3  A    between atoms: C_4  and  O_5
REMARK    4  A    between atoms: C_6  and  O_7
REMARK    5  A    between atoms: N_10  and  C_11
REMARK    6  A    between atoms: C_11  and  C_12
REMARK    7  A    between atoms: C_11  and  C_14
REMARK    8  A    between atoms: C_12  and  O_13
REMARK    9  A    between atoms: C_14  and  C_15
REMARK                            x       y       z     vdW  Elec       q    Type
REMARK                         _______ _______ _______ _____ _____    ______ ____
ROOT
ATOM      1  C   UNL     1       3.571   4.847  18.654  0.00  0.00    +0.000 A 
ATOM      2  C   UNL     1       2.474   4.269  19.364  0.00  0.00    +0.000 A 
ATOM      3  C   UNL     1       2.172   2.924  19.255  0.00  0.00    +0.000 A 
ATOM      4  C   UNL     1       2.951   2.111  18.482  0.00  0.00    +0.000 A 
ATOM      5  C   UNL     1       3.997   2.676  17.786  0.00  0.00    +0.000 A 
ATOM      6  N   UNL     1       4.312   4.008  17.833  0.00  0.00    +0.000 N 
ENDROOT
BRANCH   1   8
ATOM      7  C   UNL     1       2.978   7.225  18.000  0.00  0.00    +0.000 C 
ATOM      8  C   UNL     1       3.828   6.318  18.883  0.00  0.00    +0.000 C 
ENDBRANCH   1   8
BRANCH   2   9
ATOM      9  O   UNL     1       1.634   4.966  20.198  0.00  0.00    +0.000 OA
ATOM     10  H   UNL     1       1.283   4.421  20.924  0.00  0.00    +0.000 HD
ENDBRANCH   2   9
BRANCH   3  11
ATOM     11  O   UNL     1       1.116   2.386  19.922  0.00  0.00    +0.000 OA
ATOM     12  H   UNL     1       0.898   1.544  19.471  0.00  0.00    +0.000 HD
ENDBRANCH   3  11
BRANCH   6  13
ATOM     13  C   UNL     1       5.531   4.367  16.971  0.00  0.00    +0.000 C 
BRANCH  13  14
ATOM     14  C   UNL     1       6.671   4.797  17.915  0.00  0.00    +0.000 C 
BRANCH  14  15
ATOM     15  O   UNL     1       7.794   3.954  17.733  0.00  0.00    +0.000 OA
ATOM     16  H   UNL     1       7.537   3.231  17.130  0.00  0.00    +0.000 HD
ENDBRANCH  14  15
ENDBRANCH  13  14
BRANCH  13  17
ATOM     17  C   UNL     1       5.299   5.304  15.782  0.00  0.00    +0.000 C 
BRANCH  17  18
ATOM     18  C   UNL     1       5.954   4.784  14.517  0.00  0.00    +0.000 A 
ATOM     19  C   UNL     1       7.209   5.253  14.108  0.00  0.00    +0.000 A 
ATOM     20  C   UNL     1       7.753   4.834  12.891  0.00  0.00    +0.000 A 
ATOM     21  C   UNL     1       7.052   3.948  12.075  0.00  0.00    +0.000 A 
ATOM     22  C   UNL     1       5.820   3.450  12.488  0.00  0.00    +0.000 A 
ATOM     23  C   UNL     1       5.279   3.856  13.708  0.00  0.00    +0.000 A 
ENDBRANCH  17  18
ENDBRANCH  13  17
ENDBRANCH   6  13
TORSDOF 8
ENDMDL
MODEL 9
REMARK VINA RESULT:      -6.0      2.473      4.217
REMARK  Name = 
REMARK  9 active torsions:
REMARK  status: ('A' for Active; 'I' for Inactive)
REMARK    1  A    between atoms: C_1  and  C_2
REMARK    2  A    between atoms: C_2  and  C_3
REMARK    3  A    between atoms: C_4  and  O_5
REMARK    4  A    between atoms: C_6  and  O_7
REMARK    5  A    between atoms: N_10  and  C_11
REMARK    6  A    between atoms: C_11  and  C_12
REMARK    7  A    between atoms: C_11  and  C_14
REMARK    8  A    between atoms: C_12  and  O_13
REMARK    9  A    between atoms: C_14  and  C_15
REMARK                            x       y       z     vdW  Elec       q    Type
REMARK                         _______ _______ _______ _____ _____    ______ ____
ROOT
ATOM      1  C   UNL     1       6.097   5.916  16.639  0.00  0.00    +0.000 A 
ATOM      2  C   UNL     1       6.676   5.262  15.509  0.00  0.00    +0.000 A 
ATOM      3  C   UNL     1       6.133   4.101  14.990  0.00  0.00    +0.000 A 
ATOM      4  C   UNL     1       4.998   3.576  15.537  0.00  0.00    +0.000 A 
ATOM      5  C   UNL     1       4.452   4.200  16.637  0.00  0.00    +0.000 A 
ATOM      6  N   UNL     1       4.975   5.329  17.210  0.00  0.00    +0.000 N 
ENDROOT
BRANCH   1   8
ATOM      7  C   UNL     1       7.824   6.986  18.158  0.00  0.00    +0.000 C 
ATOM      8  C   UNL     1       6.754   7.199  17.092  0.00  0.00    +0.000 C 
ENDBRANCH   1   8
BRANCH   2   9
ATOM      9  O   UNL     1       7.795   5.702  14.845  0.00  0.00    +0.000 OA
ATOM     10  H   UNL     1       7.882   6.671  14.847  0.00  0.00    +0.000 HD
ENDBRANCH   2   9
BRANCH   3  11
ATOM     11  O   UNL     1       6.701   3.477  13.923  0.00  0.00    +0.000 OA
ATOM     12  H   UNL     1       6.030   2.855  13.571  0.00  0.00    +0.000 HD
ENDBRANCH   3  11
BRANCH   6  13
ATOM     13  C   UNL     1       4.163   5.822  18.416  0.00  0.00    +0.000 C 
BRANCH  13  14
ATOM     14  C   UNL     1       4.537   4.947  19.630  0.00  0.00    +0.000 C 
BRANCH  14  15
ATOM     15  O   UNL     1       5.944   4.889  19.769  0.00  0.00    +0.000 OA
ATOM     16  H   UNL     1       6.271   5.793  19.942  0.00  0.00    +0.000 HD
ENDBRANCH  14  15
ENDBRANCH  13  14
BRANCH  13  17
ATOM     17  C   UNL     1       2.658   6.025  18.216  0.00  0.00    +0.000 C 
BRANCH  17  18
ATOM     18  C   UNL     1       2.207   7.395  18.684  0.00  0.00    +0.000 A 
ATOM     19  C   UNL     1       1.844   7.619  20.019  0.00  0.00    +0.000 A 
ATOM     20  C   UNL     1       1.339   8.861  20.410  0.00  0.00    +0.000 A 
ATOM     21  C   UNL     1       1.192   9.886  19.478  0.00  0.00    +0.000 A 
ATOM     22  C   UNL     1       1.581   9.685  18.157  0.00  0.00    +0.000 A 
ATOM     23  C   UNL     1       2.098   8.450  17.764  0.00  0.00    +0.000 A 
ENDBRANCH  17  18
ENDBRANCH  13  17
ENDBRANCH   6  13
TORSDOF 8
ENDMDL
