MODEL 1
REMARK VINA RESULT:      -7.9      0.000      0.000
REMARK  Name = 
REMARK  4 active torsions:
REMARK  status: ('A' for Active; 'I' for Inactive)
REMARK    1  A    between atoms: N_12  and  N_13
REMARK    2  A    between atoms: C_14  and  C_15
REMARK    3  A    between atoms: C_18  and  O_19
REMARK    4  A    between atoms: C_20  and  O_21
REMARK                            x       y       z     vdW  Elec       q    Type
REMARK                         _______ _______ _______ _____ _____    ______ ____
ROOT
ATOM      1  O   UNL     1       2.577   8.003  17.521  0.00  0.00    +0.000 OA
ATOM      2  C   UNL     1       1.990   8.789  18.232  0.00  0.00    +0.000 C 
ATOM      3  N   UNL     1       1.584  10.062  17.874  0.00  0.00    +0.000 N 
ATOM      4  C   UNL     1       0.931  10.695  18.923  0.00  0.00    +0.000 A 
ATOM      5  C   UNL     1       0.409  11.972  18.922  0.00  0.00    +0.000 A 
ATOM      6  C   UNL     1      -0.200  12.416  20.101  0.00  0.00    +0.000 A 
ATOM      7  C   UNL     1      -0.276  11.579  21.233  0.00  0.00    +0.000 A 
ATOM      8 CL   UNL     1      -1.031  12.173  22.662  0.00  0.00    +0.000 Cl
ATOM      9  C   UNL     1       0.254  10.286  21.220  0.00  0.00    +0.000 A 
ATOM     10  C   UNL     1       0.856   9.873  20.048  0.00  0.00    +0.000 A 
ATOM     11  C   UNL     1       1.526   8.618  19.698  0.00  0.00    +0.000 C 
ATOM     12  N   UNL     1       1.684   7.612  20.500  0.00  0.00    +0.000 NA
ATOM     13  H   UNL     1       1.762  10.447  16.960  0.00  0.00    +0.000 HD
ENDROOT
BRANCH  12  14
ATOM     14  N   UNL     1       2.385   6.568  19.915  0.00  0.00    +0.000 NA
ATOM     15  C   UNL     1       1.785   5.429  20.048  0.00  0.00    +0.000 C 
BRANCH  15  16
ATOM     16  C   UNL     1       2.364   4.183  19.502  0.00  0.00    +0.000 A 
ATOM     17  C   UNL     1       1.759   3.522  18.421  0.00  0.00    +0.000 A 
ATOM     18  C   UNL     1       2.306   2.336  17.922  0.00  0.00    +0.000 A 
ATOM     19  C   UNL     1       3.453   1.820  18.514  0.00  0.00    +0.000 A 
ATOM     20  C   UNL     1       4.054   2.482  19.583  0.00  0.00    +0.000 A 
ATOM     21  C   UNL     1       3.524   3.665  20.084  0.00  0.00    +0.000 A 
BRANCH  19  22
ATOM     22  O   UNL     1       4.029   0.657  18.082  0.00  0.00    +0.000 OA
ATOM     23  H   UNL     1       3.443   0.258  17.416  0.00  0.00    +0.000 HD
ENDBRANCH  19  22
BRANCH  20  24
ATOM     24  O   UNL     1       5.180   1.962  20.156  0.00  0.00    +0.000 OA
ATOM     25  H   UNL     1       5.626   1.483  19.429  0.00  0.00    +0.000 HD
ENDBRANCH  20  24
ENDBRANCH  15  16
ENDBRANCH  12  14
TORSDOF 4
ENDMDL
MODEL 2
REMARK VINA RESULT:      -7.5      0.951      1.446
REMARK  Name = 
REMARK  4 active torsions:
REMARK  status: ('A' for Active; 'I' for Inactive)
REMARK    1  A    between atoms: N_12  and  N_13
REMARK    2  A    between atoms: C_14  and  C_15
REMARK    3  A    between atoms: C_18  and  O_19
REMARK    4  A    between atoms: C_20  and  O_21
REMARK                            x       y       z     vdW  Elec       q    Type
REMARK                         _______ _______ _______ _____ _____    ______ ____
ROOT
ATOM      1  O   UNL     1       2.025   8.499  17.585  0.00  0.00    +0.000 OA
ATOM      2  C   UNL     1       1.475   9.266  18.344  0.00  0.00    +0.000 C 
ATOM      3  N   UNL     1       0.945  10.500  18.011  0.00  0.00    +0.000 N 
ATOM      4  C   UNL     1       0.382  11.121  19.117  0.00  0.00    +0.000 A 
ATOM      5  C   UNL     1      -0.221  12.362  19.151  0.00  0.00    +0.000 A 
ATOM      6  C   UNL     1      -0.714  12.800  20.385  0.00  0.00    +0.000 A 
ATOM      7  C   UNL     1      -0.597  11.994  21.536  0.00  0.00    +0.000 A 
ATOM      8 CL   UNL     1      -1.215  12.581  23.032  0.00  0.00    +0.000 Cl
ATOM      9  C   UNL     1       0.013  10.738  21.487  0.00  0.00    +0.000 A 
ATOM     10  C   UNL     1       0.497  10.329  20.260  0.00  0.00    +0.000 A 
ATOM     11  C   UNL     1       1.202   9.110  19.859  0.00  0.00    +0.000 C 
ATOM     12  N   UNL     1       1.521   8.140  20.658  0.00  0.00    +0.000 NA
ATOM     13  H   UNL     1       0.987  10.868  17.074  0.00  0.00    +0.000 HD
ENDROOT
BRANCH  12  14
ATOM     14  N   UNL     1       2.216   7.126  20.015  0.00  0.00    +0.000 NA
ATOM     15  C   UNL     1       1.824   5.947  20.377  0.00  0.00    +0.000 C 
BRANCH  15  16
ATOM     16  C   UNL     1       2.438   4.724  19.817  0.00  0.00    +0.000 A 
ATOM     17  C   UNL     1       3.823   4.651  19.598  0.00  0.00    +0.000 A 
ATOM     18  C   UNL     1       4.392   3.495  19.054  0.00  0.00    +0.000 A 
ATOM     19  C   UNL     1       3.568   2.423  18.732  0.00  0.00    +0.000 A 
ATOM     20  C   UNL     1       2.194   2.498  18.957  0.00  0.00    +0.000 A 
ATOM     21  C   UNL     1       1.617   3.638  19.502  0.00  0.00    +0.000 A 
BRANCH  19  22
ATOM     22  O   UNL     1       4.061   1.270  18.186  0.00  0.00    +0.000 OA
ATOM     23  H   UNL     1       3.983   0.563  18.850  0.00  0.00    +0.000 HD
ENDBRANCH  19  22
BRANCH  20  24
ATOM     24  O   UNL     1       1.396   1.437  18.633  0.00  0.00    +0.000 OA
ATOM     25  H   UNL     1       0.485   1.762  18.780  0.00  0.00    +0.000 HD
ENDBRANCH  20  24
ENDBRANCH  15  16
ENDBRANCH  12  14
TORSDOF 4
ENDMDL
MODEL 3
REMARK VINA RESULT:      -7.5      8.155      8.637
REMARK  Name = 
REMARK  4 active torsions:
REMARK  status: ('A' for Active; 'I' for Inactive)
REMARK    1  A    between atoms: N_12  and  N_13
REMARK    2  A    between atoms: C_14  and  C_15
REMARK    3  A    between atoms: C_18  and  O_19
REMARK    4  A    between atoms: C_20  and  O_21
REMARK                            x       y       z     vdW  Elec       q    Type
REMARK                         _______ _______ _______ _____ _____    ______ ____
ROOT
ATOM      1  O   UNL     1       9.321  10.636  21.210  0.00  0.00    +0.000 OA
ATOM      2  C   UNL     1       9.599  11.649  20.606  0.00  0.00    +0.000 C 
ATOM      3  N   UNL     1      10.005  12.845  21.168  0.00  0.00    +0.000 N 
ATOM      4  C   UNL     1      10.249  13.802  20.193  0.00  0.00    +0.000 A 
ATOM      5  C   UNL     1      10.653  15.106  20.396  0.00  0.00    +0.000 A 
ATOM      6  C   UNL     1      10.829  15.906  19.262  0.00  0.00    +0.000 A 
ATOM      7  C   UNL     1      10.606  15.386  17.971  0.00  0.00    +0.000 A 
ATOM      8 CL   UNL     1      10.832  16.412  16.606  0.00  0.00    +0.000 Cl
ATOM      9  C   UNL     1      10.200  14.063  17.778  0.00  0.00    +0.000 A 
ATOM     10  C   UNL     1      10.027  13.295  18.913  0.00  0.00    +0.000 A 
ATOM     11  C   UNL     1       9.591  11.906  19.080  0.00  0.00    +0.000 C 
ATOM     12  N   UNL     1       9.262  11.109  18.112  0.00  0.00    +0.000 NA
ATOM     13  H   UNL     1      10.095  12.969  22.165  0.00  0.00    +0.000 HD
ENDROOT
BRANCH  12  14
ATOM     14  N   UNL     1       8.855   9.862  18.563  0.00  0.00    +0.000 NA
ATOM     15  C   UNL     1       8.291   9.158  17.636  0.00  0.00    +0.000 C 
BRANCH  15  16
ATOM     16  C   UNL     1       7.777   7.798  17.904  0.00  0.00    +0.000 A 
ATOM     17  C   UNL     1       6.838   7.203  17.046  0.00  0.00    +0.000 A 
ATOM     18  C   UNL     1       6.345   5.922  17.317  0.00  0.00    +0.000 A 
ATOM     19  C   UNL     1       6.796   5.250  18.447  0.00  0.00    +0.000 A 
ATOM     20  C   UNL     1       7.733   5.843  19.293  0.00  0.00    +0.000 A 
ATOM     21  C   UNL     1       8.234   7.111  19.033  0.00  0.00    +0.000 A 
BRANCH  19  22
ATOM     22  O   UNL     1       6.344   4.001  18.775  0.00  0.00    +0.000 OA
ATOM     23  H   UNL     1       5.378   4.047  18.883  0.00  0.00    +0.000 HD
ENDBRANCH  19  22
BRANCH  20  24
ATOM     24  O   UNL     1       8.164   5.171  20.402  0.00  0.00    +0.000 OA
ATOM     25  H   UNL     1       9.140   5.195  20.339  0.00  0.00    +0.000 HD
ENDBRANCH  20  24
ENDBRANCH  15  16
ENDBRANCH  12  14
TORSDOF 4
ENDMDL
MODEL 4
REMARK VINA RESULT:      -7.5      1.270      1.467
REMARK  Name = 
REMARK  4 active torsions:
REMARK  status: ('A' for Active; 'I' for Inactive)
REMARK    1  A    between atoms: N_12  and  N_13
REMARK    2  A    between atoms: C_14  and  C_15
REMARK    3  A    between atoms: C_18  and  O_19
REMARK    4  A    between atoms: C_20  and  O_21
REMARK                            x       y       z     vdW  Elec       q    Type
REMARK                         _______ _______ _______ _____ _____    ______ ____
ROOT
ATOM      1  O   UNL     1       2.383   8.387  17.815  0.00  0.00    +0.000 OA
ATOM      2  C   UNL     1       1.625   9.158  18.362  0.00  0.00    +0.000 C 
ATOM      3  N   UNL     1       1.090  10.305  17.805  0.00  0.00    +0.000 N 
ATOM      4  C   UNL     1       0.254  10.957  18.701  0.00  0.00    +0.000 A 
ATOM      5  C   UNL     1      -0.432  12.134  18.485  0.00  0.00    +0.000 A 
ATOM      6  C   UNL     1      -1.214  12.622  19.538  0.00  0.00    +0.000 A 
ATOM      7  C   UNL     1      -1.291  11.926  20.761  0.00  0.00    +0.000 A 
ATOM      8 CL   UNL     1      -2.263  12.570  22.029  0.00  0.00    +0.000 Cl
ATOM      9  C   UNL     1      -0.594  10.732  20.966  0.00  0.00    +0.000 A 
ATOM     10  C   UNL     1       0.176  10.274  19.915  0.00  0.00    +0.000 A 
ATOM     11  C   UNL     1       1.041   9.098  19.794  0.00  0.00    +0.000 C 
ATOM     12  N   UNL     1       1.250   8.230  20.733  0.00  0.00    +0.000 NA
ATOM     13  H   UNL     1       1.308  10.599  16.866  0.00  0.00    +0.000 HD
ENDROOT
BRANCH  12  14
ATOM     14  N   UNL     1       2.142   7.238  20.354  0.00  0.00    +0.000 NA
ATOM     15  C   UNL     1       1.774   6.061  20.748  0.00  0.00    +0.000 C 
BRANCH  15  16
ATOM     16  C   UNL     1       2.586   4.861  20.456  0.00  0.00    +0.000 A 
ATOM     17  C   UNL     1       2.301   3.632  21.075  0.00  0.00    +0.000 A 
ATOM     18  C   UNL     1       3.084   2.506  20.803  0.00  0.00    +0.000 A 
ATOM     19  C   UNL     1       4.148   2.621  19.916  0.00  0.00    +0.000 A 
ATOM     20  C   UNL     1       4.424   3.841  19.300  0.00  0.00    +0.000 A 
ATOM     21  C   UNL     1       3.651   4.966  19.556  0.00  0.00    +0.000 A 
BRANCH  19  22
ATOM     22  O   UNL     1       4.959   1.561  19.619  0.00  0.00    +0.000 OA
ATOM     23  H   UNL     1       4.542   0.753  19.965  0.00  0.00    +0.000 HD
ENDBRANCH  19  22
BRANCH  20  24
ATOM     24  O   UNL     1       5.475   3.939  18.432  0.00  0.00    +0.000 OA
ATOM     25  H   UNL     1       5.971   4.726  18.736  0.00  0.00    +0.000 HD
ENDBRANCH  20  24
ENDBRANCH  15  16
ENDBRANCH  12  14
TORSDOF 4
ENDMDL
MODEL 5
REMARK VINA RESULT:      -7.4      4.171      8.545
REMARK  Name = 
REMARK  4 active torsions:
REMARK  status: ('A' for Active; 'I' for Inactive)
REMARK    1  A    between atoms: N_12  and  N_13
REMARK    2  A    between atoms: C_14  and  C_15
REMARK    3  A    between atoms: C_18  and  O_19
REMARK    4  A    between atoms: C_20  and  O_21
REMARK                            x       y       z     vdW  Elec       q    Type
REMARK                         _______ _______ _______ _____ _____    ______ ____
ROOT
ATOM      1  O   UNL     1       1.440   7.501  20.804  0.00  0.00    +0.000 OA
ATOM      2  C   UNL     1       2.207   6.915  20.072  0.00  0.00    +0.000 C 
ATOM      3  N   UNL     1       2.873   5.739  20.367  0.00  0.00    +0.000 N 
ATOM      4  C   UNL     1       3.671   5.333  19.306  0.00  0.00    +0.000 A 
ATOM      5  C   UNL     1       4.480   4.216  19.260  0.00  0.00    +0.000 A 
ATOM      6  C   UNL     1       5.212   4.004  18.087  0.00  0.00    +0.000 A 
ATOM      7  C   UNL     1       5.112   4.899  17.002  0.00  0.00    +0.000 A 
ATOM      8 CL   UNL     1       6.037   4.597  15.582  0.00  0.00    +0.000 Cl
ATOM      9  C   UNL     1       4.286   6.024  17.060  0.00  0.00    +0.000 A 
ATOM     10  C   UNL     1       3.578   6.216  18.231  0.00  0.00    +0.000 A 
ATOM     11  C   UNL     1       2.659   7.282  18.638  0.00  0.00    +0.000 C 
ATOM     12  N   UNL     1       2.341   8.306  17.911  0.00  0.00    +0.000 NA
ATOM     13  H   UNL     1       2.769   5.269  21.252  0.00  0.00    +0.000 HD
ENDROOT
BRANCH  12  14
ATOM     14  N   UNL     1       1.478   9.175  18.562  0.00  0.00    +0.000 NA
ATOM     15  C   UNL     1       0.447   9.483  17.844  0.00  0.00    +0.000 C 
BRANCH  15  16
ATOM     16  C   UNL     1      -0.597  10.402  18.345  0.00  0.00    +0.000 A 
ATOM     17  C   UNL     1      -0.519  10.940  19.640  0.00  0.00    +0.000 A 
ATOM     18  C   UNL     1      -1.520  11.796  20.111  0.00  0.00    +0.000 A 
ATOM     19  C   UNL     1      -2.591  12.104  19.281  0.00  0.00    +0.000 A 
ATOM     20  C   UNL     1      -2.661  11.573  17.994  0.00  0.00    +0.000 A 
ATOM     21  C   UNL     1      -1.672  10.725  17.512  0.00  0.00    +0.000 A 
BRANCH  19  22
ATOM     22  O   UNL     1      -3.607  12.925  19.685  0.00  0.00    +0.000 OA
ATOM     23  H   UNL     1      -4.177  12.424  20.295  0.00  0.00    +0.000 HD
ENDBRANCH  19  22
BRANCH  20  24
ATOM     24  O   UNL     1      -3.722  11.882  17.190  0.00  0.00    +0.000 OA
ATOM     25  H   UNL     1      -3.989  11.027  16.796  0.00  0.00    +0.000 HD
ENDBRANCH  20  24
ENDBRANCH  15  16
ENDBRANCH  12  14
TORSDOF 4
ENDMDL
MODEL 6
REMARK VINA RESULT:      -7.3      8.009      8.583
REMARK  Name = 
REMARK  4 active torsions:
REMARK  status: ('A' for Active; 'I' for Inactive)
REMARK    1  A    between atoms: N_12  and  N_13
REMARK    2  A    between atoms: C_14  and  C_15
REMARK    3  A    between atoms: C_18  and  O_19
REMARK    4  A    between atoms: C_20  and  O_21
REMARK                            x       y       z     vdW  Elec       q    Type
REMARK                         _______ _______ _______ _____ _____    ______ ____
ROOT
ATOM      1  O   UNL     1       9.132  10.503  21.179  0.00  0.00    +0.000 OA
ATOM      2  C   UNL     1       9.449  11.500  20.568  0.00  0.00    +0.000 C 
ATOM      3  N   UNL     1       9.840  12.704  21.123  0.00  0.00    +0.000 N 
ATOM      4  C   UNL     1      10.140  13.637  20.140  0.00  0.00    +0.000 A 
ATOM      5  C   UNL     1      10.548  14.941  20.335  0.00  0.00    +0.000 A 
ATOM      6  C   UNL     1      10.786  15.715  19.193  0.00  0.00    +0.000 A 
ATOM      7  C   UNL     1      10.619  15.169  17.904  0.00  0.00    +0.000 A 
ATOM      8 CL   UNL     1      10.920  16.163  16.530  0.00  0.00    +0.000 Cl
ATOM      9  C   UNL     1      10.209  13.846  17.721  0.00  0.00    +0.000 A 
ATOM     10  C   UNL     1       9.974  13.104  18.862  0.00  0.00    +0.000 A 
ATOM     11  C   UNL     1       9.516  11.724  19.038  0.00  0.00    +0.000 C 
ATOM     12  N   UNL     1       9.225  10.909  18.072  0.00  0.00    +0.000 NA
ATOM     13  H   UNL     1       9.884  12.849  22.119  0.00  0.00    +0.000 HD
ENDROOT
BRANCH  12  14
ATOM     14  N   UNL     1       8.785   9.676  18.530  0.00  0.00    +0.000 NA
ATOM     15  C   UNL     1       8.169   8.997  17.616  0.00  0.00    +0.000 C 
BRANCH  15  16
ATOM     16  C   UNL     1       7.612   7.657  17.893  0.00  0.00    +0.000 A 
ATOM     17  C   UNL     1       8.216   6.808  18.836  0.00  0.00    +0.000 A 
ATOM     18  C   UNL     1       7.690   5.536  19.081  0.00  0.00    +0.000 A 
ATOM     19  C   UNL     1       6.565   5.123  18.376  0.00  0.00    +0.000 A 
ATOM     20  C   UNL     1       5.966   5.970  17.445  0.00  0.00    +0.000 A 
ATOM     21  C   UNL     1       6.474   7.239  17.197  0.00  0.00    +0.000 A 
BRANCH  19  22
ATOM     22  O   UNL     1       6.011   3.886  18.559  0.00  0.00    +0.000 OA
ATOM     23  H   UNL     1       6.634   3.348  19.077  0.00  0.00    +0.000 HD
ENDBRANCH  19  22
BRANCH  20  24
ATOM     24  O   UNL     1       4.862   5.549  16.758  0.00  0.00    +0.000 OA
ATOM     25  H   UNL     1       5.164   4.757  16.270  0.00  0.00    +0.000 HD
ENDBRANCH  20  24
ENDBRANCH  15  16
ENDBRANCH  12  14
TORSDOF 4
ENDMDL
MODEL 7
REMARK VINA RESULT:      -7.3      1.301      1.382
REMARK  Name = 
REMARK  4 active torsions:
REMARK  status: ('A' for Active; 'I' for Inactive)
REMARK    1  A    between atoms: N_12  and  N_13
REMARK    2  A    between atoms: C_14  and  C_15
REMARK    3  A    between atoms: C_18  and  O_19
REMARK    4  A    between atoms: C_20  and  O_21
REMARK                            x       y       z     vdW  Elec       q    Type
REMARK                         _______ _______ _______ _____ _____    ______ ____
ROOT
ATOM      1  O   UNL     1       1.918   9.292  17.494  0.00  0.00    +0.000 OA
ATOM      2  C   UNL     1       1.284   9.913  18.320  0.00  0.00    +0.000 C 
ATOM      3  N   UNL     1       0.645  11.121  18.113  0.00  0.00    +0.000 N 
ATOM      4  C   UNL     1       0.006  11.556  19.266  0.00  0.00    +0.000 A 
ATOM      5  C   UNL     1      -0.713  12.724  19.423  0.00  0.00    +0.000 A 
ATOM      6  C   UNL     1      -1.266  12.970  20.684  0.00  0.00    +0.000 A 
ATOM      7  C   UNL     1      -1.092  12.053  21.740  0.00  0.00    +0.000 A 
ATOM      8 CL   UNL     1      -1.788  12.404  23.275  0.00  0.00    +0.000 Cl
ATOM      9  C   UNL     1      -0.364  10.872  21.567  0.00  0.00    +0.000 A 
ATOM     10  C   UNL     1       0.177  10.654  20.315  0.00  0.00    +0.000 A 
ATOM     11  C   UNL     1       1.003   9.559  19.800  0.00  0.00    +0.000 C 
ATOM     12  N   UNL     1       1.399   8.538  20.493  0.00  0.00    +0.000 NA
ATOM     13  H   UNL     1       0.667  11.597  17.225  0.00  0.00    +0.000 HD
ENDROOT
BRANCH  12  14
ATOM     14  N   UNL     1       2.198   7.674  19.759  0.00  0.00    +0.000 NA
ATOM     15  C   UNL     1       1.781   6.450  19.806  0.00  0.00    +0.000 C 
BRANCH  15  16
ATOM     16  C   UNL     1       2.492   5.364  19.098  0.00  0.00    +0.000 A 
ATOM     17  C   UNL     1       1.841   4.601  18.114  0.00  0.00    +0.000 A 
ATOM     18  C   UNL     1       2.517   3.566  17.460  0.00  0.00    +0.000 A 
ATOM     19  C   UNL     1       3.839   3.302  17.801  0.00  0.00    +0.000 A 
ATOM     20  C   UNL     1       4.482   4.065  18.774  0.00  0.00    +0.000 A 
ATOM     21  C   UNL     1       3.824   5.099  19.427  0.00  0.00    +0.000 A 
BRANCH  19  22
ATOM     22  O   UNL     1       4.551   2.295  17.209  0.00  0.00    +0.000 OA
ATOM     23  H   UNL     1       4.048   1.981  16.438  0.00  0.00    +0.000 HD
ENDBRANCH  19  22
BRANCH  20  24
ATOM     24  O   UNL     1       5.781   3.791  19.101  0.00  0.00    +0.000 OA
ATOM     25  H   UNL     1       6.301   4.135  18.347  0.00  0.00    +0.000 HD
ENDBRANCH  20  24
ENDBRANCH  15  16
ENDBRANCH  12  14
TORSDOF 4
ENDMDL
MODEL 8
REMARK VINA RESULT:      -7.2      1.808      2.282
REMARK  Name = 
REMARK  4 active torsions:
REMARK  status: ('A' for Active; 'I' for Inactive)
REMARK    1  A    between atoms: N_12  and  N_13
REMARK    2  A    between atoms: C_14  and  C_15
REMARK    3  A    between atoms: C_18  and  O_19
REMARK    4  A    between atoms: C_20  and  O_21
REMARK                            x       y       z     vdW  Elec       q    Type
REMARK                         _______ _______ _______ _____ _____    ______ ____
ROOT
ATOM      1  O   UNL     1       1.460   7.118  21.434  0.00  0.00    +0.000 OA
ATOM      2  C   UNL     1       1.061   8.191  21.039  0.00  0.00    +0.000 C 
ATOM      3  N   UNL     1       0.214   9.045  21.721  0.00  0.00    +0.000 N 
ATOM      4  C   UNL     1      -0.042  10.194  20.986  0.00  0.00    +0.000 A 
ATOM      5  C   UNL     1      -0.852  11.249  21.355  0.00  0.00    +0.000 A 
ATOM      6  C   UNL     1      -0.978  12.307  20.448  0.00  0.00    +0.000 A 
ATOM      7  C   UNL     1      -0.294  12.286  19.216  0.00  0.00    +0.000 A 
ATOM      8 CL   UNL     1      -0.484  13.611  18.132  0.00  0.00    +0.000 Cl
ATOM      9  C   UNL     1       0.527  11.214  18.856  0.00  0.00    +0.000 A 
ATOM     10  C   UNL     1       0.630  10.178  19.764  0.00  0.00    +0.000 A 
ATOM     11  C   UNL     1       1.364   8.912  19.703  0.00  0.00    +0.000 C 
ATOM     12  N   UNL     1       2.089   8.521  18.702  0.00  0.00    +0.000 NA
ATOM     13  H   UNL     1      -0.153   8.823  22.633  0.00  0.00    +0.000 HD
ENDROOT
BRANCH  12  14
ATOM     14  N   UNL     1       2.640   7.264  18.902  0.00  0.00    +0.000 NA
ATOM     15  C   UNL     1       2.200   6.388  18.058  0.00  0.00    +0.000 C 
BRANCH  15  16
ATOM     16  C   UNL     1       2.653   4.981  18.098  0.00  0.00    +0.000 A 
ATOM     17  C   UNL     1       1.856   3.953  17.569  0.00  0.00    +0.000 A 
ATOM     18  C   UNL     1       2.287   2.624  17.625  0.00  0.00    +0.000 A 
ATOM     19  C   UNL     1       3.512   2.336  18.215  0.00  0.00    +0.000 A 
ATOM     20  C   UNL     1       4.303   3.360  18.734  0.00  0.00    +0.000 A 
ATOM     21  C   UNL     1       3.890   4.685  18.680  0.00  0.00    +0.000 A 
BRANCH  19  22
ATOM     22  O   UNL     1       3.984   1.056  18.313  0.00  0.00    +0.000 OA
ATOM     23  H   UNL     1       3.785   0.595  17.480  0.00  0.00    +0.000 HD
ENDBRANCH  19  22
BRANCH  20  24
ATOM     24  O   UNL     1       5.504   3.061  19.313  0.00  0.00    +0.000 OA
ATOM     25  H   UNL     1       6.171   3.420  18.694  0.00  0.00    +0.000 HD
ENDBRANCH  20  24
ENDBRANCH  15  16
ENDBRANCH  12  14
TORSDOF 4
ENDMDL
MODEL 9
REMARK VINA RESULT:      -7.1      4.148      8.379
REMARK  Name = 
REMARK  4 active torsions:
REMARK  status: ('A' for Active; 'I' for Inactive)
REMARK    1  A    between atoms: N_12  and  N_13
REMARK    2  A    between atoms: C_14  and  C_15
REMARK    3  A    between atoms: C_18  and  O_19
REMARK    4  A    between atoms: C_20  and  O_21
REMARK                            x       y       z     vdW  Elec       q    Type
REMARK                         _______ _______ _______ _____ _____    ______ ____
ROOT
ATOM      1  O   UNL     1       1.435   7.624  20.740  0.00  0.00    +0.000 OA
ATOM      2  C   UNL     1       2.209   7.029  20.022  0.00  0.00    +0.000 C 
ATOM      3  N   UNL     1       2.860   5.849  20.331  0.00  0.00    +0.000 N 
ATOM      4  C   UNL     1       3.672   5.433  19.285  0.00  0.00    +0.000 A 
ATOM      5  C   UNL     1       4.473   4.310  19.256  0.00  0.00    +0.000 A 
ATOM      6  C   UNL     1       5.222   4.088  18.095  0.00  0.00    +0.000 A 
ATOM      7  C   UNL     1       5.147   4.980  17.006  0.00  0.00    +0.000 A 
ATOM      8 CL   UNL     1       6.093   4.666  15.602  0.00  0.00    +0.000 Cl
ATOM      9  C   UNL     1       4.329   6.113  17.047  0.00  0.00    +0.000 A 
ATOM     10  C   UNL     1       3.604   6.314  18.206  0.00  0.00    +0.000 A 
ATOM     11  C   UNL     1       2.687   7.388  18.595  0.00  0.00    +0.000 C 
ATOM     12  N   UNL     1       2.389   8.413  17.860  0.00  0.00    +0.000 NA
ATOM     13  H   UNL     1       2.738   5.382  21.216  0.00  0.00    +0.000 HD
ENDROOT
BRANCH  12  14
ATOM     14  N   UNL     1       1.522   9.290  18.494  0.00  0.00    +0.000 NA
ATOM     15  C   UNL     1       0.414   9.450  17.846  0.00  0.00    +0.000 C 
BRANCH  15  16
ATOM     16  C   UNL     1      -0.649  10.350  18.343  0.00  0.00    +0.000 A 
ATOM     17  C   UNL     1      -1.872  10.463  17.661  0.00  0.00    +0.000 A 
ATOM     18  C   UNL     1      -2.865  11.328  18.131  0.00  0.00    +0.000 A 
ATOM     19  C   UNL     1      -2.623  12.075  19.278  0.00  0.00    +0.000 A 
ATOM     20  C   UNL     1      -1.410  11.955  19.955  0.00  0.00    +0.000 A 
ATOM     21  C   UNL     1      -0.417  11.095  19.503  0.00  0.00    +0.000 A 
BRANCH  19  22
ATOM     22  O   UNL     1      -3.547  12.948  19.782  0.00  0.00    +0.000 OA
ATOM     23  H   UNL     1      -4.262  13.043  19.128  0.00  0.00    +0.000 HD
ENDBRANCH  19  22
BRANCH  20  24
ATOM     24  O   UNL     1      -1.185  12.697  21.080  0.00  0.00    +0.000 OA
ATOM     25  H   UNL     1      -1.590  12.177  21.803  0.00  0.00    +0.000 HD
ENDBRANCH  20  24
ENDBRANCH  15  16
ENDBRANCH  12  14
TORSDOF 4
ENDMDL
