MODEL 1
REMARK VINA RESULT:      -7.4      0.000      0.000
REMARK  Name = 
REMARK  6 active torsions:
REMARK  status: ('A' for Active; 'I' for Inactive)
REMARK    1  A    between atoms: C_2  and  C_3
REMARK    2  A    between atoms: C_3  and  C_4
REMARK    3  A    between atoms: C_8  and  C_9
REMARK    4  A    between atoms: N_10  and  N_11
REMARK    5  A    between atoms: C_12  and  C_14
REMARK    6  A    between atoms: C_21  and  O_22
REMARK                            x       y       z     vdW  Elec       q    Type
REMARK                         _______ _______ _______ _____ _____    ______ ____
ROOT
ATOM      1  C   UNL     1       8.201  10.026  17.710  0.00  0.00    +0.000 C 
ATOM      2  N   UNL     1       8.321   8.785  18.047  0.00  0.00    +0.000 NA
ENDROOT
BRANCH   1   7
ATOM      3  C   UNL     1       9.681  13.363  18.781  0.00  0.00    +0.000 A 
ATOM      4  C   UNL     1      10.458  12.934  19.869  0.00  0.00    +0.000 A 
ATOM      5  C   UNL     1      10.476  11.590  20.254  0.00  0.00    +0.000 A 
ATOM      6  C   UNL     1       9.730  10.647  19.545  0.00  0.00    +0.000 A 
ATOM      7  C   UNL     1       8.964  11.055  18.449  0.00  0.00    +0.000 A 
ATOM      8  C   UNL     1       8.937  12.409  18.071  0.00  0.00    +0.000 A 
BRANCH   8   9
ATOM      9  O   UNL     1       8.190  12.861  17.012  0.00  0.00    +0.000 OA
ATOM     10  H   UNL     1       7.745  12.092  16.585  0.00  0.00    +0.000 HD
ENDBRANCH   8   9
BRANCH   3  11
ATOM     11  C   UNL     1       9.665  14.826  18.395  0.00  0.00    +0.000 C 
BRANCH  11  13
ATOM     12  C   UNL     1      10.978  16.206  16.749  0.00  0.00    +0.000 C 
ATOM     13  C   UNL     1      10.927  15.273  17.709  0.00  0.00    +0.000 C 
ENDBRANCH  11  13
ENDBRANCH   3  11
ENDBRANCH   1   7
BRANCH   2  14
ATOM     14  N   UNL     1       7.603   7.867  17.356  0.00  0.00    +0.000 N 
ATOM     15  C   UNL     1       7.507   6.585  17.866  0.00  0.00    +0.000 C 
ATOM     16  O   UNL     1       8.018   6.232  18.928  0.00  0.00    +0.000 OA
ATOM     17  H   UNL     1       7.183   8.118  16.468  0.00  0.00    +0.000 HD
BRANCH  15  18
ATOM     18  C   UNL     1       6.681   5.604  17.105  0.00  0.00    +0.000 A 
ATOM     19  C   UNL     1       7.166   5.270  15.825  0.00  0.00    +0.000 A 
ATOM     20  C   UNL     1       6.492   4.359  15.012  0.00  0.00    +0.000 A 
ATOM     21  C   UNL     1       5.319   3.768  15.466  0.00  0.00    +0.000 A 
ATOM     22  C   UNL     1       4.816   4.098  16.724  0.00  0.00    +0.000 A 
ATOM     23  C   UNL     1       5.485   5.018  17.545  0.00  0.00    +0.000 A 
ATOM     24 BR   UNL     1       4.629   5.429  19.193  0.00  0.00    +0.000 Br
ENDBRANCH  15  18
ENDBRANCH   2  14
TORSDOF 6
ENDMDL
MODEL 2
REMARK VINA RESULT:      -7.3      2.463      8.561
REMARK  Name = 
REMARK  6 active torsions:
REMARK  status: ('A' for Active; 'I' for Inactive)
REMARK    1  A    between atoms: C_2  and  C_3
REMARK    2  A    between atoms: C_3  and  C_4
REMARK    3  A    between atoms: C_8  and  C_9
REMARK    4  A    between atoms: N_10  and  N_11
REMARK    5  A    between atoms: C_12  and  C_14
REMARK    6  A    between atoms: C_21  and  O_22
REMARK                            x       y       z     vdW  Elec       q    Type
REMARK                         _______ _______ _______ _____ _____    ______ ____
ROOT
ATOM      1  C   UNL     1       8.061   6.840  18.606  0.00  0.00    +0.000 C 
ATOM      2  N   UNL     1       7.944   8.100  18.349  0.00  0.00    +0.000 NA
ENDROOT
BRANCH   1   7
ATOM      3  C   UNL     1       5.641   4.853  16.446  0.00  0.00    +0.000 A 
ATOM      4  C   UNL     1       4.942   4.166  17.453  0.00  0.00    +0.000 A 
ATOM      5  C   UNL     1       5.272   4.334  18.801  0.00  0.00    +0.000 A 
ATOM      6  C   UNL     1       6.298   5.207  19.167  0.00  0.00    +0.000 A 
ATOM      7  C   UNL     1       6.993   5.911  18.180  0.00  0.00    +0.000 A 
ATOM      8  C   UNL     1       6.667   5.731  16.823  0.00  0.00    +0.000 A 
BRANCH   8   9
ATOM      9  O   UNL     1       7.330   6.387  15.816  0.00  0.00    +0.000 OA
ATOM     10  H   UNL     1       8.199   6.701  16.159  0.00  0.00    +0.000 HD
ENDBRANCH   8   9
BRANCH   3  11
ATOM     11  C   UNL     1       5.275   4.640  14.994  0.00  0.00    +0.000 C 
BRANCH  11  13
ATOM     12  C   UNL     1       6.250   3.593  12.921  0.00  0.00    +0.000 C 
ATOM     13  C   UNL     1       6.284   3.815  14.243  0.00  0.00    +0.000 C 
ENDBRANCH  11  13
ENDBRANCH   3  11
ENDBRANCH   1   7
BRANCH   2  14
ATOM     14  N   UNL     1       8.936   8.927  18.759  0.00  0.00    +0.000 N 
ATOM     15  C   UNL     1       8.915  10.243  18.335  0.00  0.00    +0.000 C 
ATOM     16  O   UNL     1       8.031  10.718  17.623  0.00  0.00    +0.000 OA
ATOM     17  H   UNL     1       9.690   8.566  19.333  0.00  0.00    +0.000 HD
BRANCH  15  18
ATOM     18  C   UNL     1       9.997  11.141  18.830  0.00  0.00    +0.000 A 
ATOM     19  C   UNL     1      11.006  11.444  17.895  0.00  0.00    +0.000 A 
ATOM     20  C   UNL     1      12.073  12.278  18.227  0.00  0.00    +0.000 A 
ATOM     21  C   UNL     1      12.150  12.822  19.504  0.00  0.00    +0.000 A 
ATOM     22  C   UNL     1      11.169  12.521  20.447  0.00  0.00    +0.000 A 
ATOM     23  C   UNL     1      10.096  11.678  20.122  0.00  0.00    +0.000 A 
ATOM     24 BR   UNL     1       8.888  11.293  21.541  0.00  0.00    +0.000 Br
ENDBRANCH  15  18
ENDBRANCH   2  14
TORSDOF 6
ENDMDL
MODEL 3
REMARK VINA RESULT:      -7.3      1.080      1.313
REMARK  Name = 
REMARK  6 active torsions:
REMARK  status: ('A' for Active; 'I' for Inactive)
REMARK    1  A    between atoms: C_2  and  C_3
REMARK    2  A    between atoms: C_3  and  C_4
REMARK    3  A    between atoms: C_8  and  C_9
REMARK    4  A    between atoms: N_10  and  N_11
REMARK    5  A    between atoms: C_12  and  C_14
REMARK    6  A    between atoms: C_21  and  O_22
REMARK                            x       y       z     vdW  Elec       q    Type
REMARK                         _______ _______ _______ _____ _____    ______ ____
ROOT
ATOM      1  C   UNL     1       8.548   9.757  18.069  0.00  0.00    +0.000 C 
ATOM      2  N   UNL     1       8.514   8.496  18.346  0.00  0.00    +0.000 NA
ENDROOT
BRANCH   1   7
ATOM      3  C   UNL     1      11.149  12.256  19.279  0.00  0.00    +0.000 A 
ATOM      4  C   UNL     1      10.780  12.338  20.632  0.00  0.00    +0.000 A 
ATOM      5  C   UNL     1       9.694  11.610  21.127  0.00  0.00    +0.000 A 
ATOM      6  C   UNL     1       8.967  10.773  20.279  0.00  0.00    +0.000 A 
ATOM      7  C   UNL     1       9.330  10.667  18.934  0.00  0.00    +0.000 A 
ATOM      8  C   UNL     1      10.416  11.410  18.435  0.00  0.00    +0.000 A 
BRANCH   8   9
ATOM      9  O   UNL     1      10.802  11.352  17.119  0.00  0.00    +0.000 OA
ATOM     10  H   UNL     1      10.833  12.267  16.755  0.00  0.00    +0.000 HD
ENDBRANCH   8   9
BRANCH   3  11
ATOM     11  C   UNL     1      12.317  13.068  18.765  0.00  0.00    +0.000 C 
BRANCH  11  13
ATOM     12  C   UNL     1      10.880  15.071  18.251  0.00  0.00    +0.000 C 
ATOM     13  C   UNL     1      12.030  14.543  18.693  0.00  0.00    +0.000 C 
ENDBRANCH  11  13
ENDBRANCH   3  11
ENDBRANCH   1   7
BRANCH   2  14
ATOM     14  N   UNL     1       7.783   7.689  17.539  0.00  0.00    +0.000 N 
ATOM     15  C   UNL     1       7.438   6.432  18.002  0.00  0.00    +0.000 C 
ATOM     16  O   UNL     1       7.736   6.009  19.118  0.00  0.00    +0.000 OA
ATOM     17  H   UNL     1       7.533   7.998  16.606  0.00  0.00    +0.000 HD
BRANCH  15  18
ATOM     18  C   UNL     1       6.603   5.578  17.110  0.00  0.00    +0.000 A 
ATOM     19  C   UNL     1       7.096   5.407  15.802  0.00  0.00    +0.000 A 
ATOM     20  C   UNL     1       6.415   4.625  14.868  0.00  0.00    +0.000 A 
ATOM     21  C   UNL     1       5.225   4.004  15.228  0.00  0.00    +0.000 A 
ATOM     22  C   UNL     1       4.714   4.174  16.514  0.00  0.00    +0.000 A 
ATOM     23  C   UNL     1       5.390   4.963  17.456  0.00  0.00    +0.000 A 
ATOM     24 BR   UNL     1       4.522   5.170  19.136  0.00  0.00    +0.000 Br
ENDBRANCH  15  18
ENDBRANCH   2  14
TORSDOF 6
ENDMDL
MODEL 4
REMARK VINA RESULT:      -7.1      2.670      8.645
REMARK  Name = 
REMARK  6 active torsions:
REMARK  status: ('A' for Active; 'I' for Inactive)
REMARK    1  A    between atoms: C_2  and  C_3
REMARK    2  A    between atoms: C_3  and  C_4
REMARK    3  A    between atoms: C_8  and  C_9
REMARK    4  A    between atoms: N_10  and  N_11
REMARK    5  A    between atoms: C_12  and  C_14
REMARK    6  A    between atoms: C_21  and  O_22
REMARK                            x       y       z     vdW  Elec       q    Type
REMARK                         _______ _______ _______ _____ _____    ______ ____
ROOT
ATOM      1  C   UNL     1       7.804   8.340  17.388  0.00  0.00    +0.000 C 
ATOM      2  N   UNL     1       8.387   9.063  18.285  0.00  0.00    +0.000 NA
ENDROOT
BRANCH   1   7
ATOM      3  C   UNL     1       5.709   5.165  17.427  0.00  0.00    +0.000 A 
ATOM      4  C   UNL     1       6.265   4.534  18.552  0.00  0.00    +0.000 A 
ATOM      5  C   UNL     1       7.315   5.125  19.262  0.00  0.00    +0.000 A 
ATOM      6  C   UNL     1       7.815   6.368  18.870  0.00  0.00    +0.000 A 
ATOM      7  C   UNL     1       7.261   7.017  17.763  0.00  0.00    +0.000 A 
ATOM      8  C   UNL     1       6.214   6.416  17.042  0.00  0.00    +0.000 A 
BRANCH   8   9
ATOM      9  O   UNL     1       5.648   7.006  15.940  0.00  0.00    +0.000 OA
ATOM     10  H   UNL     1       5.791   6.424  15.157  0.00  0.00    +0.000 HD
ENDBRANCH   8   9
BRANCH   3  11
ATOM     11  C   UNL     1       4.586   4.497  16.666  0.00  0.00    +0.000 C 
BRANCH  11  13
ATOM     12  C   UNL     1       2.610   5.315  17.996  0.00  0.00    +0.000 C 
ATOM     13  C   UNL     1       3.339   4.312  17.487  0.00  0.00    +0.000 C 
ENDBRANCH  11  13
ENDBRANCH   3  11
ENDBRANCH   1   7
BRANCH   2  14
ATOM     14  N   UNL     1       8.881  10.268  17.908  0.00  0.00    +0.000 N 
ATOM     15  C   UNL     1       9.511  11.049  18.859  0.00  0.00    +0.000 C 
ATOM     16  O   UNL     1       9.673  10.703  20.029  0.00  0.00    +0.000 OA
ATOM     17  H   UNL     1       8.750  10.592  16.956  0.00  0.00    +0.000 HD
BRANCH  15  18
ATOM     18  C   UNL     1      10.077  12.353  18.411  0.00  0.00    +0.000 A 
ATOM     19  C   UNL     1      11.072  12.270  17.416  0.00  0.00    +0.000 A 
ATOM     20  C   UNL     1      11.678  13.416  16.903  0.00  0.00    +0.000 A 
ATOM     21  C   UNL     1      11.302  14.667  17.379  0.00  0.00    +0.000 A 
ATOM     22  C   UNL     1      10.330  14.767  18.374  0.00  0.00    +0.000 A 
ATOM     23  C   UNL     1       9.720  13.618  18.899  0.00  0.00    +0.000 A 
ATOM     24 BR   UNL     1       8.479  13.914  20.310  0.00  0.00    +0.000 Br
ENDBRANCH  15  18
ENDBRANCH   2  14
TORSDOF 6
ENDMDL
MODEL 5
REMARK VINA RESULT:      -7.1      2.563      8.618
REMARK  Name = 
REMARK  6 active torsions:
REMARK  status: ('A' for Active; 'I' for Inactive)
REMARK    1  A    between atoms: C_2  and  C_3
REMARK    2  A    between atoms: C_3  and  C_4
REMARK    3  A    between atoms: C_8  and  C_9
REMARK    4  A    between atoms: N_10  and  N_11
REMARK    5  A    between atoms: C_12  and  C_14
REMARK    6  A    between atoms: C_21  and  O_22
REMARK                            x       y       z     vdW  Elec       q    Type
REMARK                         _______ _______ _______ _____ _____    ______ ____
ROOT
ATOM      1  C   UNL     1       7.788   8.680  17.460  0.00  0.00    +0.000 C 
ATOM      2  N   UNL     1       8.486   9.360  18.308  0.00  0.00    +0.000 NA
ENDROOT
BRANCH   1   7
ATOM      3  C   UNL     1       6.136   5.255  17.354  0.00  0.00    +0.000 A 
ATOM      4  C   UNL     1       6.783   4.651  18.444  0.00  0.00    +0.000 A 
ATOM      5  C   UNL     1       7.751   5.343  19.179  0.00  0.00    +0.000 A 
ATOM      6  C   UNL     1       8.076   6.659  18.846  0.00  0.00    +0.000 A 
ATOM      7  C   UNL     1       7.431   7.280  17.773  0.00  0.00    +0.000 A 
ATOM      8  C   UNL     1       6.466   6.578  17.027  0.00  0.00    +0.000 A 
BRANCH   8   9
ATOM      9  O   UNL     1       5.816   7.139  15.957  0.00  0.00    +0.000 OA
ATOM     10  H   UNL     1       5.234   6.459  15.545  0.00  0.00    +0.000 HD
ENDBRANCH   8   9
BRANCH   3  11
ATOM     11  C   UNL     1       5.105   4.479  16.564  0.00  0.00    +0.000 C 
BRANCH  11  13
ATOM     12  C   UNL     1       6.233   4.063  14.351  0.00  0.00    +0.000 C 
ATOM     13  C   UNL     1       5.708   3.607  15.497  0.00  0.00    +0.000 C 
ENDBRANCH  11  13
ENDBRANCH   3  11
ENDBRANCH   1   7
BRANCH   2  14
ATOM     14  N   UNL     1       8.803  10.638  17.989  0.00  0.00    +0.000 N 
ATOM     15  C   UNL     1       9.711  11.311  18.787  0.00  0.00    +0.000 C 
ATOM     16  O   UNL     1      10.268  10.808  19.762  0.00  0.00    +0.000 OA
ATOM     17  H   UNL     1       8.351  11.090  17.202  0.00  0.00    +0.000 HD
BRANCH  15  18
ATOM     18  C   UNL     1      10.071  12.703  18.393  0.00  0.00    +0.000 A 
ATOM     19  C   UNL     1      10.965  12.812  17.311  0.00  0.00    +0.000 A 
ATOM     20  C   UNL     1      11.378  14.058  16.837  0.00  0.00    +0.000 A 
ATOM     21  C   UNL     1      10.904  15.216  17.441  0.00  0.00    +0.000 A 
ATOM     22  C   UNL     1      10.030  15.127  18.524  0.00  0.00    +0.000 A 
ATOM     23  C   UNL     1       9.615  13.878  19.009  0.00  0.00    +0.000 A 
ATOM     24 BR   UNL     1       8.492  13.920  20.544  0.00  0.00    +0.000 Br
ENDBRANCH  15  18
ENDBRANCH   2  14
TORSDOF 6
ENDMDL
MODEL 6
REMARK VINA RESULT:      -7.1      2.453      8.935
REMARK  Name = 
REMARK  6 active torsions:
REMARK  status: ('A' for Active; 'I' for Inactive)
REMARK    1  A    between atoms: C_2  and  C_3
REMARK    2  A    between atoms: C_3  and  C_4
REMARK    3  A    between atoms: C_8  and  C_9
REMARK    4  A    between atoms: N_10  and  N_11
REMARK    5  A    between atoms: C_12  and  C_14
REMARK    6  A    between atoms: C_21  and  O_22
REMARK                            x       y       z     vdW  Elec       q    Type
REMARK                         _______ _______ _______ _____ _____    ______ ____
ROOT
ATOM      1  C   UNL     1       7.851   7.267  18.258  0.00  0.00    +0.000 C 
ATOM      2  N   UNL     1       7.847   8.527  17.978  0.00  0.00    +0.000 NA
ENDROOT
BRANCH   1   7
ATOM      3  C   UNL     1       5.144   4.595  18.171  0.00  0.00    +0.000 A 
ATOM      4  C   UNL     1       4.612   4.846  16.895  0.00  0.00    +0.000 A 
ATOM      5  C   UNL     1       5.114   5.879  16.097  0.00  0.00    +0.000 A 
ATOM      6  C   UNL     1       6.170   6.669  16.554  0.00  0.00    +0.000 A 
ATOM      7  C   UNL     1       6.722   6.422  17.814  0.00  0.00    +0.000 A 
ATOM      8  C   UNL     1       6.208   5.391  18.621  0.00  0.00    +0.000 A 
BRANCH   8   9
ATOM      9  O   UNL     1       6.706   5.120  19.871  0.00  0.00    +0.000 OA
ATOM     10  H   UNL     1       7.565   4.646  19.776  0.00  0.00    +0.000 HD
ENDBRANCH   8   9
BRANCH   3  11
ATOM     11  C   UNL     1       4.572   3.484  19.022  0.00  0.00    +0.000 C 
BRANCH  11  13
ATOM     12  C   UNL     1       2.067   3.549  19.271  0.00  0.00    +0.000 C 
ATOM     13  C   UNL     1       3.292   3.865  19.714  0.00  0.00    +0.000 C 
ENDBRANCH  11  13
ENDBRANCH   3  11
ENDBRANCH   1   7
BRANCH   2  14
ATOM     14  N   UNL     1       8.893   9.276  18.405  0.00  0.00    +0.000 N 
ATOM     15  C   UNL     1       8.882  10.634  18.143  0.00  0.00    +0.000 C 
ATOM     16  O   UNL     1       7.962  11.211  17.564  0.00  0.00    +0.000 OA
ATOM     17  H   UNL     1       9.676   8.832  18.871  0.00  0.00    +0.000 HD
BRANCH  15  18
ATOM     18  C   UNL     1      10.026  11.441  18.656  0.00  0.00    +0.000 A 
ATOM     19  C   UNL     1      11.028  11.736  17.711  0.00  0.00    +0.000 A 
ATOM     20  C   UNL     1      12.150  12.489  18.058  0.00  0.00    +0.000 A 
ATOM     21  C   UNL     1      12.288  12.959  19.359  0.00  0.00    +0.000 A 
ATOM     22  C   UNL     1      11.313  12.664  20.311  0.00  0.00    +0.000 A 
ATOM     23  C   UNL     1      10.185  11.902  19.971  0.00  0.00    +0.000 A 
ATOM     24 BR   UNL     1       8.991  11.512  21.399  0.00  0.00    +0.000 Br
ENDBRANCH  15  18
ENDBRANCH   2  14
TORSDOF 6
ENDMDL
MODEL 7
REMARK VINA RESULT:      -7.1      1.319      1.774
REMARK  Name = 
REMARK  6 active torsions:
REMARK  status: ('A' for Active; 'I' for Inactive)
REMARK    1  A    between atoms: C_2  and  C_3
REMARK    2  A    between atoms: C_3  and  C_4
REMARK    3  A    between atoms: C_8  and  C_9
REMARK    4  A    between atoms: N_10  and  N_11
REMARK    5  A    between atoms: C_12  and  C_14
REMARK    6  A    between atoms: C_21  and  O_22
REMARK                            x       y       z     vdW  Elec       q    Type
REMARK                         _______ _______ _______ _____ _____    ______ ____
ROOT
ATOM      1  C   UNL     1       7.894   9.898  18.030  0.00  0.00    +0.000 C 
ATOM      2  N   UNL     1       8.226   8.729  17.594  0.00  0.00    +0.000 NA
ENDROOT
BRANCH   1   7
ATOM      3  C   UNL     1       9.948  13.099  18.126  0.00  0.00    +0.000 A 
ATOM      4  C   UNL     1      11.002  12.673  18.951  0.00  0.00    +0.000 A 
ATOM      5  C   UNL     1      11.025  11.379  19.479  0.00  0.00    +0.000 A 
ATOM      6  C   UNL     1      10.000  10.480  19.176  0.00  0.00    +0.000 A 
ATOM      7  C   UNL     1       8.952  10.882  18.343  0.00  0.00    +0.000 A 
ATOM      8  C   UNL     1       8.925  12.189  17.823  0.00  0.00    +0.000 A 
BRANCH   8   9
ATOM      9  O   UNL     1       7.910  12.635  17.014  0.00  0.00    +0.000 OA
ATOM     10  H   UNL     1       7.704  13.570  17.248  0.00  0.00    +0.000 HD
ENDBRANCH   8   9
BRANCH   3  11
ATOM     11  C   UNL     1       9.938  14.510  17.582  0.00  0.00    +0.000 C 
BRANCH  11  13
ATOM     12  C   UNL     1      11.751  16.187  17.090  0.00  0.00    +0.000 C 
ATOM     13  C   UNL     1      11.267  14.939  17.022  0.00  0.00    +0.000 C 
ENDBRANCH  11  13
ENDBRANCH   3  11
ENDBRANCH   1   7
BRANCH   2  14
ATOM     14  N   UNL     1       7.234   7.847  17.322  0.00  0.00    +0.000 N 
ATOM     15  C   UNL     1       7.226   6.637  17.992  0.00  0.00    +0.000 C 
ATOM     16  O   UNL     1       8.057   6.321  18.843  0.00  0.00    +0.000 OA
ATOM     17  H   UNL     1       6.541   8.067  16.615  0.00  0.00    +0.000 HD
BRANCH  15  18
ATOM     18  C   UNL     1       6.103   5.700  17.703  0.00  0.00    +0.000 A 
ATOM     19  C   UNL     1       5.160   5.547  18.738  0.00  0.00    +0.000 A 
ATOM     20  C   UNL     1       4.057   4.706  18.594  0.00  0.00    +0.000 A 
ATOM     21  C   UNL     1       3.880   4.000  17.410  0.00  0.00    +0.000 A 
ATOM     22  C   UNL     1       4.811   4.127  16.380  0.00  0.00    +0.000 A 
ATOM     23  C   UNL     1       5.926   4.967  16.520  0.00  0.00    +0.000 A 
ATOM     24 BR   UNL     1       7.149   4.965  15.063  0.00  0.00    +0.000 Br
ENDBRANCH  15  18
ENDBRANCH   2  14
TORSDOF 6
ENDMDL
MODEL 8
REMARK VINA RESULT:      -6.9      7.069      8.421
REMARK  Name = 
REMARK  6 active torsions:
REMARK  status: ('A' for Active; 'I' for Inactive)
REMARK    1  A    between atoms: C_2  and  C_3
REMARK    2  A    between atoms: C_3  and  C_4
REMARK    3  A    between atoms: C_8  and  C_9
REMARK    4  A    between atoms: N_10  and  N_11
REMARK    5  A    between atoms: C_12  and  C_14
REMARK    6  A    between atoms: C_21  and  O_22
REMARK                            x       y       z     vdW  Elec       q    Type
REMARK                         _______ _______ _______ _____ _____    ______ ____
ROOT
ATOM      1  C   UNL     1       0.679   9.626  17.843  0.00  0.00    +0.000 C 
ATOM      2  N   UNL     1       1.507   8.919  18.537  0.00  0.00    +0.000 NA
ENDROOT
BRANCH   1   7
ATOM      3  C   UNL     1      -0.925  11.943  20.399  0.00  0.00    +0.000 A 
ATOM      4  C   UNL     1      -2.194  12.088  19.816  0.00  0.00    +0.000 A 
ATOM      5  C   UNL     1      -2.506  11.461  18.606  0.00  0.00    +0.000 A 
ATOM      6  C   UNL     1      -1.557  10.662  17.966  0.00  0.00    +0.000 A 
ATOM      7  C   UNL     1      -0.295  10.494  18.540  0.00  0.00    +0.000 A 
ATOM      8  C   UNL     1       0.022  11.136  19.751  0.00  0.00    +0.000 A 
BRANCH   8   9
ATOM      9  O   UNL     1       1.252  11.014  20.347  0.00  0.00    +0.000 OA
ATOM     10  H   UNL     1       1.847  10.503  19.749  0.00  0.00    +0.000 HD
ENDBRANCH   8   9
BRANCH   3  11
ATOM     11  C   UNL     1      -0.606  12.647  21.700  0.00  0.00    +0.000 C 
BRANCH  11  13
ATOM     12  C   UNL     1      -1.091  10.636  23.137  0.00  0.00    +0.000 C 
ATOM     13  C   UNL     1      -1.180  11.953  22.905  0.00  0.00    +0.000 C 
ENDBRANCH  11  13
ENDBRANCH   3  11
ENDBRANCH   1   7
BRANCH   2  14
ATOM     14  N   UNL     1       2.381   8.128  17.869  0.00  0.00    +0.000 N 
ATOM     15  C   UNL     1       2.840   6.980  18.491  0.00  0.00    +0.000 C 
ATOM     16  O   UNL     1       2.480   6.619  19.611  0.00  0.00    +0.000 OA
ATOM     17  H   UNL     1       2.712   8.403  16.951  0.00  0.00    +0.000 HD
BRANCH  15  18
ATOM     18  C   UNL     1       3.772   6.109  17.720  0.00  0.00    +0.000 A 
ATOM     19  C   UNL     1       4.941   6.740  17.251  0.00  0.00    +0.000 A 
ATOM     20  C   UNL     1       5.901   6.037  16.523  0.00  0.00    +0.000 A 
ATOM     21  C   UNL     1       5.705   4.689  16.249  0.00  0.00    +0.000 A 
ATOM     22  C   UNL     1       4.547   4.051  16.692  0.00  0.00    +0.000 A 
ATOM     23  C   UNL     1       3.575   4.753  17.420  0.00  0.00    +0.000 A 
ATOM     24 BR   UNL     1       2.014   3.767  17.877  0.00  0.00    +0.000 Br
ENDBRANCH  15  18
ENDBRANCH   2  14
TORSDOF 6
ENDMDL
MODEL 9
REMARK VINA RESULT:      -6.9      6.797      9.666
REMARK  Name = 
REMARK  6 active torsions:
REMARK  status: ('A' for Active; 'I' for Inactive)
REMARK    1  A    between atoms: C_2  and  C_3
REMARK    2  A    between atoms: C_3  and  C_4
REMARK    3  A    between atoms: C_8  and  C_9
REMARK    4  A    between atoms: N_10  and  N_11
REMARK    5  A    between atoms: C_12  and  C_14
REMARK    6  A    between atoms: C_21  and  O_22
REMARK                            x       y       z     vdW  Elec       q    Type
REMARK                         _______ _______ _______ _____ _____    ______ ____
ROOT
ATOM      1  C   UNL     1       2.520   6.248  19.617  0.00  0.00    +0.000 C 
ATOM      2  N   UNL     1       2.194   7.442  19.250  0.00  0.00    +0.000 NA
ENDROOT
BRANCH   1   7
ATOM      3  C   UNL     1       4.578   4.853  16.737  0.00  0.00    +0.000 A 
ATOM      4  C   UNL     1       4.144   3.518  16.768  0.00  0.00    +0.000 A 
ATOM      5  C   UNL     1       3.220   3.083  17.723  0.00  0.00    +0.000 A 
ATOM      6  C   UNL     1       2.699   3.983  18.654  0.00  0.00    +0.000 A 
ATOM      7  C   UNL     1       3.107   5.320  18.627  0.00  0.00    +0.000 A 
ATOM      8  C   UNL     1       4.047   5.752  17.674  0.00  0.00    +0.000 A 
BRANCH   8   9
ATOM      9  O   UNL     1       4.490   7.050  17.617  0.00  0.00    +0.000 OA
ATOM     10  H   UNL     1       4.361   7.391  16.701  0.00  0.00    +0.000 HD
ENDBRANCH   8   9
BRANCH   3  11
ATOM     11  C   UNL     1       5.592   5.294  15.705  0.00  0.00    +0.000 C 
BRANCH  11  13
ATOM     12  C   UNL     1       7.431   4.591  17.276  0.00  0.00    +0.000 C 
ATOM     13  C   UNL     1       6.999   4.879  16.041  0.00  0.00    +0.000 C 
ENDBRANCH  11  13
ENDBRANCH   3  11
ENDBRANCH   1   7
BRANCH   2  14
ATOM     14  N   UNL     1       1.652   8.267  20.179  0.00  0.00    +0.000 N 
ATOM     15  C   UNL     1       0.920   9.357  19.745  0.00  0.00    +0.000 C 
ATOM     16  O   UNL     1       0.710   9.612  18.559  0.00  0.00    +0.000 OA
ATOM     17  H   UNL     1       1.818   8.097  21.164  0.00  0.00    +0.000 HD
BRANCH  15  18
ATOM     18  C   UNL     1       0.304  10.228  20.787  0.00  0.00    +0.000 A 
ATOM     19  C   UNL     1      -0.238   9.551  21.896  0.00  0.00    +0.000 A 
ATOM     20  C   UNL     1      -0.838  10.247  22.946  0.00  0.00    +0.000 A 
ATOM     21  C   UNL     1      -0.908  11.634  22.901  0.00  0.00    +0.000 A 
ATOM     22  C   UNL     1      -0.390  12.320  21.803  0.00  0.00    +0.000 A 
ATOM     23  C   UNL     1       0.209  11.626  20.741  0.00  0.00    +0.000 A 
ATOM     24 BR   UNL     1       0.788  12.696  19.278  0.00  0.00    +0.000 Br
ENDBRANCH  15  18
ENDBRANCH   2  14
TORSDOF 6
ENDMDL
