MODEL 1
REMARK VINA RESULT:      -8.4      0.000      0.000
REMARK  Name = 
REMARK  8 active torsions:
REMARK  status: ('A' for Active; 'I' for Inactive)
REMARK    1  A    between atoms: C_1  and  S_2
REMARK    2  A    between atoms: S_2  and  C_3
REMARK    3  A    between atoms: C_6  and  C_7
REMARK    4  A    between atoms: C_7  and  N_8
REMARK    5  A    between atoms: C_11  and  C_12
REMARK    6  A    between atoms: N_14  and  C_15
REMARK    7  A    between atoms: C_15  and  C_16
REMARK    8  A    between atoms: C_19  and  C_20
REMARK                            x       y       z     vdW  Elec       q    Type
REMARK                         _______ _______ _______ _____ _____    ______ ____
ROOT
ATOM      1  N   UNL     1       5.005   4.641  18.283  0.00  0.00    +0.000 NA
ATOM      2  C   UNL     1       5.804   4.593  17.058  0.00  0.00    +0.000 C 
ATOM      3  C   UNL     1       7.316   4.553  17.288  0.00  0.00    +0.000 C 
ATOM      4  C   UNL     1       7.776   5.666  18.229  0.00  0.00    +0.000 C 
ATOM      5  C   UNL     1       7.000   5.521  19.542  0.00  0.00    +0.000 C 
ATOM      6  C   UNL     1       5.484   5.557  19.321  0.00  0.00    +0.000 C 
ENDROOT
BRANCH   4   7
ATOM      7  C   UNL     1       7.629   7.076  17.643  0.00  0.00    +0.000 C 
ATOM      8  O   UNL     1       6.975   7.313  16.632  0.00  0.00    +0.000 OA
ATOM      9  N   UNL     1       8.246   8.074  18.365  0.00  0.00    +0.000 N 
ATOM     10  H   UNL     1       8.527   7.890  19.319  0.00  0.00    +0.000 HD
BRANCH   9  11
ATOM     11  C   UNL     1       8.085   9.455  17.967  0.00  0.00    +0.000 C 
BRANCH  11  12
ATOM     12  C   UNL     1       9.209  10.320  18.468  0.00  0.00    +0.000 A 
ATOM     13  C   UNL     1      10.104  10.901  17.555  0.00  0.00    +0.000 A 
ATOM     14  C   UNL     1      11.119  11.751  18.000  0.00  0.00    +0.000 A 
ATOM     15  C   UNL     1      11.265  12.030  19.358  0.00  0.00    +0.000 A 
ATOM     16  C   UNL     1      12.325  12.982  19.837  0.00  0.00    +0.000 C 
ATOM     17  C   UNL     1      10.395  11.431  20.276  0.00  0.00    +0.000 A 
ATOM     18  C   UNL     1       9.375  10.579  19.832  0.00  0.00    +0.000 A 
ENDBRANCH  11  12
ENDBRANCH   9  11
ENDBRANCH   4   7
BRANCH   1  19
ATOM     19  C   UNL     1       3.557   4.810  18.018  0.00  0.00    +0.000 C 
BRANCH  19  23
ATOM     20  C   UNL     1       1.612   8.240  19.865  0.00  0.00    +0.000 A 
ATOM     21  C   UNL     1       2.129   8.328  18.571  0.00  0.00    +0.000 A 
ATOM     22  C   UNL     1       2.737   7.216  17.975  0.00  0.00    +0.000 A 
ATOM     23  C   UNL     1       2.859   6.000  18.667  0.00  0.00    +0.000 A 
ATOM     24  C   UNL     1       2.331   5.921  19.963  0.00  0.00    +0.000 A 
ATOM     25  C   UNL     1       1.720   7.033  20.559  0.00  0.00    +0.000 A 
BRANCH  20  27
ATOM     26  C   UNL     1       0.637  10.735  19.231  0.00  0.00    +0.000 C 
ATOM     27  S   UNL     1       0.877   9.654  20.666  0.00  0.00    +0.000 S 
ENDBRANCH  20  27
ENDBRANCH  19  23
ENDBRANCH   1  19
TORSDOF 6
ENDMDL
MODEL 2
REMARK VINA RESULT:      -8.3      3.098      5.057
REMARK  Name = 
REMARK  8 active torsions:
REMARK  status: ('A' for Active; 'I' for Inactive)
REMARK    1  A    between atoms: C_1  and  S_2
REMARK    2  A    between atoms: S_2  and  C_3
REMARK    3  A    between atoms: C_6  and  C_7
REMARK    4  A    between atoms: C_7  and  N_8
REMARK    5  A    between atoms: C_11  and  C_12
REMARK    6  A    between atoms: N_14  and  C_15
REMARK    7  A    between atoms: C_15  and  C_16
REMARK    8  A    between atoms: C_19  and  C_20
REMARK                            x       y       z     vdW  Elec       q    Type
REMARK                         _______ _______ _______ _____ _____    ______ ____
ROOT
ATOM      1  N   UNL     1       2.340   3.502  20.739  0.00  0.00    +0.000 NA
ATOM      2  C   UNL     1       1.259   3.336  19.767  0.00  0.00    +0.000 C 
ATOM      3  C   UNL     1       1.329   2.043  18.954  0.00  0.00    +0.000 C 
ATOM      4  C   UNL     1       2.705   1.846  18.318  0.00  0.00    +0.000 C 
ATOM      5  C   UNL     1       3.747   1.866  19.441  0.00  0.00    +0.000 C 
ATOM      6  C   UNL     1       3.682   3.158  20.263  0.00  0.00    +0.000 C 
ENDROOT
BRANCH   4   7
ATOM      7  C   UNL     1       3.038   2.870  17.226  0.00  0.00    +0.000 C 
ATOM      8  O   UNL     1       2.177   3.498  16.617  0.00  0.00    +0.000 OA
ATOM      9  N   UNL     1       4.383   3.073  17.008  0.00  0.00    +0.000 N 
ATOM     10  H   UNL     1       5.047   2.761  17.704  0.00  0.00    +0.000 HD
BRANCH   9  11
ATOM     11  C   UNL     1       4.815   4.092  16.077  0.00  0.00    +0.000 C 
BRANCH  11  12
ATOM     12  C   UNL     1       5.783   5.056  16.707  0.00  0.00    +0.000 A 
ATOM     13  C   UNL     1       5.680   6.429  16.431  0.00  0.00    +0.000 A 
ATOM     14  C   UNL     1       6.535   7.342  17.052  0.00  0.00    +0.000 A 
ATOM     15  C   UNL     1       7.510   6.906  17.947  0.00  0.00    +0.000 A 
ATOM     16  C   UNL     1       8.400   7.889  18.654  0.00  0.00    +0.000 C 
ATOM     17  C   UNL     1       7.637   5.536  18.204  0.00  0.00    +0.000 A 
ATOM     18  C   UNL     1       6.778   4.617  17.585  0.00  0.00    +0.000 A 
ENDBRANCH  11  12
ENDBRANCH   9  11
ENDBRANCH   4   7
BRANCH   1  19
ATOM     19  C   UNL     1       2.311   4.822  21.411  0.00  0.00    +0.000 C 
BRANCH  19  23
ATOM     20  C   UNL     1       1.943   8.353  18.891  0.00  0.00    +0.000 A 
ATOM     21  C   UNL     1       2.677   7.247  18.461  0.00  0.00    +0.000 A 
ATOM     22  C   UNL     1       2.777   6.106  19.268  0.00  0.00    +0.000 A 
ATOM     23  C   UNL     1       2.162   6.056  20.529  0.00  0.00    +0.000 A 
ATOM     24  C   UNL     1       1.422   7.170  20.949  0.00  0.00    +0.000 A 
ATOM     25  C   UNL     1       1.320   8.310  20.140  0.00  0.00    +0.000 A 
BRANCH  20  27
ATOM     26  C   UNL     1       1.064  10.953  19.102  0.00  0.00    +0.000 C 
ATOM     27  S   UNL     1       1.840   9.836  17.905  0.00  0.00    +0.000 S 
ENDBRANCH  20  27
ENDBRANCH  19  23
ENDBRANCH   1  19
TORSDOF 6
ENDMDL
MODEL 3
REMARK VINA RESULT:      -8.2      0.861      1.528
REMARK  Name = 
REMARK  8 active torsions:
REMARK  status: ('A' for Active; 'I' for Inactive)
REMARK    1  A    between atoms: C_1  and  S_2
REMARK    2  A    between atoms: S_2  and  C_3
REMARK    3  A    between atoms: C_6  and  C_7
REMARK    4  A    between atoms: C_7  and  N_8
REMARK    5  A    between atoms: C_11  and  C_12
REMARK    6  A    between atoms: N_14  and  C_15
REMARK    7  A    between atoms: C_15  and  C_16
REMARK    8  A    between atoms: C_19  and  C_20
REMARK                            x       y       z     vdW  Elec       q    Type
REMARK                         _______ _______ _______ _____ _____    ______ ____
ROOT
ATOM      1  N   UNL     1       5.094   4.449  18.366  0.00  0.00    +0.000 NA
ATOM      2  C   UNL     1       5.703   4.491  17.036  0.00  0.00    +0.000 C 
ATOM      3  C   UNL     1       7.229   4.597  17.041  0.00  0.00    +0.000 C 
ATOM      4  C   UNL     1       7.715   5.742  17.930  0.00  0.00    +0.000 C 
ATOM      5  C   UNL     1       7.160   5.510  19.338  0.00  0.00    +0.000 C 
ATOM      6  C   UNL     1       5.632   5.399  19.343  0.00  0.00    +0.000 C 
ENDROOT
BRANCH   4   7
ATOM      7  C   UNL     1       7.349   7.136  17.405  0.00  0.00    +0.000 C 
ATOM      8  O   UNL     1       6.414   7.333  16.634  0.00  0.00    +0.000 OA
ATOM      9  N   UNL     1       8.117   8.166  17.901  0.00  0.00    +0.000 N 
ATOM     10  H   UNL     1       8.676   8.008  18.729  0.00  0.00    +0.000 HD
BRANCH   9  11
ATOM     11  C   UNL     1       7.794   9.534  17.559  0.00  0.00    +0.000 C 
BRANCH  11  12
ATOM     12  C   UNL     1       8.682  10.516  18.273  0.00  0.00    +0.000 A 
ATOM     13  C   UNL     1       9.343  10.130  19.451  0.00  0.00    +0.000 A 
ATOM     14  C   UNL     1      10.215  11.012  20.095  0.00  0.00    +0.000 A 
ATOM     15  C   UNL     1      10.434  12.291  19.585  0.00  0.00    +0.000 A 
ATOM     16  C   UNL     1      11.408  13.225  20.248  0.00  0.00    +0.000 C 
ATOM     17  C   UNL     1       9.755  12.691  18.429  0.00  0.00    +0.000 A 
ATOM     18  C   UNL     1       8.882  11.808  17.779  0.00  0.00    +0.000 A 
ENDBRANCH  11  12
ENDBRANCH   9  11
ENDBRANCH   4   7
BRANCH   1  19
ATOM     19  C   UNL     1       3.613   4.478  18.321  0.00  0.00    +0.000 C 
BRANCH  19  23
ATOM     20  C   UNL     1       1.578   7.986  19.906  0.00  0.00    +0.000 A 
ATOM     21  C   UNL     1       1.599   6.791  20.627  0.00  0.00    +0.000 A 
ATOM     22  C   UNL     1       2.271   5.671  20.121  0.00  0.00    +0.000 A 
ATOM     23  C   UNL     1       2.918   5.716  18.875  0.00  0.00    +0.000 A 
ATOM     24  C   UNL     1       2.896   6.923  18.162  0.00  0.00    +0.000 A 
ATOM     25  C   UNL     1       2.226   8.045  18.671  0.00  0.00    +0.000 A 
BRANCH  20  27
ATOM     26  C   UNL     1       1.187   9.380  22.247  0.00  0.00    +0.000 C 
ATOM     27  S   UNL     1       0.690   9.412  20.505  0.00  0.00    +0.000 S 
ENDBRANCH  20  27
ENDBRANCH  19  23
ENDBRANCH   1  19
TORSDOF 6
ENDMDL
MODEL 4
REMARK VINA RESULT:      -7.9      0.789      1.142
REMARK  Name = 
REMARK  8 active torsions:
REMARK  status: ('A' for Active; 'I' for Inactive)
REMARK    1  A    between atoms: C_1  and  S_2
REMARK    2  A    between atoms: S_2  and  C_3
REMARK    3  A    between atoms: C_6  and  C_7
REMARK    4  A    between atoms: C_7  and  N_8
REMARK    5  A    between atoms: C_11  and  C_12
REMARK    6  A    between atoms: N_14  and  C_15
REMARK    7  A    between atoms: C_15  and  C_16
REMARK    8  A    between atoms: C_19  and  C_20
REMARK                            x       y       z     vdW  Elec       q    Type
REMARK                         _______ _______ _______ _____ _____    ______ ____
ROOT
ATOM      1  N   UNL     1       4.869   4.552  18.500  0.00  0.00    +0.000 NA
ATOM      2  C   UNL     1       5.423   4.521  17.145  0.00  0.00    +0.000 C 
ATOM      3  C   UNL     1       6.951   4.530  17.084  0.00  0.00    +0.000 C 
ATOM      4  C   UNL     1       7.546   5.663  17.921  0.00  0.00    +0.000 C 
ATOM      5  C   UNL     1       7.038   5.502  19.357  0.00  0.00    +0.000 C 
ATOM      6  C   UNL     1       5.507   5.489  19.427  0.00  0.00    +0.000 C 
ENDROOT
BRANCH   4   7
ATOM      7  C   UNL     1       7.245   7.064  17.373  0.00  0.00    +0.000 C 
ATOM      8  O   UNL     1       6.332   7.290  16.585  0.00  0.00    +0.000 OA
ATOM      9  N   UNL     1       8.047   8.068  17.870  0.00  0.00    +0.000 N 
ATOM     10  H   UNL     1       8.586   7.898  18.709  0.00  0.00    +0.000 HD
BRANCH   9  11
ATOM     11  C   UNL     1       7.786   9.444  17.507  0.00  0.00    +0.000 C 
BRANCH  11  12
ATOM     12  C   UNL     1       8.671  10.401  18.257  0.00  0.00    +0.000 A 
ATOM     13  C   UNL     1       9.246  10.010  19.477  0.00  0.00    +0.000 A 
ATOM     14  C   UNL     1      10.115  10.866  20.158  0.00  0.00    +0.000 A 
ATOM     15  C   UNL     1      10.418  12.125  19.643  0.00  0.00    +0.000 A 
ATOM     16  C   UNL     1      11.390  13.029  20.347  0.00  0.00    +0.000 C 
ATOM     17  C   UNL     1       9.826  12.532  18.442  0.00  0.00    +0.000 A 
ATOM     18  C   UNL     1       8.956  11.674  17.755  0.00  0.00    +0.000 A 
ENDBRANCH  11  12
ENDBRANCH   9  11
ENDBRANCH   4   7
BRANCH   1  19
ATOM     19  C   UNL     1       3.393   4.674  18.515  0.00  0.00    +0.000 C 
BRANCH  19  23
ATOM     20  C   UNL     1       1.768   8.680  19.031  0.00  0.00    +0.000 A 
ATOM     21  C   UNL     1       2.347   8.299  17.819  0.00  0.00    +0.000 A 
ATOM     22  C   UNL     1       2.851   7.003  17.652  0.00  0.00    +0.000 A 
ATOM     23  C   UNL     1       2.806   6.068  18.699  0.00  0.00    +0.000 A 
ATOM     24  C   UNL     1       2.217   6.459  19.910  0.00  0.00    +0.000 A 
ATOM     25  C   UNL     1       1.709   7.756  20.075  0.00  0.00    +0.000 A 
BRANCH  20  27
ATOM     26  C   UNL     1      -0.607  10.072  18.994  0.00  0.00    +0.000 C 
ATOM     27  S   UNL     1       1.161  10.338  19.286  0.00  0.00    +0.000 S 
ENDBRANCH  20  27
ENDBRANCH  19  23
ENDBRANCH   1  19
TORSDOF 6
ENDMDL
MODEL 5
REMARK VINA RESULT:      -7.9      3.306      5.382
REMARK  Name = 
REMARK  8 active torsions:
REMARK  status: ('A' for Active; 'I' for Inactive)
REMARK    1  A    between atoms: C_1  and  S_2
REMARK    2  A    between atoms: S_2  and  C_3
REMARK    3  A    between atoms: C_6  and  C_7
REMARK    4  A    between atoms: C_7  and  N_8
REMARK    5  A    between atoms: C_11  and  C_12
REMARK    6  A    between atoms: N_14  and  C_15
REMARK    7  A    between atoms: C_15  and  C_16
REMARK    8  A    between atoms: C_19  and  C_20
REMARK                            x       y       z     vdW  Elec       q    Type
REMARK                         _______ _______ _______ _____ _____    ______ ____
ROOT
ATOM      1  N   UNL     1       1.867   5.065  20.145  0.00  0.00    +0.000 NA
ATOM      2  C   UNL     1       1.557   4.860  18.729  0.00  0.00    +0.000 C 
ATOM      3  C   UNL     1       0.950   3.494  18.404  0.00  0.00    +0.000 C 
ATOM      4  C   UNL     1       1.785   2.351  18.979  0.00  0.00    +0.000 C 
ATOM      5  C   UNL     1       1.906   2.571  20.490  0.00  0.00    +0.000 C 
ATOM      6  C   UNL     1       2.510   3.939  20.825  0.00  0.00    +0.000 C 
ENDROOT
BRANCH   4   7
ATOM      7  C   UNL     1       3.164   2.196  18.324  0.00  0.00    +0.000 C 
ATOM      8  O   UNL     1       3.778   1.134  18.306  0.00  0.00    +0.000 OA
ATOM      9  N   UNL     1       3.647   3.330  17.708  0.00  0.00    +0.000 N 
ATOM     10  H   UNL     1       3.008   4.087  17.499  0.00  0.00    +0.000 HD
BRANCH   9  11
ATOM     11  C   UNL     1       4.887   3.274  16.966  0.00  0.00    +0.000 C 
BRANCH  11  12
ATOM     12  C   UNL     1       5.687   4.539  17.111  0.00  0.00    +0.000 A 
ATOM     13  C   UNL     1       5.167   5.752  16.631  0.00  0.00    +0.000 A 
ATOM     14  C   UNL     1       5.873   6.945  16.808  0.00  0.00    +0.000 A 
ATOM     15  C   UNL     1       7.107   6.949  17.455  0.00  0.00    +0.000 A 
ATOM     16  C   UNL     1       7.847   8.236  17.691  0.00  0.00    +0.000 C 
ATOM     17  C   UNL     1       7.644   5.739  17.910  0.00  0.00    +0.000 A 
ATOM     18  C   UNL     1       6.938   4.541  17.736  0.00  0.00    +0.000 A 
ENDBRANCH  11  12
ENDBRANCH   9  11
ENDBRANCH   4   7
BRANCH   1  19
ATOM     19  C   UNL     1       2.572   6.344  20.399  0.00  0.00    +0.000 C 
BRANCH  19  23
ATOM     20  C   UNL     1       0.570  10.044  19.281  0.00  0.00    +0.000 A 
ATOM     21  C   UNL     1       1.434   9.407  18.389  0.00  0.00    +0.000 A 
ATOM     22  C   UNL     1       2.061   8.207  18.747  0.00  0.00    +0.000 A 
ATOM     23  C   UNL     1       1.853   7.630  20.011  0.00  0.00    +0.000 A 
ATOM     24  C   UNL     1       0.978   8.275  20.896  0.00  0.00    +0.000 A 
ATOM     25  C   UNL     1       0.348   9.475  20.536  0.00  0.00    +0.000 A 
BRANCH  20  27
ATOM     26  C   UNL     1      -0.434  12.282  20.531  0.00  0.00    +0.000 C 
ATOM     27  S   UNL     1      -0.204  11.598  18.869  0.00  0.00    +0.000 S 
ENDBRANCH  20  27
ENDBRANCH  19  23
ENDBRANCH   1  19
TORSDOF 6
ENDMDL
MODEL 6
REMARK VINA RESULT:      -7.9      2.695      4.893
REMARK  Name = 
REMARK  8 active torsions:
REMARK  status: ('A' for Active; 'I' for Inactive)
REMARK    1  A    between atoms: C_1  and  S_2
REMARK    2  A    between atoms: S_2  and  C_3
REMARK    3  A    between atoms: C_6  and  C_7
REMARK    4  A    between atoms: C_7  and  N_8
REMARK    5  A    between atoms: C_11  and  C_12
REMARK    6  A    between atoms: N_14  and  C_15
REMARK    7  A    between atoms: C_15  and  C_16
REMARK    8  A    between atoms: C_19  and  C_20
REMARK                            x       y       z     vdW  Elec       q    Type
REMARK                         _______ _______ _______ _____ _____    ______ ____
ROOT
ATOM      1  N   UNL     1       1.838   6.244  19.647  0.00  0.00    +0.000 NA
ATOM      2  C   UNL     1       1.987   5.724  18.287  0.00  0.00    +0.000 C 
ATOM      3  C   UNL     1       1.740   4.220  18.153  0.00  0.00    +0.000 C 
ATOM      4  C   UNL     1       2.557   3.419  19.166  0.00  0.00    +0.000 C 
ATOM      5  C   UNL     1       2.199   3.928  20.566  0.00  0.00    +0.000 C 
ATOM      6  C   UNL     1       2.441   5.435  20.708  0.00  0.00    +0.000 C 
ENDROOT
BRANCH   4   7
ATOM      7  C   UNL     1       4.070   3.466  18.922  0.00  0.00    +0.000 C 
ATOM      8  O   UNL     1       4.887   2.995  19.707  0.00  0.00    +0.000 OA
ATOM      9  N   UNL     1       4.450   4.035  17.726  0.00  0.00    +0.000 N 
ATOM     10  H   UNL     1       3.760   4.150  16.995  0.00  0.00    +0.000 HD
BRANCH   9  11
ATOM     11  C   UNL     1       5.844   4.038  17.340  0.00  0.00    +0.000 C 
BRANCH  11  12
ATOM     12  C   UNL     1       6.495   5.370  17.595  0.00  0.00    +0.000 A 
ATOM     13  C   UNL     1       7.529   5.471  18.540  0.00  0.00    +0.000 A 
ATOM     14  C   UNL     1       8.182   6.689  18.747  0.00  0.00    +0.000 A 
ATOM     15  C   UNL     1       7.812   7.823  18.027  0.00  0.00    +0.000 A 
ATOM     16  C   UNL     1       8.544   9.123  18.212  0.00  0.00    +0.000 C 
ATOM     17  C   UNL     1       6.763   7.735  17.105  0.00  0.00    +0.000 A 
ATOM     18  C   UNL     1       6.108   6.515  16.893  0.00  0.00    +0.000 A 
ENDBRANCH  11  12
ENDBRANCH   9  11
ENDBRANCH   4   7
BRANCH   1  19
ATOM     19  C   UNL     1       2.212   7.674  19.759  0.00  0.00    +0.000 C 
BRANCH  19  23
ATOM     20  C   UNL     1      -0.450  10.328  21.956  0.00  0.00    +0.000 A 
ATOM     21  C   UNL     1      -0.327  10.434  20.569  0.00  0.00    +0.000 A 
ATOM     22  C   UNL     1       0.517   9.565  19.865  0.00  0.00    +0.000 A 
ATOM     23  C   UNL     1       1.270   8.587  20.535  0.00  0.00    +0.000 A 
ATOM     24  C   UNL     1       1.135   8.486  21.926  0.00  0.00    +0.000 A 
ATOM     25  C   UNL     1       0.288   9.353  22.630  0.00  0.00    +0.000 A 
BRANCH  20  27
ATOM     26  C   UNL     1      -0.770  13.033  22.352  0.00  0.00    +0.000 C 
ATOM     27  S   UNL     1      -1.479  11.453  22.882  0.00  0.00    +0.000 S 
ENDBRANCH  20  27
ENDBRANCH  19  23
ENDBRANCH   1  19
TORSDOF 6
ENDMDL
MODEL 7
REMARK VINA RESULT:      -7.9      2.358      4.322
REMARK  Name = 
REMARK  8 active torsions:
REMARK  status: ('A' for Active; 'I' for Inactive)
REMARK    1  A    between atoms: C_1  and  S_2
REMARK    2  A    between atoms: S_2  and  C_3
REMARK    3  A    between atoms: C_6  and  C_7
REMARK    4  A    between atoms: C_7  and  N_8
REMARK    5  A    between atoms: C_11  and  C_12
REMARK    6  A    between atoms: N_14  and  C_15
REMARK    7  A    between atoms: C_15  and  C_16
REMARK    8  A    between atoms: C_19  and  C_20
REMARK                            x       y       z     vdW  Elec       q    Type
REMARK                         _______ _______ _______ _____ _____    ______ ____
ROOT
ATOM      1  N   UNL     1       2.281   6.120  19.128  0.00  0.00    +0.000 NA
ATOM      2  C   UNL     1       1.929   5.468  17.866  0.00  0.00    +0.000 C 
ATOM      3  C   UNL     1       1.946   3.940  17.914  0.00  0.00    +0.000 C 
ATOM      4  C   UNL     1       3.257   3.405  18.490  0.00  0.00    +0.000 C 
ATOM      5  C   UNL     1       3.444   4.018  19.881  0.00  0.00    +0.000 C 
ATOM      6  C   UNL     1       3.426   5.550  19.842  0.00  0.00    +0.000 C 
ENDROOT
BRANCH   4   7
ATOM      7  C   UNL     1       4.478   3.660  17.597  0.00  0.00    +0.000 C 
ATOM      8  O   UNL     1       4.402   3.754  16.375  0.00  0.00    +0.000 OA
ATOM      9  N   UNL     1       5.668   3.826  18.270  0.00  0.00    +0.000 N 
ATOM     10  H   UNL     1       5.650   4.022  19.262  0.00  0.00    +0.000 HD
BRANCH   9  11
ATOM     11  C   UNL     1       6.866   4.177  17.539  0.00  0.00    +0.000 C 
BRANCH  11  12
ATOM     12  C   UNL     1       7.277   5.603  17.784  0.00  0.00    +0.000 A 
ATOM     13  C   UNL     1       8.009   5.929  18.938  0.00  0.00    +0.000 A 
ATOM     14  C   UNL     1       8.447   7.238  19.153  0.00  0.00    +0.000 A 
ATOM     15  C   UNL     1       8.158   8.242  18.232  0.00  0.00    +0.000 A 
ATOM     16  C   UNL     1       8.669   9.641  18.435  0.00  0.00    +0.000 C 
ATOM     17  C   UNL     1       7.404   7.930  17.095  0.00  0.00    +0.000 A 
ATOM     18  C   UNL     1       6.965   6.617  16.875  0.00  0.00    +0.000 A 
ENDBRANCH  11  12
ENDBRANCH   9  11
ENDBRANCH   4   7
BRANCH   1  19
ATOM     19  C   UNL     1       2.381   7.594  19.006  0.00  0.00    +0.000 C 
BRANCH  19  23
ATOM     20  C   UNL     1      -0.068  10.043  21.643  0.00  0.00    +0.000 A 
ATOM     21  C   UNL     1       0.104  10.396  20.304  0.00  0.00    +0.000 A 
ATOM     22  C   UNL     1       0.878   9.594  19.455  0.00  0.00    +0.000 A 
ATOM     23  C   UNL     1       1.512   8.435  19.932  0.00  0.00    +0.000 A 
ATOM     24  C   UNL     1       1.327   8.087  21.278  0.00  0.00    +0.000 A 
ATOM     25  C   UNL     1       0.550   8.888  22.126  0.00  0.00    +0.000 A 
BRANCH  20  27
ATOM     26  C   UNL     1      -1.733  12.235  21.571  0.00  0.00    +0.000 C 
ATOM     27  S   UNL     1      -1.008  11.072  22.757  0.00  0.00    +0.000 S 
ENDBRANCH  20  27
ENDBRANCH  19  23
ENDBRANCH   1  19
TORSDOF 6
ENDMDL
MODEL 8
REMARK VINA RESULT:      -7.8      3.257      5.388
REMARK  Name = 
REMARK  8 active torsions:
REMARK  status: ('A' for Active; 'I' for Inactive)
REMARK    1  A    between atoms: C_1  and  S_2
REMARK    2  A    between atoms: S_2  and  C_3
REMARK    3  A    between atoms: C_6  and  C_7
REMARK    4  A    between atoms: C_7  and  N_8
REMARK    5  A    between atoms: C_11  and  C_12
REMARK    6  A    between atoms: N_14  and  C_15
REMARK    7  A    between atoms: C_15  and  C_16
REMARK    8  A    between atoms: C_19  and  C_20
REMARK                            x       y       z     vdW  Elec       q    Type
REMARK                         _______ _______ _______ _____ _____    ______ ____
ROOT
ATOM      1  N   UNL     1       1.606   4.937  20.282  0.00  0.00    +0.000 NA
ATOM      2  C   UNL     1       1.506   4.926  18.821  0.00  0.00    +0.000 C 
ATOM      3  C   UNL     1       0.983   3.615  18.231  0.00  0.00    +0.000 C 
ATOM      4  C   UNL     1       1.751   2.406  18.763  0.00  0.00    +0.000 C 
ATOM      5  C   UNL     1       1.649   2.420  20.291  0.00  0.00    +0.000 C 
ATOM      6  C   UNL     1       2.169   3.730  20.891  0.00  0.00    +0.000 C 
ENDROOT
BRANCH   4   7
ATOM      7  C   UNL     1       3.212   2.346  18.300  0.00  0.00    +0.000 C 
ATOM      8  O   UNL     1       3.974   1.436  18.614  0.00  0.00    +0.000 OA
ATOM      9  N   UNL     1       3.600   3.365  17.459  0.00  0.00    +0.000 N 
ATOM     10  H   UNL     1       2.890   3.925  17.003  0.00  0.00    +0.000 HD
BRANCH   9  11
ATOM     11  C   UNL     1       4.923   3.353  16.874  0.00  0.00    +0.000 C 
BRANCH  11  12
ATOM     12  C   UNL     1       5.672   4.628  17.150  0.00  0.00    +0.000 A 
ATOM     13  C   UNL     1       6.949   4.574  17.733  0.00  0.00    +0.000 A 
ATOM     14  C   UNL     1       7.681   5.745  17.944  0.00  0.00    +0.000 A 
ATOM     15  C   UNL     1       7.152   6.985  17.589  0.00  0.00    +0.000 A 
ATOM     16  C   UNL     1       7.956   8.243  17.769  0.00  0.00    +0.000 C 
ATOM     17  C   UNL     1       5.869   7.048  17.035  0.00  0.00    +0.000 A 
ATOM     18  C   UNL     1       5.133   5.874  16.820  0.00  0.00    +0.000 A 
ENDBRANCH  11  12
ENDBRANCH   9  11
ENDBRANCH   4   7
BRANCH   1  19
ATOM     19  C   UNL     1       2.238   6.171  20.805  0.00  0.00    +0.000 C 
BRANCH  19  23
ATOM     20  C   UNL     1       0.691  10.001  19.431  0.00  0.00    +0.000 A 
ATOM     21  C   UNL     1       1.588   9.275  18.645  0.00  0.00    +0.000 A 
ATOM     22  C   UNL     1       2.068   8.034  19.084  0.00  0.00    +0.000 A 
ATOM     23  C   UNL     1       1.678   7.504  20.325  0.00  0.00    +0.000 A 
ATOM     24  C   UNL     1       0.772   8.239  21.103  0.00  0.00    +0.000 A 
ATOM     25  C   UNL     1       0.289   9.480  20.662  0.00  0.00    +0.000 A 
BRANCH  20  27
ATOM     26  C   UNL     1       0.832  12.636  20.217  0.00  0.00    +0.000 C 
ATOM     27  S   UNL     1       0.102  11.605  18.918  0.00  0.00    +0.000 S 
ENDBRANCH  20  27
ENDBRANCH  19  23
ENDBRANCH   1  19
TORSDOF 6
ENDMDL
MODEL 9
REMARK VINA RESULT:      -7.8      2.996      5.092
REMARK  Name = 
REMARK  8 active torsions:
REMARK  status: ('A' for Active; 'I' for Inactive)
REMARK    1  A    between atoms: C_1  and  S_2
REMARK    2  A    between atoms: S_2  and  C_3
REMARK    3  A    between atoms: C_6  and  C_7
REMARK    4  A    between atoms: C_7  and  N_8
REMARK    5  A    between atoms: C_11  and  C_12
REMARK    6  A    between atoms: N_14  and  C_15
REMARK    7  A    between atoms: C_15  and  C_16
REMARK    8  A    between atoms: C_19  and  C_20
REMARK                            x       y       z     vdW  Elec       q    Type
REMARK                         _______ _______ _______ _____ _____    ______ ____
ROOT
ATOM      1  N   UNL     1       1.795   5.737  19.864  0.00  0.00    +0.000 NA
ATOM      2  C   UNL     1       1.850   5.571  18.411  0.00  0.00    +0.000 C 
ATOM      3  C   UNL     1       1.429   4.187  17.914  0.00  0.00    +0.000 C 
ATOM      4  C   UNL     1       2.173   3.071  18.648  0.00  0.00    +0.000 C 
ATOM      5  C   UNL     1       1.910   3.238  20.147  0.00  0.00    +0.000 C 
ATOM      6  C   UNL     1       2.326   4.623  20.653  0.00  0.00    +0.000 C 
ENDROOT
BRANCH   4   7
ATOM      7  C   UNL     1       3.675   3.021  18.344  0.00  0.00    +0.000 C 
ATOM      8  O   UNL     1       4.482   2.441  19.065  0.00  0.00    +0.000 OA
ATOM      9  N   UNL     1       4.054   3.635  17.170  0.00  0.00    +0.000 N 
ATOM     10  H   UNL     1       3.349   3.848  16.477  0.00  0.00    +0.000 HD
BRANCH   9  11
ATOM     11  C   UNL     1       5.429   3.559  16.728  0.00  0.00    +0.000 C 
BRANCH  11  12
ATOM     12  C   UNL     1       6.195   4.810  17.057  0.00  0.00    +0.000 A 
ATOM     13  C   UNL     1       5.910   6.003  16.372  0.00  0.00    +0.000 A 
ATOM     14  C   UNL     1       6.574   7.187  16.704  0.00  0.00    +0.000 A 
ATOM     15  C   UNL     1       7.536   7.201  17.713  0.00  0.00    +0.000 A 
ATOM     16  C   UNL     1       8.217   8.482  18.107  0.00  0.00    +0.000 C 
ATOM     17  C   UNL     1       7.845   6.010  18.379  0.00  0.00    +0.000 A 
ATOM     18  C   UNL     1       7.179   4.821  18.050  0.00  0.00    +0.000 A 
ENDBRANCH  11  12
ENDBRANCH   9  11
ENDBRANCH   4   7
BRANCH   1  19
ATOM     19  C   UNL     1       2.333   7.042  20.314  0.00  0.00    +0.000 C 
BRANCH  19  23
ATOM     20  C   UNL     1      -0.289  10.513  20.131  0.00  0.00    +0.000 A 
ATOM     21  C   UNL     1       0.569  10.215  19.071  0.00  0.00    +0.000 A 
ATOM     22  C   UNL     1       1.397   9.087  19.128  0.00  0.00    +0.000 A 
ATOM     23  C   UNL     1       1.399   8.245  20.252  0.00  0.00    +0.000 A 
ATOM     24  C   UNL     1       0.529   8.551  21.308  0.00  0.00    +0.000 A 
ATOM     25  C   UNL     1      -0.302   9.678  21.250  0.00  0.00    +0.000 A 
BRANCH  20  27
ATOM     26  C   UNL     1      -1.765  12.006  18.350  0.00  0.00    +0.000 C 
ATOM     27  S   UNL     1      -1.319  11.970  20.106  0.00  0.00    +0.000 S 
ENDBRANCH  20  27
ENDBRANCH  19  23
ENDBRANCH   1  19
TORSDOF 6
ENDMDL
