MODEL 1
REMARK VINA RESULT:      -8.3      0.000      0.000
REMARK  Name = 
REMARK  10 active torsions:
REMARK  status: ('A' for Active; 'I' for Inactive)
REMARK    1  A    between atoms: C_1  and  O_2
REMARK    2  A    between atoms: O_2  and  C_3
REMARK    3  A    between atoms: C_6  and  C_7
REMARK    4  A    between atoms: N_9  and  C_10
REMARK    5  A    between atoms: C_13  and  C_14
REMARK    6  A    between atoms: C_14  and  C_16
REMARK    7  A    between atoms: C_17  and  C_18
REMARK    8  A    between atoms: C_20  and  C_21
REMARK    9  A    between atoms: C_22  and  C_23
REMARK   10  A    between atoms: C_25  and  C_26
REMARK                            x       y       z     vdW  Elec       q    Type
REMARK                         _______ _______ _______ _____ _____    ______ ____
ROOT
ATOM      1  C   UNL     1       1.462   8.278  20.430  0.00  0.00    +0.000 A 
ATOM      2  C   UNL     1       1.313   7.031  21.048  0.00  0.00    +0.000 A 
ATOM      3  C   UNL     1       1.698   5.850  20.400  0.00  0.00    +0.000 A 
ATOM      4  C   UNL     1       2.254   5.891  19.123  0.00  0.00    +0.000 A 
ATOM      5  C   UNL     1       2.424   7.134  18.499  0.00  0.00    +0.000 A 
ATOM      6  C   UNL     1       2.015   8.318  19.148  0.00  0.00    +0.000 A 
ENDROOT
BRANCH   1   9
ATOM      7  C   UNL     1       0.067  10.330  20.559  0.00  0.00    +0.000 C 
ATOM      8  O   UNL     1      -0.642  10.111  19.581  0.00  0.00    +0.000 OA
ATOM      9  N   UNL     1       1.050   9.488  21.051  0.00  0.00    +0.000 N 
ATOM     10  H   UNL     1       1.422   9.680  21.976  0.00  0.00    +0.000 HD
BRANCH   7  14
ATOM     11  C   UNL     1      -0.482  13.977  22.746  0.00  0.00    +0.000 A 
ATOM     12  C   UNL     1       0.409  13.901  21.678  0.00  0.00    +0.000 A 
ATOM     13  C   UNL     1       0.539  12.716  20.957  0.00  0.00    +0.000 A 
ATOM     14  C   UNL     1      -0.215  11.583  21.303  0.00  0.00    +0.000 A 
ATOM     15  C   UNL     1      -1.096  11.650  22.386  0.00  0.00    +0.000 A 
ATOM     16  C   UNL     1      -1.226  12.848  23.104  0.00  0.00    +0.000 A 
BRANCH  11  18
ATOM     17  C   UNL     1      -1.758  15.594  23.903  0.00  0.00    +0.000 C 
ATOM     18  O   UNL     1      -0.494  15.176  23.403  0.00  0.00    +0.000 OA
ENDBRANCH  11  18
ENDBRANCH   7  14
ENDBRANCH   1   9
BRANCH   4  19
ATOM     19  C   UNL     1       2.587   4.587  18.480  0.00  0.00    +0.000 C 
ATOM     20  O   UNL     1       2.172   3.538  18.959  0.00  0.00    +0.000 OA
BRANCH  19  21
ATOM     21  C   UNL     1       3.475   4.601  17.291  0.00  0.00    +0.000 C 
ATOM     22  C   UNL     1       4.813   4.655  17.429  0.00  0.00    +0.000 C 
BRANCH  22  23
ATOM     23  C   UNL     1       5.716   4.778  16.272  0.00  0.00    +0.000 A 
ATOM     24  N   UNL     1       5.310   4.116  15.155  0.00  0.00    +0.000 NA
ATOM     25  C   UNL     1       6.066   4.242  14.033  0.00  0.00    +0.000 A 
ATOM     26  C   UNL     1       5.580   3.489  12.835  0.00  0.00    +0.000 C 
ATOM     27  C   UNL     1       7.214   5.030  14.017  0.00  0.00    +0.000 A 
ATOM     28  C   UNL     1       8.053   5.238  12.794  0.00  0.00    +0.000 C 
ATOM     29  N   UNL     1       7.640   5.671  15.134  0.00  0.00    +0.000 NA
ATOM     30  C   UNL     1       6.891   5.534  16.264  0.00  0.00    +0.000 A 
ATOM     31  C   UNL     1       7.418   6.244  17.474  0.00  0.00    +0.000 C 
ENDBRANCH  22  23
ENDBRANCH  19  21
ENDBRANCH   4  19
TORSDOF 6
ENDMDL
MODEL 2
REMARK VINA RESULT:      -8.3      0.752      1.448
REMARK  Name = 
REMARK  10 active torsions:
REMARK  status: ('A' for Active; 'I' for Inactive)
REMARK    1  A    between atoms: C_1  and  O_2
REMARK    2  A    between atoms: O_2  and  C_3
REMARK    3  A    between atoms: C_6  and  C_7
REMARK    4  A    between atoms: N_9  and  C_10
REMARK    5  A    between atoms: C_13  and  C_14
REMARK    6  A    between atoms: C_14  and  C_16
REMARK    7  A    between atoms: C_17  and  C_18
REMARK    8  A    between atoms: C_20  and  C_21
REMARK    9  A    between atoms: C_22  and  C_23
REMARK   10  A    between atoms: C_25  and  C_26
REMARK                            x       y       z     vdW  Elec       q    Type
REMARK                         _______ _______ _______ _____ _____    ______ ____
ROOT
ATOM      1  C   UNL     1       1.626   7.922  20.055  0.00  0.00    +0.000 A 
ATOM      2  C   UNL     1       2.080   7.742  18.743  0.00  0.00    +0.000 A 
ATOM      3  C   UNL     1       2.435   6.474  18.266  0.00  0.00    +0.000 A 
ATOM      4  C   UNL     1       2.331   5.353  19.088  0.00  0.00    +0.000 A 
ATOM      5  C   UNL     1       1.863   5.517  20.398  0.00  0.00    +0.000 A 
ATOM      6  C   UNL     1       1.526   6.799  20.879  0.00  0.00    +0.000 A 
ENDROOT
BRANCH   1   9
ATOM      7  C   UNL     1       0.183   9.465  21.364  0.00  0.00    +0.000 C 
ATOM      8  O   UNL     1      -0.603   8.627  21.799  0.00  0.00    +0.000 OA
ATOM      9  N   UNL     1       1.290   9.202  20.573  0.00  0.00    +0.000 N 
ATOM     10  H   UNL     1       1.973   9.942  20.450  0.00  0.00    +0.000 HD
BRANCH   7  14
ATOM     11  C   UNL     1      -0.767  13.475  22.547  0.00  0.00    +0.000 A 
ATOM     12  C   UNL     1      -1.417  12.380  23.113  0.00  0.00    +0.000 A 
ATOM     13  C   UNL     1      -1.061  11.085  22.741  0.00  0.00    +0.000 A 
ATOM     14  C   UNL     1      -0.054  10.868  21.787  0.00  0.00    +0.000 A 
ATOM     15  C   UNL     1       0.587  11.963  21.204  0.00  0.00    +0.000 A 
ATOM     16  C   UNL     1       0.227  13.264  21.587  0.00  0.00    +0.000 A 
BRANCH  11  18
ATOM     17  C   UNL     1      -2.323  14.667  23.866  0.00  0.00    +0.000 C 
ATOM     18  O   UNL     1      -1.228  14.694  22.958  0.00  0.00    +0.000 OA
ENDBRANCH  11  18
ENDBRANCH   7  14
ENDBRANCH   1   9
BRANCH   4  19
ATOM     19  C   UNL     1       2.780   4.047  18.524  0.00  0.00    +0.000 C 
ATOM     20  O   UNL     1       2.453   2.996  19.062  0.00  0.00    +0.000 OA
BRANCH  19  21
ATOM     21  C   UNL     1       3.672   4.068  17.338  0.00  0.00    +0.000 C 
ATOM     22  C   UNL     1       4.912   4.588  17.416  0.00  0.00    +0.000 C 
BRANCH  22  23
ATOM     23  C   UNL     1       5.781   4.723  16.235  0.00  0.00    +0.000 A 
ATOM     24  N   UNL     1       5.358   4.048  15.131  0.00  0.00    +0.000 NA
ATOM     25  C   UNL     1       6.081   4.183  13.990  0.00  0.00    +0.000 A 
ATOM     26  C   UNL     1       5.577   3.415  12.808  0.00  0.00    +0.000 C 
ATOM     27  C   UNL     1       7.213   4.991  13.940  0.00  0.00    +0.000 A 
ATOM     28  C   UNL     1       8.016   5.209  12.694  0.00  0.00    +0.000 C 
ATOM     29  N   UNL     1       7.657   5.646  15.042  0.00  0.00    +0.000 NA
ATOM     30  C   UNL     1       6.941   5.500  16.192  0.00  0.00    +0.000 A 
ATOM     31  C   UNL     1       7.487   6.225  17.385  0.00  0.00    +0.000 C 
ENDBRANCH  22  23
ENDBRANCH  19  21
ENDBRANCH   4  19
TORSDOF 6
ENDMDL
MODEL 3
REMARK VINA RESULT:      -8.1      0.799      1.215
REMARK  Name = 
REMARK  10 active torsions:
REMARK  status: ('A' for Active; 'I' for Inactive)
REMARK    1  A    between atoms: C_1  and  O_2
REMARK    2  A    between atoms: O_2  and  C_3
REMARK    3  A    between atoms: C_6  and  C_7
REMARK    4  A    between atoms: N_9  and  C_10
REMARK    5  A    between atoms: C_13  and  C_14
REMARK    6  A    between atoms: C_14  and  C_16
REMARK    7  A    between atoms: C_17  and  C_18
REMARK    8  A    between atoms: C_20  and  C_21
REMARK    9  A    between atoms: C_22  and  C_23
REMARK   10  A    between atoms: C_25  and  C_26
REMARK                            x       y       z     vdW  Elec       q    Type
REMARK                         _______ _______ _______ _____ _____    ______ ____
ROOT
ATOM      1  C   UNL     1       1.400   8.466  20.350  0.00  0.00    +0.000 A 
ATOM      2  C   UNL     1       1.320   7.250  21.040  0.00  0.00    +0.000 A 
ATOM      3  C   UNL     1       1.760   6.055  20.458  0.00  0.00    +0.000 A 
ATOM      4  C   UNL     1       2.302   6.050  19.174  0.00  0.00    +0.000 A 
ATOM      5  C   UNL     1       2.403   7.261  18.478  0.00  0.00    +0.000 A 
ATOM      6  C   UNL     1       1.940   8.459  19.062  0.00  0.00    +0.000 A 
ENDROOT
BRANCH   1   9
ATOM      7  C   UNL     1      -0.131   9.794  21.787  0.00  0.00    +0.000 C 
ATOM      8  O   UNL     1      -0.752   8.855  22.279  0.00  0.00    +0.000 OA
ATOM      9  N   UNL     1       0.933   9.687  20.905  0.00  0.00    +0.000 N 
ATOM     10  H   UNL     1       1.492  10.516  20.733  0.00  0.00    +0.000 HD
BRANCH   7  14
ATOM     11  C   UNL     1      -1.530  13.649  23.036  0.00  0.00    +0.000 A 
ATOM     12  C   UNL     1      -2.123  12.478  23.504  0.00  0.00    +0.000 A 
ATOM     13  C   UNL     1      -1.623  11.237  23.114  0.00  0.00    +0.000 A 
ATOM     14  C   UNL     1      -0.527  11.150  22.241  0.00  0.00    +0.000 A 
ATOM     15  C   UNL     1       0.058  12.322  21.756  0.00  0.00    +0.000 A 
ATOM     16  C   UNL     1      -0.447  13.569  22.156  0.00  0.00    +0.000 A 
BRANCH  11  18
ATOM     17  C   UNL     1      -1.302  15.705  24.176  0.00  0.00    +0.000 C 
ATOM     18  O   UNL     1      -2.131  14.805  23.452  0.00  0.00    +0.000 OA
ENDBRANCH  11  18
ENDBRANCH   7  14
ENDBRANCH   1   9
BRANCH   4  19
ATOM     19  C   UNL     1       2.696   4.729  18.604  0.00  0.00    +0.000 C 
ATOM     20  O   UNL     1       2.364   3.690  19.164  0.00  0.00    +0.000 OA
BRANCH  19  21
ATOM     21  C   UNL     1       3.541   4.718  17.384  0.00  0.00    +0.000 C 
ATOM     22  C   UNL     1       4.884   4.674  17.475  0.00  0.00    +0.000 C 
BRANCH  22  23
ATOM     23  C   UNL     1       5.753   4.771  16.290  0.00  0.00    +0.000 A 
ATOM     24  N   UNL     1       5.322   4.075  15.203  0.00  0.00    +0.000 NA
ATOM     25  C   UNL     1       6.045   4.174  14.058  0.00  0.00    +0.000 A 
ATOM     26  C   UNL     1       5.531   3.384  12.895  0.00  0.00    +0.000 C 
ATOM     27  C   UNL     1       7.185   4.969  13.987  0.00  0.00    +0.000 A 
ATOM     28  C   UNL     1       7.988   5.149  12.736  0.00  0.00    +0.000 C 
ATOM     29  N   UNL     1       7.637   5.645  15.073  0.00  0.00    +0.000 NA
ATOM     30  C   UNL     1       6.921   5.535  16.227  0.00  0.00    +0.000 A 
ATOM     31  C   UNL     1       7.476   6.282  17.401  0.00  0.00    +0.000 C 
ENDBRANCH  22  23
ENDBRANCH  19  21
ENDBRANCH   4  19
TORSDOF 6
ENDMDL
MODEL 4
REMARK VINA RESULT:      -8.1      0.808      1.198
REMARK  Name = 
REMARK  10 active torsions:
REMARK  status: ('A' for Active; 'I' for Inactive)
REMARK    1  A    between atoms: C_1  and  O_2
REMARK    2  A    between atoms: O_2  and  C_3
REMARK    3  A    between atoms: C_6  and  C_7
REMARK    4  A    between atoms: N_9  and  C_10
REMARK    5  A    between atoms: C_13  and  C_14
REMARK    6  A    between atoms: C_14  and  C_16
REMARK    7  A    between atoms: C_17  and  C_18
REMARK    8  A    between atoms: C_20  and  C_21
REMARK    9  A    between atoms: C_22  and  C_23
REMARK   10  A    between atoms: C_25  and  C_26
REMARK                            x       y       z     vdW  Elec       q    Type
REMARK                         _______ _______ _______ _____ _____    ______ ____
ROOT
ATOM      1  C   UNL     1       1.288   8.623  20.169  0.00  0.00    +0.000 A 
ATOM      2  C   UNL     1       1.827   8.542  18.880  0.00  0.00    +0.000 A 
ATOM      3  C   UNL     1       2.356   7.342  18.389  0.00  0.00    +0.000 A 
ATOM      4  C   UNL     1       2.346   6.190  19.172  0.00  0.00    +0.000 A 
ATOM      5  C   UNL     1       1.794   6.252  20.459  0.00  0.00    +0.000 A 
ATOM      6  C   UNL     1       1.282   7.469  20.955  0.00  0.00    +0.000 A 
ENDROOT
BRANCH   1   9
ATOM      7  C   UNL     1      -0.180   9.912  21.705  0.00  0.00    +0.000 C 
ATOM      8  O   UNL     1      -0.643   8.961  22.329  0.00  0.00    +0.000 OA
ATOM      9  N   UNL     1       0.774   9.835  20.703  0.00  0.00    +0.000 N 
ATOM     10  H   UNL     1       1.225  10.695  20.409  0.00  0.00    +0.000 HD
BRANCH   7  14
ATOM     11  C   UNL     1      -1.278  13.859  22.971  0.00  0.00    +0.000 A 
ATOM     12  C   UNL     1      -0.235  13.652  22.070  0.00  0.00    +0.000 A 
ATOM     13  C   UNL     1       0.075  12.362  21.643  0.00  0.00    +0.000 A 
ATOM     14  C   UNL     1      -0.648  11.258  22.120  0.00  0.00    +0.000 A 
ATOM     15  C   UNL     1      -1.682  11.459  23.038  0.00  0.00    +0.000 A 
ATOM     16  C   UNL     1      -1.993  12.761  23.460  0.00  0.00    +0.000 A 
BRANCH  11  18
ATOM     17  C   UNL     1      -2.193  15.354  24.554  0.00  0.00    +0.000 C 
ATOM     18  O   UNL     1      -1.463  15.159  23.349  0.00  0.00    +0.000 OA
ENDBRANCH  11  18
ENDBRANCH   7  14
ENDBRANCH   1   9
BRANCH   4  19
ATOM     19  C   UNL     1       2.977   4.966  18.598  0.00  0.00    +0.000 C 
ATOM     20  O   UNL     1       2.852   3.884  19.159  0.00  0.00    +0.000 OA
BRANCH  19  21
ATOM     21  C   UNL     1       3.800   5.115  17.372  0.00  0.00    +0.000 C 
ATOM     22  C   UNL     1       4.905   4.367  17.188  0.00  0.00    +0.000 C 
BRANCH  22  23
ATOM     23  C   UNL     1       5.802   4.565  16.036  0.00  0.00    +0.000 A 
ATOM     24  N   UNL     1       5.449   3.886  14.911  0.00  0.00    +0.000 NA
ATOM     25  C   UNL     1       6.199   4.076  13.795  0.00  0.00    +0.000 A 
ATOM     26  C   UNL     1       5.772   3.301  12.587  0.00  0.00    +0.000 C 
ATOM     27  C   UNL     1       7.287   4.944  13.791  0.00  0.00    +0.000 A 
ATOM     28  C   UNL     1       8.115   5.222  12.574  0.00  0.00    +0.000 C 
ATOM     29  N   UNL     1       7.662   5.604  14.915  0.00  0.00    +0.000 NA
ATOM     30  C   UNL     1       6.920   5.404  16.040  0.00  0.00    +0.000 A 
ATOM     31  C   UNL     1       7.390   6.138  17.259  0.00  0.00    +0.000 C 
ENDBRANCH  22  23
ENDBRANCH  19  21
ENDBRANCH   4  19
TORSDOF 6
ENDMDL
MODEL 5
REMARK VINA RESULT:      -8.1      1.403      1.704
REMARK  Name = 
REMARK  10 active torsions:
REMARK  status: ('A' for Active; 'I' for Inactive)
REMARK    1  A    between atoms: C_1  and  O_2
REMARK    2  A    between atoms: O_2  and  C_3
REMARK    3  A    between atoms: C_6  and  C_7
REMARK    4  A    between atoms: N_9  and  C_10
REMARK    5  A    between atoms: C_13  and  C_14
REMARK    6  A    between atoms: C_14  and  C_16
REMARK    7  A    between atoms: C_17  and  C_18
REMARK    8  A    between atoms: C_20  and  C_21
REMARK    9  A    between atoms: C_22  and  C_23
REMARK   10  A    between atoms: C_25  and  C_26
REMARK                            x       y       z     vdW  Elec       q    Type
REMARK                         _______ _______ _______ _____ _____    ______ ____
ROOT
ATOM      1  C   UNL     1       0.701   9.128  20.347  0.00  0.00    +0.000 A 
ATOM      2  C   UNL     1       0.932   8.033  21.190  0.00  0.00    +0.000 A 
ATOM      3  C   UNL     1       1.763   6.978  20.796  0.00  0.00    +0.000 A 
ATOM      4  C   UNL     1       2.395   6.999  19.554  0.00  0.00    +0.000 A 
ATOM      5  C   UNL     1       2.187   8.096  18.708  0.00  0.00    +0.000 A 
ATOM      6  C   UNL     1       1.332   9.146  19.102  0.00  0.00    +0.000 A 
ENDROOT
BRANCH   1   9
ATOM      7  C   UNL     1       0.262  11.421  21.199  0.00  0.00    +0.000 C 
ATOM      8  O   UNL     1       1.431  11.786  21.302  0.00  0.00    +0.000 OA
ATOM      9  N   UNL     1      -0.163  10.196  20.710  0.00  0.00    +0.000 N 
ATOM     10  H   UNL     1      -1.146  10.091  20.482  0.00  0.00    +0.000 HD
BRANCH   7  14
ATOM     11  C   UNL     1      -2.897  14.097  22.315  0.00  0.00    +0.000 A 
ATOM     12  C   UNL     1      -2.597  12.972  23.080  0.00  0.00    +0.000 A 
ATOM     13  C   UNL     1      -1.539  12.140  22.718  0.00  0.00    +0.000 A 
ATOM     14  C   UNL     1      -0.770  12.418  21.577  0.00  0.00    +0.000 A 
ATOM     15  C   UNL     1      -1.078  13.535  20.797  0.00  0.00    +0.000 A 
ATOM     16  C   UNL     1      -2.142  14.371  21.170  0.00  0.00    +0.000 A 
BRANCH  11  18
ATOM     17  C   UNL     1      -3.881  15.357  24.053  0.00  0.00    +0.000 C 
ATOM     18  O   UNL     1      -3.979  14.813  22.742  0.00  0.00    +0.000 OA
ENDBRANCH  11  18
ENDBRANCH   7  14
ENDBRANCH   1   9
BRANCH   4  19
ATOM     19  C   UNL     1       3.221   5.812  19.186  0.00  0.00    +0.000 C 
ATOM     20  O   UNL     1       3.246   4.827  19.915  0.00  0.00    +0.000 OA
BRANCH  19  21
ATOM     21  C   UNL     1       4.044   5.888  17.954  0.00  0.00    +0.000 C 
ATOM     22  C   UNL     1       4.714   4.810  17.505  0.00  0.00    +0.000 C 
BRANCH  22  23
ATOM     23  C   UNL     1       5.624   4.879  16.348  0.00  0.00    +0.000 A 
ATOM     24  N   UNL     1       5.203   4.202  15.245  0.00  0.00    +0.000 NA
ATOM     25  C   UNL     1       5.966   4.280  14.124  0.00  0.00    +0.000 A 
ATOM     26  C   UNL     1       5.462   3.512  12.942  0.00  0.00    +0.000 C 
ATOM     27  C   UNL     1       7.136   5.034  14.094  0.00  0.00    +0.000 A 
ATOM     28  C   UNL     1       7.985   5.188  12.870  0.00  0.00    +0.000 C 
ATOM     29  N   UNL     1       7.577   5.689  15.197  0.00  0.00    +0.000 NA
ATOM     30  C   UNL     1       6.820   5.601  16.326  0.00  0.00    +0.000 A 
ATOM     31  C   UNL     1       7.364   6.324  17.521  0.00  0.00    +0.000 C 
ENDBRANCH  22  23
ENDBRANCH  19  21
ENDBRANCH   4  19
TORSDOF 6
ENDMDL
MODEL 6
REMARK VINA RESULT:      -7.8      1.460      2.040
REMARK  Name = 
REMARK  10 active torsions:
REMARK  status: ('A' for Active; 'I' for Inactive)
REMARK    1  A    between atoms: C_1  and  O_2
REMARK    2  A    between atoms: O_2  and  C_3
REMARK    3  A    between atoms: C_6  and  C_7
REMARK    4  A    between atoms: N_9  and  C_10
REMARK    5  A    between atoms: C_13  and  C_14
REMARK    6  A    between atoms: C_14  and  C_16
REMARK    7  A    between atoms: C_17  and  C_18
REMARK    8  A    between atoms: C_20  and  C_21
REMARK    9  A    between atoms: C_22  and  C_23
REMARK   10  A    between atoms: C_25  and  C_26
REMARK                            x       y       z     vdW  Elec       q    Type
REMARK                         _______ _______ _______ _____ _____    ______ ____
ROOT
ATOM      1  C   UNL     1       0.821   9.788  19.857  0.00  0.00    +0.000 A 
ATOM      2  C   UNL     1       1.431   9.500  18.629  0.00  0.00    +0.000 A 
ATOM      3  C   UNL     1       2.110   8.293  18.423  0.00  0.00    +0.000 A 
ATOM      4  C   UNL     1       2.183   7.339  19.436  0.00  0.00    +0.000 A 
ATOM      5  C   UNL     1       1.564   7.607  20.664  0.00  0.00    +0.000 A 
ATOM      6  C   UNL     1       0.899   8.834  20.872  0.00  0.00    +0.000 A 
ENDROOT
BRANCH   1   9
ATOM      7  C   UNL     1       0.703  12.087  20.793  0.00  0.00    +0.000 C 
ATOM      8  O   UNL     1       1.858  12.157  21.205  0.00  0.00    +0.000 OA
ATOM      9  N   UNL     1       0.154  11.018  20.102  0.00  0.00    +0.000 N 
ATOM     10  H   UNL     1      -0.736  11.160  19.638  0.00  0.00    +0.000 HD
BRANCH   7  14
ATOM     11  C   UNL     1      -1.921  15.397  21.530  0.00  0.00    +0.000 A 
ATOM     12  C   UNL     1      -1.556  14.521  22.551  0.00  0.00    +0.000 A 
ATOM     13  C   UNL     1      -0.670  13.477  22.294  0.00  0.00    +0.000 A 
ATOM     14  C   UNL     1      -0.142  13.288  21.007  0.00  0.00    +0.000 A 
ATOM     15  C   UNL     1      -0.520  14.152  19.977  0.00  0.00    +0.000 A 
ATOM     16  C   UNL     1      -1.409  15.205  20.243  0.00  0.00    +0.000 A 
BRANCH  11  18
ATOM     17  C   UNL     1      -2.901  16.644  23.280  0.00  0.00    +0.000 C 
ATOM     18  O   UNL     1      -2.827  16.355  21.889  0.00  0.00    +0.000 OA
ENDBRANCH  11  18
ENDBRANCH   7  14
ENDBRANCH   1   9
BRANCH   4  19
ATOM     19  C   UNL     1       2.970   6.103  19.156  0.00  0.00    +0.000 C 
ATOM     20  O   UNL     1       2.970   5.175  19.956  0.00  0.00    +0.000 OA
BRANCH  19  21
ATOM     21  C   UNL     1       3.789   6.061  17.919  0.00  0.00    +0.000 C 
ATOM     22  C   UNL     1       4.698   5.086  17.725  0.00  0.00    +0.000 C 
BRANCH  22  23
ATOM     23  C   UNL     1       5.600   5.077  16.561  0.00  0.00    +0.000 A 
ATOM     24  N   UNL     1       5.127   4.408  15.474  0.00  0.00    +0.000 NA
ATOM     25  C   UNL     1       5.884   4.417  14.346  0.00  0.00    +0.000 A 
ATOM     26  C   UNL     1       5.322   3.662  13.182  0.00  0.00    +0.000 C 
ATOM     27  C   UNL     1       7.098   5.094  14.292  0.00  0.00    +0.000 A 
ATOM     28  C   UNL     1       7.945   5.172  13.059  0.00  0.00    +0.000 C 
ATOM     29  N   UNL     1       7.590   5.740  15.379  0.00  0.00    +0.000 NA
ATOM     30  C   UNL     1       6.839   5.721  16.516  0.00  0.00    +0.000 A 
ATOM     31  C   UNL     1       7.437   6.429  17.693  0.00  0.00    +0.000 C 
ENDBRANCH  22  23
ENDBRANCH  19  21
ENDBRANCH   4  19
TORSDOF 6
ENDMDL
MODEL 7
REMARK VINA RESULT:      -7.8      0.890      1.265
REMARK  Name = 
REMARK  10 active torsions:
REMARK  status: ('A' for Active; 'I' for Inactive)
REMARK    1  A    between atoms: C_1  and  O_2
REMARK    2  A    between atoms: O_2  and  C_3
REMARK    3  A    between atoms: C_6  and  C_7
REMARK    4  A    between atoms: N_9  and  C_10
REMARK    5  A    between atoms: C_13  and  C_14
REMARK    6  A    between atoms: C_14  and  C_16
REMARK    7  A    between atoms: C_17  and  C_18
REMARK    8  A    between atoms: C_20  and  C_21
REMARK    9  A    between atoms: C_22  and  C_23
REMARK   10  A    between atoms: C_25  and  C_26
REMARK                            x       y       z     vdW  Elec       q    Type
REMARK                         _______ _______ _______ _____ _____    ______ ____
ROOT
ATOM      1  C   UNL     1       1.414   8.697  19.860  0.00  0.00    +0.000 A 
ATOM      2  C   UNL     1       1.857   8.396  18.566  0.00  0.00    +0.000 A 
ATOM      3  C   UNL     1       2.255   7.099  18.219  0.00  0.00    +0.000 A 
ATOM      4  C   UNL     1       2.207   6.069  19.156  0.00  0.00    +0.000 A 
ATOM      5  C   UNL     1       1.751   6.352  20.450  0.00  0.00    +0.000 A 
ATOM      6  C   UNL     1       1.371   7.665  20.799  0.00  0.00    +0.000 A 
ENDROOT
BRANCH   1   9
ATOM      7  C   UNL     1      -0.161  10.618  19.900  0.00  0.00    +0.000 C 
ATOM      8  O   UNL     1      -1.089  10.084  19.298  0.00  0.00    +0.000 OA
ATOM      9  N   UNL     1       1.035  10.010  20.246  0.00  0.00    +0.000 N 
ATOM     10  H   UNL     1       1.632  10.484  20.916  0.00  0.00    +0.000 HD
BRANCH   7  14
ATOM     11  C   UNL     1      -0.721  14.586  21.425  0.00  0.00    +0.000 A 
ATOM     12  C   UNL     1       0.499  13.926  21.556  0.00  0.00    +0.000 A 
ATOM     13  C   UNL     1       0.668  12.652  21.016  0.00  0.00    +0.000 A 
ATOM     14  C   UNL     1      -0.388  12.016  20.344  0.00  0.00    +0.000 A 
ATOM     15  C   UNL     1      -1.618  12.667  20.227  0.00  0.00    +0.000 A 
ATOM     16  C   UNL     1      -1.780  13.952  20.769  0.00  0.00    +0.000 A 
BRANCH  11  18
ATOM     17  C   UNL     1      -0.184  15.893  23.318  0.00  0.00    +0.000 C 
ATOM     18  O   UNL     1      -0.781  15.810  22.030  0.00  0.00    +0.000 OA
ENDBRANCH  11  18
ENDBRANCH   7  14
ENDBRANCH   1   9
BRANCH   4  19
ATOM     19  C   UNL     1       2.700   4.728  18.724  0.00  0.00    +0.000 C 
ATOM     20  O   UNL     1       2.441   3.731  19.388  0.00  0.00    +0.000 OA
BRANCH  19  21
ATOM     21  C   UNL     1       3.552   4.655  17.511  0.00  0.00    +0.000 C 
ATOM     22  C   UNL     1       4.882   4.855  17.590  0.00  0.00    +0.000 C 
BRANCH  22  23
ATOM     23  C   UNL     1       5.739   4.895  16.392  0.00  0.00    +0.000 A 
ATOM     24  N   UNL     1       5.267   4.198  15.324  0.00  0.00    +0.000 NA
ATOM     25  C   UNL     1       5.979   4.248  14.169  0.00  0.00    +0.000 A 
ATOM     26  C   UNL     1       5.420   3.458  13.027  0.00  0.00    +0.000 C 
ATOM     27  C   UNL     1       7.149   4.995  14.070  0.00  0.00    +0.000 A 
ATOM     28  C   UNL     1       7.944   5.120  12.806  0.00  0.00    +0.000 C 
ATOM     29  N   UNL     1       7.642   5.672  15.138  0.00  0.00    +0.000 NA
ATOM     30  C   UNL     1       6.936   5.611  16.302  0.00  0.00    +0.000 A 
ATOM     31  C   UNL     1       7.535   6.356  17.456  0.00  0.00    +0.000 C 
ENDBRANCH  22  23
ENDBRANCH  19  21
ENDBRANCH   4  19
TORSDOF 6
ENDMDL
MODEL 8
REMARK VINA RESULT:      -7.8      1.630      2.075
REMARK  Name = 
REMARK  10 active torsions:
REMARK  status: ('A' for Active; 'I' for Inactive)
REMARK    1  A    between atoms: C_1  and  O_2
REMARK    2  A    between atoms: O_2  and  C_3
REMARK    3  A    between atoms: C_6  and  C_7
REMARK    4  A    between atoms: N_9  and  C_10
REMARK    5  A    between atoms: C_13  and  C_14
REMARK    6  A    between atoms: C_14  and  C_16
REMARK    7  A    between atoms: C_17  and  C_18
REMARK    8  A    between atoms: C_20  and  C_21
REMARK    9  A    between atoms: C_22  and  C_23
REMARK   10  A    between atoms: C_25  and  C_26
REMARK                            x       y       z     vdW  Elec       q    Type
REMARK                         _______ _______ _______ _____ _____    ______ ____
ROOT
ATOM      1  C   UNL     1       0.936   9.502  20.056  0.00  0.00    +0.000 A 
ATOM      2  C   UNL     1       1.578   9.280  18.832  0.00  0.00    +0.000 A 
ATOM      3  C   UNL     1       2.224   8.067  18.561  0.00  0.00    +0.000 A 
ATOM      4  C   UNL     1       2.232   7.042  19.506  0.00  0.00    +0.000 A 
ATOM      5  C   UNL     1       1.580   7.245  20.729  0.00  0.00    +0.000 A 
ATOM      6  C   UNL     1       0.948   8.476  21.003  0.00  0.00    +0.000 A 
ENDROOT
BRANCH   1   9
ATOM      7  C   UNL     1      -0.898  11.162  19.819  0.00  0.00    +0.000 C 
ATOM      8  O   UNL     1      -1.617  10.508  19.068  0.00  0.00    +0.000 OA
ATOM      9  N   UNL     1       0.300  10.734  20.368  0.00  0.00    +0.000 N 
ATOM     10  H   UNL     1       0.695  11.276  21.129  0.00  0.00    +0.000 HD
BRANCH   7  14
ATOM     11  C   UNL     1      -2.578  14.986  20.789  0.00  0.00    +0.000 A 
ATOM     12  C   UNL     1      -3.345  13.824  20.840  0.00  0.00    +0.000 A 
ATOM     13  C   UNL     1      -2.765  12.589  20.560  0.00  0.00    +0.000 A 
ATOM     14  C   UNL     1      -1.408  12.499  20.214  0.00  0.00    +0.000 A 
ATOM     15  C   UNL     1      -0.639  13.663  20.143  0.00  0.00    +0.000 A 
ATOM     16  C   UNL     1      -1.228  14.904  20.431  0.00  0.00    +0.000 A 
BRANCH  11  18
ATOM     17  C   UNL     1      -4.129  16.111  22.170  0.00  0.00    +0.000 C 
ATOM     18  O   UNL     1      -3.263  16.141  21.042  0.00  0.00    +0.000 OA
ENDBRANCH  11  18
ENDBRANCH   7  14
ENDBRANCH   1   9
BRANCH   4  19
ATOM     19  C   UNL     1       2.989   5.803  19.164  0.00  0.00    +0.000 C 
ATOM     20  O   UNL     1       2.991   4.848  19.932  0.00  0.00    +0.000 OA
BRANCH  19  21
ATOM     21  C   UNL     1       3.776   5.790  17.906  0.00  0.00    +0.000 C 
ATOM     22  C   UNL     1       4.818   4.951  17.753  0.00  0.00    +0.000 C 
BRANCH  22  23
ATOM     23  C   UNL     1       5.685   4.987  16.562  0.00  0.00    +0.000 A 
ATOM     24  N   UNL     1       5.210   4.306  15.485  0.00  0.00    +0.000 NA
ATOM     25  C   UNL     1       5.931   4.354  14.335  0.00  0.00    +0.000 A 
ATOM     26  C   UNL     1       5.367   3.582  13.183  0.00  0.00    +0.000 C 
ATOM     27  C   UNL     1       7.113   5.083  14.251  0.00  0.00    +0.000 A 
ATOM     28  C   UNL     1       7.918   5.205  12.994  0.00  0.00    +0.000 C 
ATOM     29  N   UNL     1       7.608   5.744  15.328  0.00  0.00    +0.000 NA
ATOM     30  C   UNL     1       6.893   5.685  16.486  0.00  0.00    +0.000 A 
ATOM     31  C   UNL     1       7.496   6.411  17.650  0.00  0.00    +0.000 C 
ENDBRANCH  22  23
ENDBRANCH  19  21
ENDBRANCH   4  19
TORSDOF 6
ENDMDL
MODEL 9
REMARK VINA RESULT:      -7.8      1.338      1.639
REMARK  Name = 
REMARK  10 active torsions:
REMARK  status: ('A' for Active; 'I' for Inactive)
REMARK    1  A    between atoms: C_1  and  O_2
REMARK    2  A    between atoms: O_2  and  C_3
REMARK    3  A    between atoms: C_6  and  C_7
REMARK    4  A    between atoms: N_9  and  C_10
REMARK    5  A    between atoms: C_13  and  C_14
REMARK    6  A    between atoms: C_14  and  C_16
REMARK    7  A    between atoms: C_17  and  C_18
REMARK    8  A    between atoms: C_20  and  C_21
REMARK    9  A    between atoms: C_22  and  C_23
REMARK   10  A    between atoms: C_25  and  C_26
REMARK                            x       y       z     vdW  Elec       q    Type
REMARK                         _______ _______ _______ _____ _____    ______ ____
ROOT
ATOM      1  C   UNL     1       1.021   9.368  20.159  0.00  0.00    +0.000 A 
ATOM      2  C   UNL     1       1.104   8.234  20.976  0.00  0.00    +0.000 A 
ATOM      3  C   UNL     1       1.717   7.059  20.525  0.00  0.00    +0.000 A 
ATOM      4  C   UNL     1       2.275   6.995  19.250  0.00  0.00    +0.000 A 
ATOM      5  C   UNL     1       2.213   8.127  18.427  0.00  0.00    +0.000 A 
ATOM      6  C   UNL     1       1.576   9.301  18.880  0.00  0.00    +0.000 A 
ENDROOT
BRANCH   1   9
ATOM      7  C   UNL     1      -0.805  11.049  20.045  0.00  0.00    +0.000 C 
ATOM      8  O   UNL     1      -1.502  10.481  19.208  0.00  0.00    +0.000 OA
ATOM      9  N   UNL     1       0.376  10.562  20.580  0.00  0.00    +0.000 N 
ATOM     10  H   UNL     1       0.748  11.019  21.406  0.00  0.00    +0.000 HD
BRANCH   7  14
ATOM     11  C   UNL     1      -2.561  14.670  21.526  0.00  0.00    +0.000 A 
ATOM     12  C   UNL     1      -2.868  13.433  22.090  0.00  0.00    +0.000 A 
ATOM     13  C   UNL     1      -2.253  12.276  21.617  0.00  0.00    +0.000 A 
ATOM     14  C   UNL     1      -1.327  12.338  20.564  0.00  0.00    +0.000 A 
ATOM     15  C   UNL     1      -1.030  13.574  19.984  0.00  0.00    +0.000 A 
ATOM     16  C   UNL     1      -1.649  14.736  20.468  0.00  0.00    +0.000 A 
BRANCH  11  18
ATOM     17  C   UNL     1      -2.522  16.937  22.189  0.00  0.00    +0.000 C 
ATOM     18  O   UNL     1      -3.256  15.727  22.042  0.00  0.00    +0.000 OA
ENDBRANCH  11  18
ENDBRANCH   7  14
ENDBRANCH   1   9
BRANCH   4  19
ATOM     19  C   UNL     1       2.861   5.690  18.824  0.00  0.00    +0.000 C 
ATOM     20  O   UNL     1       2.697   4.687  19.509  0.00  0.00    +0.000 OA
BRANCH  19  21
ATOM     21  C   UNL     1       3.686   5.664  17.591  0.00  0.00    +0.000 C 
ATOM     22  C   UNL     1       4.772   4.873  17.505  0.00  0.00    +0.000 C 
BRANCH  22  23
ATOM     23  C   UNL     1       5.672   4.902  16.339  0.00  0.00    +0.000 A 
ATOM     24  N   UNL     1       5.237   4.198  15.260  0.00  0.00    +0.000 NA
ATOM     25  C   UNL     1       5.990   4.238  14.130  0.00  0.00    +0.000 A 
ATOM     26  C   UNL     1       5.470   3.441  12.975  0.00  0.00    +0.000 C 
ATOM     27  C   UNL     1       7.165   4.982  14.068  0.00  0.00    +0.000 A 
ATOM     28  C   UNL     1       8.004   5.096  12.833  0.00  0.00    +0.000 C 
ATOM     29  N   UNL     1       7.620   5.666  15.148  0.00  0.00    +0.000 NA
ATOM     30  C   UNL     1       6.873   5.615  16.286  0.00  0.00    +0.000 A 
ATOM     31  C   UNL     1       7.432   6.368  17.455  0.00  0.00    +0.000 C 
ENDBRANCH  22  23
ENDBRANCH  19  21
ENDBRANCH   4  19
TORSDOF 6
ENDMDL
