MODEL 1
REMARK VINA RESULT:      -7.6      0.000      0.000
REMARK  Name = 
REMARK  6 active torsions:
REMARK  status: ('A' for Active; 'I' for Inactive)
REMARK    1  A    between atoms: C_1  and  C_2
REMARK    2  A    between atoms: C_2  and  C_3
REMARK    3  A    between atoms: C_2  and  N_4
REMARK    4  A    between atoms: N_7  and  C_8
REMARK    5  A    between atoms: C_10  and  C_11
REMARK    6  A    between atoms: C_18  and  C_19
REMARK                            x       y       z     vdW  Elec       q    Type
REMARK                         _______ _______ _______ _____ _____    ______ ____
ROOT
ATOM      1  C   UNL     1       5.378   5.363  16.848  0.00  0.00    +0.000 A 
ATOM      2  S   UNL     1       3.858   4.700  17.204  0.00  0.00    +0.000 S 
ATOM      3  C   UNL     1       4.213   4.602  18.882  0.00  0.00    +0.000 A 
ATOM      4  C   UNL     1       5.461   5.146  19.139  0.00  0.00    +0.000 A 
ATOM      5  C   UNL     1       6.131   5.654  17.966  0.00  0.00    +0.000 A 
ENDROOT
BRANCH   1   9
ATOM      6  N   UNL     1       6.123   4.627  13.441  0.00  0.00    +0.000 N 
ATOM      7  C   UNL     1       5.961   4.346  14.785  0.00  0.00    +0.000 C 
ATOM      8  O   UNL     1       6.007   3.210  15.244  0.00  0.00    +0.000 OA
ATOM      9  N   UNL     1       5.631   5.489  15.494  0.00  0.00    +0.000 N 
ATOM     10  H   UNL     1       6.583   5.509  13.257  0.00  0.00    +0.000 HD
ATOM     11  H   UNL     1       5.014   6.110  14.991  0.00  0.00    +0.000 HD
BRANCH   6  13
ATOM     12  C   UNL     1       5.041   3.126  11.834  0.00  0.00    +0.000 C 
ATOM     13  C   UNL     1       6.352   3.544  12.491  0.00  0.00    +0.000 C 
ATOM     14  C   UNL     1       7.387   3.929  11.436  0.00  0.00    +0.000 C 
ENDBRANCH   6  13
ENDBRANCH   1   9
BRANCH   3  15
ATOM     15  C   UNL     1       3.254   4.026  19.843  0.00  0.00    +0.000 A 
ATOM     16  C   UNL     1       1.945   4.529  19.920  0.00  0.00    +0.000 A 
ATOM     17  C   UNL     1       1.000   3.962  20.783  0.00  0.00    +0.000 A 
ATOM     18  C   UNL     1       1.353   2.881  21.589  0.00  0.00    +0.000 A 
ATOM     19  C   UNL     1       2.648   2.378  21.538  0.00  0.00    +0.000 A 
ATOM     20  C   UNL     1       3.589   2.942  20.671  0.00  0.00    +0.000 A 
ENDBRANCH   3  15
BRANCH   5  21
ATOM     21  C   UNL     1       7.378   6.412  17.944  0.00  0.00    +0.000 C 
ATOM     22  N   UNL     1       8.099   6.396  19.107  0.00  0.00    +0.000 N 
ATOM     23  O   UNL     1       7.766   7.074  16.987  0.00  0.00    +0.000 OA
ATOM     24  H   UNL     1       7.959   5.663  19.786  0.00  0.00    +0.000 HD
ATOM     25  H   UNL     1       9.014   6.821  19.052  0.00  0.00    +0.000 HD
ENDBRANCH   5  21
TORSDOF 4
ENDMDL
MODEL 2
REMARK VINA RESULT:      -7.6      2.319      6.914
REMARK  Name = 
REMARK  6 active torsions:
REMARK  status: ('A' for Active; 'I' for Inactive)
REMARK    1  A    between atoms: C_1  and  C_2
REMARK    2  A    between atoms: C_2  and  C_3
REMARK    3  A    between atoms: C_2  and  N_4
REMARK    4  A    between atoms: N_7  and  C_8
REMARK    5  A    between atoms: C_10  and  C_11
REMARK    6  A    between atoms: C_18  and  C_19
REMARK                            x       y       z     vdW  Elec       q    Type
REMARK                         _______ _______ _______ _____ _____    ______ ____
ROOT
ATOM      1  C   UNL     1       5.981   4.166  18.063  0.00  0.00    +0.000 A 
ATOM      2  S   UNL     1       5.654   3.455  16.559  0.00  0.00    +0.000 S 
ATOM      3  C   UNL     1       6.649   4.582  15.727  0.00  0.00    +0.000 A 
ATOM      4  C   UNL     1       7.264   5.432  16.631  0.00  0.00    +0.000 A 
ATOM      5  C   UNL     1       6.933   5.163  18.009  0.00  0.00    +0.000 A 
ENDROOT
BRANCH   1   9
ATOM      6  N   UNL     1       3.259   3.322  20.203  0.00  0.00    +0.000 N 
ATOM      7  C   UNL     1       3.880   3.960  19.146  0.00  0.00    +0.000 C 
ATOM      8  O   UNL     1       3.273   4.622  18.311  0.00  0.00    +0.000 OA
ATOM      9  N   UNL     1       5.229   3.650  19.103  0.00  0.00    +0.000 N 
ATOM     10  H   UNL     1       3.815   3.288  21.048  0.00  0.00    +0.000 HD
ATOM     11  H   UNL     1       5.429   2.693  19.353  0.00  0.00    +0.000 HD
BRANCH   6  13
ATOM     12  C   UNL     1       1.106   2.633  19.256  0.00  0.00    +0.000 C 
ATOM     13  C   UNL     1       1.812   3.411  20.362  0.00  0.00    +0.000 C 
ATOM     14  C   UNL     1       1.364   2.921  21.737  0.00  0.00    +0.000 C 
ENDBRANCH   6  13
ENDBRANCH   1   9
BRANCH   3  15
ATOM     15  C   UNL     1       6.786   4.556  14.259  0.00  0.00    +0.000 A 
ATOM     16  C   UNL     1       7.688   5.422  13.620  0.00  0.00    +0.000 A 
ATOM     17  C   UNL     1       7.877   5.377  12.234  0.00  0.00    +0.000 A 
ATOM     18  C   UNL     1       7.160   4.465  11.462  0.00  0.00    +0.000 A 
ATOM     19  C   UNL     1       6.251   3.609  12.074  0.00  0.00    +0.000 A 
ATOM     20  C   UNL     1       6.067   3.651  13.460  0.00  0.00    +0.000 A 
ENDBRANCH   3  15
BRANCH   5  21
ATOM     21  C   UNL     1       7.538   5.788  19.181  0.00  0.00    +0.000 C 
ATOM     22  N   UNL     1       8.267   6.919  18.937  0.00  0.00    +0.000 N 
ATOM     23  O   UNL     1       7.465   5.335  20.319  0.00  0.00    +0.000 OA
ATOM     24  H   UNL     1       8.117   7.453  18.094  0.00  0.00    +0.000 HD
ATOM     25  H   UNL     1       8.584   7.414  19.758  0.00  0.00    +0.000 HD
ENDBRANCH   5  21
TORSDOF 4
ENDMDL
MODEL 3
REMARK VINA RESULT:      -7.5      2.274      6.960
REMARK  Name = 
REMARK  6 active torsions:
REMARK  status: ('A' for Active; 'I' for Inactive)
REMARK    1  A    between atoms: C_1  and  C_2
REMARK    2  A    between atoms: C_2  and  C_3
REMARK    3  A    between atoms: C_2  and  N_4
REMARK    4  A    between atoms: N_7  and  C_8
REMARK    5  A    between atoms: C_10  and  C_11
REMARK    6  A    between atoms: C_18  and  C_19
REMARK                            x       y       z     vdW  Elec       q    Type
REMARK                         _______ _______ _______ _____ _____    ______ ____
ROOT
ATOM      1  C   UNL     1       6.044   4.336  18.099  0.00  0.00    +0.000 A 
ATOM      2  S   UNL     1       5.684   3.601  16.614  0.00  0.00    +0.000 S 
ATOM      3  C   UNL     1       6.756   4.636  15.758  0.00  0.00    +0.000 A 
ATOM      4  C   UNL     1       7.418   5.472  16.642  0.00  0.00    +0.000 A 
ATOM      5  C   UNL     1       7.059   5.268  18.024  0.00  0.00    +0.000 A 
ENDROOT
BRANCH   1   9
ATOM      6  N   UNL     1       3.253   3.723  20.229  0.00  0.00    +0.000 N 
ATOM      7  C   UNL     1       3.922   4.286  19.157  0.00  0.00    +0.000 C 
ATOM      8  O   UNL     1       3.362   4.947  18.289  0.00  0.00    +0.000 OA
ATOM      9  N   UNL     1       5.252   3.902  19.146  0.00  0.00    +0.000 N 
ATOM     10  H   UNL     1       3.796   3.691  21.082  0.00  0.00    +0.000 HD
ATOM     11  H   UNL     1       5.396   2.945  19.434  0.00  0.00    +0.000 HD
BRANCH   6  13
ATOM     12  C   UNL     1       1.233   2.845  21.304  0.00  0.00    +0.000 C 
ATOM     13  C   UNL     1       1.811   3.897  20.362  0.00  0.00    +0.000 C 
ATOM     14  C   UNL     1       1.454   5.303  20.839  0.00  0.00    +0.000 C 
ENDBRANCH   6  13
ENDBRANCH   1   9
BRANCH   3  15
ATOM     15  C   UNL     1       6.903   4.557  14.293  0.00  0.00    +0.000 A 
ATOM     16  C   UNL     1       6.149   3.627  13.558  0.00  0.00    +0.000 A 
ATOM     17  C   UNL     1       6.229   3.572  12.162  0.00  0.00    +0.000 A 
ATOM     18  C   UNL     1       7.071   4.445  11.477  0.00  0.00    +0.000 A 
ATOM     19  C   UNL     1       7.837   5.363  12.187  0.00  0.00    +0.000 A 
ATOM     20  C   UNL     1       7.752   5.421  13.581  0.00  0.00    +0.000 A 
ENDBRANCH   3  15
BRANCH   5  21
ATOM     21  C   UNL     1       7.694   5.887  19.183  0.00  0.00    +0.000 C 
ATOM     22  N   UNL     1       8.364   7.054  18.935  0.00  0.00    +0.000 N 
ATOM     23  O   UNL     1       7.694   5.404  20.311  0.00  0.00    +0.000 OA
ATOM     24  H   UNL     1       8.152   7.602  18.115  0.00  0.00    +0.000 HD
ATOM     25  H   UNL     1       8.700   7.540  19.754  0.00  0.00    +0.000 HD
ENDBRANCH   5  21
TORSDOF 4
ENDMDL
MODEL 4
REMARK VINA RESULT:      -7.4      0.071      1.053
REMARK  Name = 
REMARK  6 active torsions:
REMARK  status: ('A' for Active; 'I' for Inactive)
REMARK    1  A    between atoms: C_1  and  C_2
REMARK    2  A    between atoms: C_2  and  C_3
REMARK    3  A    between atoms: C_2  and  N_4
REMARK    4  A    between atoms: N_7  and  C_8
REMARK    5  A    between atoms: C_10  and  C_11
REMARK    6  A    between atoms: C_18  and  C_19
REMARK                            x       y       z     vdW  Elec       q    Type
REMARK                         _______ _______ _______ _____ _____    ______ ____
ROOT
ATOM      1  C   UNL     1       5.444   5.363  16.845  0.00  0.00    +0.000 A 
ATOM      2  S   UNL     1       3.918   4.688  17.148  0.00  0.00    +0.000 S 
ATOM      3  C   UNL     1       4.217   4.587  18.837  0.00  0.00    +0.000 A 
ATOM      4  C   UNL     1       5.451   5.140  19.137  0.00  0.00    +0.000 A 
ATOM      5  C   UNL     1       6.157   5.656  17.989  0.00  0.00    +0.000 A 
ENDROOT
BRANCH   1   9
ATOM      6  N   UNL     1       6.229   4.637  13.445  0.00  0.00    +0.000 N 
ATOM      7  C   UNL     1       6.013   4.345  14.779  0.00  0.00    +0.000 C 
ATOM      8  O   UNL     1       5.970   3.200  15.217  0.00  0.00    +0.000 OA
ATOM      9  N   UNL     1       5.742   5.495  15.501  0.00  0.00    +0.000 N 
ATOM     10  H   UNL     1       6.753   5.488  13.289  0.00  0.00    +0.000 HD
ATOM     11  H   UNL     1       5.181   6.164  14.994  0.00  0.00    +0.000 HD
BRANCH   6  13
ATOM     12  C   UNL     1       5.070   3.148  11.882  0.00  0.00    +0.000 C 
ATOM     13  C   UNL     1       6.411   3.558  12.481  0.00  0.00    +0.000 C 
ATOM     14  C   UNL     1       7.399   3.943  11.382  0.00  0.00    +0.000 C 
ENDBRANCH   6  13
ENDBRANCH   1   9
BRANCH   3  15
ATOM     15  C   UNL     1       3.230   4.001  19.763  0.00  0.00    +0.000 A 
ATOM     16  C   UNL     1       3.598   2.939  20.605  0.00  0.00    +0.000 A 
ATOM     17  C   UNL     1       2.697   2.404  21.532  0.00  0.00    +0.000 A 
ATOM     18  C   UNL     1       1.407   2.922  21.629  0.00  0.00    +0.000 A 
ATOM     19  C   UNL     1       1.018   3.964  20.794  0.00  0.00    +0.000 A 
ATOM     20  C   UNL     1       1.922   4.501  19.872  0.00  0.00    +0.000 A 
ENDBRANCH   3  15
BRANCH   5  21
ATOM     21  C   UNL     1       7.398   6.423  18.011  0.00  0.00    +0.000 C 
ATOM     22  N   UNL     1       8.117   6.350  19.173  0.00  0.00    +0.000 N 
ATOM     23  O   UNL     1       7.784   7.138  17.091  0.00  0.00    +0.000 OA
ATOM     24  H   UNL     1       7.981   5.581  19.812  0.00  0.00    +0.000 HD
ATOM     25  H   UNL     1       9.029   6.783  19.143  0.00  0.00    +0.000 HD
ENDBRANCH   5  21
TORSDOF 4
ENDMDL
MODEL 5
REMARK VINA RESULT:      -7.4      2.183      6.888
REMARK  Name = 
REMARK  6 active torsions:
REMARK  status: ('A' for Active; 'I' for Inactive)
REMARK    1  A    between atoms: C_1  and  C_2
REMARK    2  A    between atoms: C_2  and  C_3
REMARK    3  A    between atoms: C_2  and  N_4
REMARK    4  A    between atoms: N_7  and  C_8
REMARK    5  A    between atoms: C_10  and  C_11
REMARK    6  A    between atoms: C_18  and  C_19
REMARK                            x       y       z     vdW  Elec       q    Type
REMARK                         _______ _______ _______ _____ _____    ______ ____
ROOT
ATOM      1  C   UNL     1       5.468   4.957  18.006  0.00  0.00    +0.000 A 
ATOM      2  S   UNL     1       4.965   4.337  16.510  0.00  0.00    +0.000 S 
ATOM      3  C   UNL     1       6.417   4.829  15.735  0.00  0.00    +0.000 A 
ATOM      4  C   UNL     1       7.283   5.392  16.658  0.00  0.00    +0.000 A 
ATOM      5  C   UNL     1       6.768   5.419  18.005  0.00  0.00    +0.000 A 
ENDROOT
BRANCH   1   9
ATOM      6  N   UNL     1       2.828   3.875  20.141  0.00  0.00    +0.000 N 
ATOM      7  C   UNL     1       3.710   3.782  19.080  0.00  0.00    +0.000 C 
ATOM      8  O   UNL     1       3.833   2.772  18.396  0.00  0.00    +0.000 OA
ATOM      9  N   UNL     1       4.492   4.921  18.985  0.00  0.00    +0.000 N 
ATOM     10  H   UNL     1       2.429   4.796  20.266  0.00  0.00    +0.000 HD
ATOM     11  H   UNL     1       4.759   5.300  19.882  0.00  0.00    +0.000 HD
BRANCH   6  13
ATOM     12  C   UNL     1       1.716   2.725  21.998  0.00  0.00    +0.000 C 
ATOM     13  C   UNL     1       1.993   2.733  20.499  0.00  0.00    +0.000 C 
ATOM     14  C   UNL     1       0.687   2.720  19.709  0.00  0.00    +0.000 C 
ENDBRANCH   6  13
ENDBRANCH   1   9
BRANCH   3  15
ATOM     15  C   UNL     1       6.633   4.618  14.291  0.00  0.00    +0.000 A 
ATOM     16  C   UNL     1       7.607   5.364  13.608  0.00  0.00    +0.000 A 
ATOM     17  C   UNL     1       7.870   5.142  12.252  0.00  0.00    +0.000 A 
ATOM     18  C   UNL     1       7.156   4.171  11.553  0.00  0.00    +0.000 A 
ATOM     19  C   UNL     1       6.177   3.432  12.208  0.00  0.00    +0.000 A 
ATOM     20  C   UNL     1       5.919   3.650  13.565  0.00  0.00    +0.000 A 
ENDBRANCH   3  15
BRANCH   5  21
ATOM     21  C   UNL     1       7.503   5.809  19.204  0.00  0.00    +0.000 C 
ATOM     22  N   UNL     1       8.363   6.862  19.053  0.00  0.00    +0.000 N 
ATOM     23  O   UNL     1       7.424   5.228  20.282  0.00  0.00    +0.000 OA
ATOM     24  H   UNL     1       8.245   7.514  18.291  0.00  0.00    +0.000 HD
ATOM     25  H   UNL     1       8.780   7.204  19.907  0.00  0.00    +0.000 HD
ENDBRANCH   5  21
TORSDOF 4
ENDMDL
MODEL 6
REMARK VINA RESULT:      -7.4      0.837      1.094
REMARK  Name = 
REMARK  6 active torsions:
REMARK  status: ('A' for Active; 'I' for Inactive)
REMARK    1  A    between atoms: C_1  and  C_2
REMARK    2  A    between atoms: C_2  and  C_3
REMARK    3  A    between atoms: C_2  and  N_4
REMARK    4  A    between atoms: N_7  and  C_8
REMARK    5  A    between atoms: C_10  and  C_11
REMARK    6  A    between atoms: C_18  and  C_19
REMARK                            x       y       z     vdW  Elec       q    Type
REMARK                         _______ _______ _______ _____ _____    ______ ____
ROOT
ATOM      1  C   UNL     1       6.034   4.351  17.100  0.00  0.00    +0.000 A 
ATOM      2  S   UNL     1       4.620   3.474  17.425  0.00  0.00    +0.000 S 
ATOM      3  C   UNL     1       4.419   4.223  18.958  0.00  0.00    +0.000 A 
ATOM      4  C   UNL     1       5.401   5.181  19.153  0.00  0.00    +0.000 A 
ATOM      5  C   UNL     1       6.319   5.312  18.047  0.00  0.00    +0.000 A 
ENDROOT
BRANCH   1   9
ATOM      6  N   UNL     1       6.813   3.673  13.689  0.00  0.00    +0.000 N 
ATOM      7  C   UNL     1       6.006   4.048  14.747  0.00  0.00    +0.000 C 
ATOM      8  O   UNL     1       4.876   4.500  14.602  0.00  0.00    +0.000 OA
ATOM      9  N   UNL     1       6.689   3.953  15.949  0.00  0.00    +0.000 N 
ATOM     10  H   UNL     1       7.414   2.884  13.889  0.00  0.00    +0.000 HD
ATOM     11  H   UNL     1       7.658   4.225  15.882  0.00  0.00    +0.000 HD
BRANCH   6  13
ATOM     12  C   UNL     1       7.395   4.478  11.449  0.00  0.00    +0.000 C 
ATOM     13  C   UNL     1       6.333   3.815  12.319  0.00  0.00    +0.000 C 
ATOM     14  C   UNL     1       5.912   2.472  11.727  0.00  0.00    +0.000 C 
ENDBRANCH   6  13
ENDBRANCH   1   9
BRANCH   3  15
ATOM     15  C   UNL     1       3.314   3.853  19.861  0.00  0.00    +0.000 A 
ATOM     16  C   UNL     1       2.083   4.525  19.781  0.00  0.00    +0.000 A 
ATOM     17  C   UNL     1       1.002   4.153  20.589  0.00  0.00    +0.000 A 
ATOM     18  C   UNL     1       1.137   3.104  21.495  0.00  0.00    +0.000 A 
ATOM     19  C   UNL     1       2.352   2.436  21.600  0.00  0.00    +0.000 A 
ATOM     20  C   UNL     1       3.430   2.804  20.789  0.00  0.00    +0.000 A 
ENDBRANCH   3  15
BRANCH   5  21
ATOM     21  C   UNL     1       7.354   6.331  17.900  0.00  0.00    +0.000 C 
ATOM     22  N   UNL     1       8.138   6.539  19.002  0.00  0.00    +0.000 N 
ATOM     23  O   UNL     1       7.514   7.012  16.892  0.00  0.00    +0.000 OA
ATOM     24  H   UNL     1       8.217   5.831  19.716  0.00  0.00    +0.000 HD
ATOM     25  H   UNL     1       8.925   7.156  18.861  0.00  0.00    +0.000 HD
ENDBRANCH   5  21
TORSDOF 4
ENDMDL
MODEL 7
REMARK VINA RESULT:      -7.3      0.963      1.535
REMARK  Name = 
REMARK  6 active torsions:
REMARK  status: ('A' for Active; 'I' for Inactive)
REMARK    1  A    between atoms: C_1  and  C_2
REMARK    2  A    between atoms: C_2  and  C_3
REMARK    3  A    between atoms: C_2  and  N_4
REMARK    4  A    between atoms: N_7  and  C_8
REMARK    5  A    between atoms: C_10  and  C_11
REMARK    6  A    between atoms: C_18  and  C_19
REMARK                            x       y       z     vdW  Elec       q    Type
REMARK                         _______ _______ _______ _____ _____    ______ ____
ROOT
ATOM      1  C   UNL     1       6.046   4.209  17.012  0.00  0.00    +0.000 A 
ATOM      2  S   UNL     1       4.618   3.356  17.345  0.00  0.00    +0.000 S 
ATOM      3  C   UNL     1       4.401   4.161  18.847  0.00  0.00    +0.000 A 
ATOM      4  C   UNL     1       5.389   5.116  19.025  0.00  0.00    +0.000 A 
ATOM      5  C   UNL     1       6.325   5.201  17.930  0.00  0.00    +0.000 A 
ENDROOT
BRANCH   1   9
ATOM      6  N   UNL     1       6.941   3.539  13.628  0.00  0.00    +0.000 N 
ATOM      7  C   UNL     1       6.124   3.982  14.652  0.00  0.00    +0.000 C 
ATOM      8  O   UNL     1       5.070   4.577  14.460  0.00  0.00    +0.000 OA
ATOM      9  N   UNL     1       6.715   3.766  15.886  0.00  0.00    +0.000 N 
ATOM     10  H   UNL     1       7.426   2.675  13.832  0.00  0.00    +0.000 HD
ATOM     11  H   UNL     1       7.713   3.915  15.885  0.00  0.00    +0.000 HD
BRANCH   6  13
ATOM     12  C   UNL     1       7.386   4.930  11.660  0.00  0.00    +0.000 C 
ATOM     13  C   UNL     1       6.567   3.781  12.240  0.00  0.00    +0.000 C 
ATOM     14  C   UNL     1       6.721   2.524  11.386  0.00  0.00    +0.000 C 
ENDBRANCH   6  13
ENDBRANCH   1   9
BRANCH   3  15
ATOM     15  C   UNL     1       3.278   3.832  19.745  0.00  0.00    +0.000 A 
ATOM     16  C   UNL     1       3.394   2.773  20.660  0.00  0.00    +0.000 A 
ATOM     17  C   UNL     1       2.365   2.478  21.561  0.00  0.00    +0.000 A 
ATOM     18  C   UNL     1       1.197   3.237  21.557  0.00  0.00    +0.000 A 
ATOM     19  C   UNL     1       1.056   4.280  20.649  0.00  0.00    +0.000 A 
ATOM     20  C   UNL     1       2.087   4.578  19.753  0.00  0.00    +0.000 A 
ENDBRANCH   3  15
BRANCH   5  21
ATOM     21  C   UNL     1       7.372   6.204  17.765  0.00  0.00    +0.000 C 
ATOM     22  N   UNL     1       8.020   6.575  18.911  0.00  0.00    +0.000 N 
ATOM     23  O   UNL     1       7.651   6.741  16.698  0.00  0.00    +0.000 OA
ATOM     24  H   UNL     1       8.012   5.974  19.722  0.00  0.00    +0.000 HD
ATOM     25  H   UNL     1       8.819   7.178  18.779  0.00  0.00    +0.000 HD
ENDBRANCH   5  21
TORSDOF 4
ENDMDL
MODEL 8
REMARK VINA RESULT:      -7.2      1.145      1.269
REMARK  Name = 
REMARK  6 active torsions:
REMARK  status: ('A' for Active; 'I' for Inactive)
REMARK    1  A    between atoms: C_1  and  C_2
REMARK    2  A    between atoms: C_2  and  C_3
REMARK    3  A    between atoms: C_2  and  N_4
REMARK    4  A    between atoms: N_7  and  C_8
REMARK    5  A    between atoms: C_10  and  C_11
REMARK    6  A    between atoms: C_18  and  C_19
REMARK                            x       y       z     vdW  Elec       q    Type
REMARK                         _______ _______ _______ _____ _____    ______ ____
ROOT
ATOM      1  C   UNL     1       5.885   5.636  17.281  0.00  0.00    +0.000 A 
ATOM      2  S   UNL     1       4.254   5.188  17.163  0.00  0.00    +0.000 S 
ATOM      3  C   UNL     1       4.192   4.703  18.809  0.00  0.00    +0.000 A 
ATOM      4  C   UNL     1       5.403   4.963  19.429  0.00  0.00    +0.000 A 
ATOM      5  C   UNL     1       6.386   5.568  18.564  0.00  0.00    +0.000 A 
ENDROOT
BRANCH   1   9
ATOM      6  N   UNL     1       7.234   5.479  13.986  0.00  0.00    +0.000 N 
ATOM      7  C   UNL     1       6.718   4.968  15.162  0.00  0.00    +0.000 C 
ATOM      8  O   UNL     1       6.438   3.784  15.315  0.00  0.00    +0.000 OA
ATOM      9  N   UNL     1       6.461   5.981  16.072  0.00  0.00    +0.000 N 
ATOM     10  H   UNL     1       7.885   6.242  14.118  0.00  0.00    +0.000 HD
ATOM     11  H   UNL     1       6.106   6.824  15.644  0.00  0.00    +0.000 HD
BRANCH   6  13
ATOM     12  C   UNL     1       6.274   3.662  12.651  0.00  0.00    +0.000 C 
ATOM     13  C   UNL     1       7.461   4.599  12.846  0.00  0.00    +0.000 C 
ATOM     14  C   UNL     1       7.741   5.389  11.569  0.00  0.00    +0.000 C 
ENDBRANCH   6  13
ENDBRANCH   1   9
BRANCH   3  15
ATOM     15  C   UNL     1       2.971   4.123  19.400  0.00  0.00    +0.000 A 
ATOM     16  C   UNL     1       2.081   3.389  18.599  0.00  0.00    +0.000 A 
ATOM     17  C   UNL     1       0.946   2.781  19.147  0.00  0.00    +0.000 A 
ATOM     18  C   UNL     1       0.679   2.903  20.509  0.00  0.00    +0.000 A 
ATOM     19  C   UNL     1       1.540   3.638  21.317  0.00  0.00    +0.000 A 
ATOM     20  C   UNL     1       2.677   4.239  20.769  0.00  0.00    +0.000 A 
ENDBRANCH   3  15
BRANCH   5  21
ATOM     21  C   UNL     1       7.688   6.089  18.967  0.00  0.00    +0.000 C 
ATOM     22  N   UNL     1       8.316   5.400  19.969  0.00  0.00    +0.000 N 
ATOM     23  O   UNL     1       8.200   7.103  18.502  0.00  0.00    +0.000 OA
ATOM     24  H   UNL     1       8.066   4.442  20.166  0.00  0.00    +0.000 HD
ATOM     25  H   UNL     1       9.264   5.690  20.164  0.00  0.00    +0.000 HD
ENDBRANCH   5  21
TORSDOF 4
ENDMDL
MODEL 9
REMARK VINA RESULT:      -7.1      1.325      1.570
REMARK  Name = 
REMARK  6 active torsions:
REMARK  status: ('A' for Active; 'I' for Inactive)
REMARK    1  A    between atoms: C_1  and  C_2
REMARK    2  A    between atoms: C_2  and  C_3
REMARK    3  A    between atoms: C_2  and  N_4
REMARK    4  A    between atoms: N_7  and  C_8
REMARK    5  A    between atoms: C_10  and  C_11
REMARK    6  A    between atoms: C_18  and  C_19
REMARK                            x       y       z     vdW  Elec       q    Type
REMARK                         _______ _______ _______ _____ _____    ______ ____
ROOT
ATOM      1  C   UNL     1       6.083   4.503  17.266  0.00  0.00    +0.000 A 
ATOM      2  S   UNL     1       4.683   3.573  17.494  0.00  0.00    +0.000 S 
ATOM      3  C   UNL     1       4.382   4.271  19.035  0.00  0.00    +0.000 A 
ATOM      4  C   UNL     1       5.322   5.252  19.306  0.00  0.00    +0.000 A 
ATOM      5  C   UNL     1       6.290   5.444  18.253  0.00  0.00    +0.000 A 
ENDROOT
BRANCH   1   9
ATOM      6  N   UNL     1       7.378   4.422  13.947  0.00  0.00    +0.000 N 
ATOM      7  C   UNL     1       6.534   4.834  14.960  0.00  0.00    +0.000 C 
ATOM      8  O   UNL     1       5.729   5.752  14.833  0.00  0.00    +0.000 OA
ATOM      9  N   UNL     1       6.807   4.159  16.138  0.00  0.00    +0.000 N 
ATOM     10  H   UNL     1       7.570   3.429  13.948  0.00  0.00    +0.000 HD
ATOM     11  H   UNL     1       7.791   3.992  16.286  0.00  0.00    +0.000 HD
BRANCH   6  13
ATOM     12  C   UNL     1       8.570   5.986  12.483  0.00  0.00    +0.000 C 
ATOM     13  C   UNL     1       7.346   5.092  12.651  0.00  0.00    +0.000 C 
ATOM     14  C   UNL     1       7.246   4.092  11.501  0.00  0.00    +0.000 C 
ENDBRANCH   6  13
ENDBRANCH   1   9
BRANCH   3  15
ATOM     15  C   UNL     1       3.246   3.840  19.870  0.00  0.00    +0.000 A 
ATOM     16  C   UNL     1       1.971   4.392  19.665  0.00  0.00    +0.000 A 
ATOM     17  C   UNL     1       0.866   3.959  20.406  0.00  0.00    +0.000 A 
ATOM     18  C   UNL     1       1.020   2.966  21.371  0.00  0.00    +0.000 A 
ATOM     19  C   UNL     1       2.278   2.417  21.601  0.00  0.00    +0.000 A 
ATOM     20  C   UNL     1       3.380   2.847  20.855  0.00  0.00    +0.000 A 
ENDBRANCH   3  15
BRANCH   5  21
ATOM     21  C   UNL     1       7.297   6.498  18.187  0.00  0.00    +0.000 C 
ATOM     22  N   UNL     1       7.126   7.417  17.188  0.00  0.00    +0.000 N 
ATOM     23  O   UNL     1       8.275   6.565  18.925  0.00  0.00    +0.000 OA
ATOM     24  H   UNL     1       6.221   7.549  16.764  0.00  0.00    +0.000 HD
ATOM     25  H   UNL     1       7.754   8.207  17.217  0.00  0.00    +0.000 HD
ENDBRANCH   5  21
TORSDOF 4
ENDMDL
