MODEL 1
REMARK VINA RESULT:      -7.0      0.000      0.000
REMARK  Name = 
REMARK  10 active torsions:
REMARK  status: ('A' for Active; 'I' for Inactive)
REMARK    1  A    between atoms: C_1  and  C_2
REMARK    2  A    between atoms: C_2  and  N_3
REMARK    3  A    between atoms: C_7  and  C_8
REMARK    4  A    between atoms: C_8  and  N_9
REMARK    5  A    between atoms: C_10  and  C_12
REMARK    6  A    between atoms: C_14  and  N_15
REMARK    7  A    between atoms: N_15  and  S_16
REMARK    8  A    between atoms: S_16  and  N_17
REMARK    9  A    between atoms: C_22  and  O_23
REMARK   10  A    between atoms: O_23  and  C_24
REMARK                            x       y       z     vdW  Elec       q    Type
REMARK                         _______ _______ _______ _____ _____    ______ ____
ROOT
ATOM      1  C   UNL     1       1.000   9.237  19.384  0.00  0.00    +0.000 A 
ATOM      2  C   UNL     1       0.294   9.813  18.305  0.00  0.00    +0.000 A 
ATOM      3  C   UNL     1      -0.666  10.801  18.512  0.00  0.00    +0.000 A 
ATOM      4  C   UNL     1      -0.995  11.187  19.801  0.00  0.00    +0.000 A 
ATOM      5  C   UNL     1      -0.319  10.607  20.875  0.00  0.00    +0.000 A 
ATOM      6  C   UNL     1       0.694   9.642  20.695  0.00  0.00    +0.000 A 
ENDROOT
BRANCH   1   8
ATOM      7  N   UNL     1       2.178   7.174  19.915  0.00  0.00    +0.000 N 
ATOM      8  C   UNL     1       1.993   8.193  19.000  0.00  0.00    +0.000 C 
ATOM      9  O   UNL     1       2.621   8.268  17.952  0.00  0.00    +0.000 OA
ATOM     10  H   UNL     1       1.681   7.156  20.797  0.00  0.00    +0.000 HD
BRANCH   7  11
ATOM     11  C   UNL     1       3.088   6.063  19.686  0.00  0.00    +0.000 C 
BRANCH  11  16
ATOM     12  N   UNL     1       3.265   3.534  19.702  0.00  0.00    +0.000 NA
ATOM     13  C   UNL     1       2.833   2.939  20.979  0.00  0.00    +0.000 C 
ATOM     14  C   UNL     1       1.334   3.137  21.017  0.00  0.00    +0.000 C 
ATOM     15  C   UNL     1       1.171   4.533  20.449  0.00  0.00    +0.000 C 
ATOM     16  C   UNL     1       2.360   4.713  19.490  0.00  0.00    +0.000 C 
BRANCH  12  18
ATOM     17  C   UNL     1       2.636   3.244  17.261  0.00  0.00    +0.000 C 
ATOM     18  C   UNL     1       3.110   2.601  18.561  0.00  0.00    +0.000 C 
ENDBRANCH  12  18
ENDBRANCH  11  16
ENDBRANCH   7  11
ENDBRANCH   1   8
BRANCH   3  19
ATOM     19  N   UNL     1      -1.300  11.390  17.374  0.00  0.00    +0.000 N 
ATOM     20  H   UNL     1      -1.290  12.411  17.421  0.00  0.00    +0.000 HD
BRANCH  19  21
ATOM     21  S   UNL     1      -2.890  10.957  17.031  0.00  0.00    +0.000 S 
ATOM     22  O   UNL     1      -3.000   9.523  17.098  0.00  0.00    +0.000 OA
ATOM     23  O   UNL     1      -3.732  11.840  17.791  0.00  0.00    +0.000 OA
BRANCH  21  24
ATOM     24  N   UNL     1      -2.980  11.409  15.441  0.00  0.00    +0.000 NA
ATOM     25  H   UNL     1      -2.603  10.721  14.795  0.00  0.00    +0.000 HD
ATOM     26  H   UNL     1      -2.753  12.385  15.287  0.00  0.00    +0.000 HD
ENDBRANCH  21  24
ENDBRANCH  19  21
ENDBRANCH   3  19
BRANCH   6  27
ATOM     27  O   UNL     1       1.214   9.288  21.905  0.00  0.00    +0.000 OA
ATOM     28  C   UNL     1       0.476   9.419  23.106  0.00  0.00    +0.000 C 
ENDBRANCH   6  27
TORSDOF 8
ENDMDL
MODEL 2
REMARK VINA RESULT:      -6.9      4.144      7.878
REMARK  Name = 
REMARK  10 active torsions:
REMARK  status: ('A' for Active; 'I' for Inactive)
REMARK    1  A    between atoms: C_1  and  C_2
REMARK    2  A    between atoms: C_2  and  N_3
REMARK    3  A    between atoms: C_7  and  C_8
REMARK    4  A    between atoms: C_8  and  N_9
REMARK    5  A    between atoms: C_10  and  C_12
REMARK    6  A    between atoms: C_14  and  N_15
REMARK    7  A    between atoms: N_15  and  S_16
REMARK    8  A    between atoms: S_16  and  N_17
REMARK    9  A    between atoms: C_22  and  O_23
REMARK   10  A    between atoms: O_23  and  C_24
REMARK                            x       y       z     vdW  Elec       q    Type
REMARK                         _______ _______ _______ _____ _____    ______ ____
ROOT
ATOM      1  C   UNL     1       2.689   5.583  18.990  0.00  0.00    +0.000 A 
ATOM      2  C   UNL     1       3.725   6.351  18.413  0.00  0.00    +0.000 A 
ATOM      3  C   UNL     1       4.404   5.914  17.278  0.00  0.00    +0.000 A 
ATOM      4  C   UNL     1       4.116   4.673  16.734  0.00  0.00    +0.000 A 
ATOM      5  C   UNL     1       3.110   3.896  17.310  0.00  0.00    +0.000 A 
ATOM      6  C   UNL     1       2.370   4.334  18.429  0.00  0.00    +0.000 A 
ENDROOT
BRANCH   1   8
ATOM      7  N   UNL     1       1.996   7.564  20.222  0.00  0.00    +0.000 N 
ATOM      8  C   UNL     1       2.060   6.184  20.201  0.00  0.00    +0.000 C 
ATOM      9  O   UNL     1       1.664   5.485  21.125  0.00  0.00    +0.000 OA
ATOM     10  H   UNL     1       2.372   8.125  19.468  0.00  0.00    +0.000 HD
BRANCH   7  11
ATOM     11  C   UNL     1       1.390   8.309  21.314  0.00  0.00    +0.000 C 
BRANCH  11  16
ATOM     12  N   UNL     1       0.806  10.772  21.460  0.00  0.00    +0.000 NA
ATOM     13  C   UNL     1       1.418  11.570  20.383  0.00  0.00    +0.000 C 
ATOM     14  C   UNL     1       0.685  11.160  19.126  0.00  0.00    +0.000 C 
ATOM     15  C   UNL     1       0.529   9.663  19.308  0.00  0.00    +0.000 C 
ATOM     16  C   UNL     1       0.467   9.453  20.831  0.00  0.00    +0.000 C 
BRANCH  12  18
ATOM     17  C   UNL     1      -1.110  10.618  23.117  0.00  0.00    +0.000 C 
ATOM     18  C   UNL     1      -0.438  11.385  21.983  0.00  0.00    +0.000 C 
ENDBRANCH  12  18
ENDBRANCH  11  16
ENDBRANCH   7  11
ENDBRANCH   1   8
BRANCH   3  19
ATOM     19  N   UNL     1       5.398   6.766  16.704  0.00  0.00    +0.000 N 
ATOM     20  H   UNL     1       5.355   6.764  15.683  0.00  0.00    +0.000 HD
BRANCH  19  21
ATOM     21  S   UNL     1       7.011   6.494  17.101  0.00  0.00    +0.000 S 
ATOM     22  O   UNL     1       7.701   7.758  17.111  0.00  0.00    +0.000 OA
ATOM     23  O   UNL     1       7.015   5.594  18.222  0.00  0.00    +0.000 OA
BRANCH  21  24
ATOM     24  N   UNL     1       7.503   5.648  15.766  0.00  0.00    +0.000 NA
ATOM     25  H   UNL     1       8.473   5.808  15.511  0.00  0.00    +0.000 HD
ATOM     26  H   UNL     1       6.811   5.628  15.025  0.00  0.00    +0.000 HD
ENDBRANCH  21  24
ENDBRANCH  19  21
ENDBRANCH   3  19
BRANCH   6  27
ATOM     27  O   UNL     1       1.425   3.403  18.747  0.00  0.00    +0.000 OA
ATOM     28  C   UNL     1       1.760   2.174  19.364  0.00  0.00    +0.000 C 
ENDBRANCH   6  27
TORSDOF 8
ENDMDL
MODEL 3
REMARK VINA RESULT:      -6.8      4.066      7.921
REMARK  Name = 
REMARK  10 active torsions:
REMARK  status: ('A' for Active; 'I' for Inactive)
REMARK    1  A    between atoms: C_1  and  C_2
REMARK    2  A    between atoms: C_2  and  N_3
REMARK    3  A    between atoms: C_7  and  C_8
REMARK    4  A    between atoms: C_8  and  N_9
REMARK    5  A    between atoms: C_10  and  C_12
REMARK    6  A    between atoms: C_14  and  N_15
REMARK    7  A    between atoms: N_15  and  S_16
REMARK    8  A    between atoms: S_16  and  N_17
REMARK    9  A    between atoms: C_22  and  O_23
REMARK   10  A    between atoms: O_23  and  C_24
REMARK                            x       y       z     vdW  Elec       q    Type
REMARK                         _______ _______ _______ _____ _____    ______ ____
ROOT
ATOM      1  C   UNL     1       2.830   5.198  19.004  0.00  0.00    +0.000 A 
ATOM      2  C   UNL     1       4.184   5.576  18.860  0.00  0.00    +0.000 A 
ATOM      3  C   UNL     1       5.001   4.988  17.896  0.00  0.00    +0.000 A 
ATOM      4  C   UNL     1       4.510   3.964  17.103  0.00  0.00    +0.000 A 
ATOM      5  C   UNL     1       3.181   3.568  17.254  0.00  0.00    +0.000 A 
ATOM      6  C   UNL     1       2.314   4.179  18.185  0.00  0.00    +0.000 A 
ENDROOT
BRANCH   1   8
ATOM      7  N   UNL     1       2.200   7.294  20.069  0.00  0.00    +0.000 N 
ATOM      8  C   UNL     1       2.088   5.917  20.079  0.00  0.00    +0.000 C 
ATOM      9  O   UNL     1       1.454   5.307  20.931  0.00  0.00    +0.000 OA
ATOM     10  H   UNL     1       2.767   7.775  19.383  0.00  0.00    +0.000 HD
BRANCH   7  11
ATOM     11  C   UNL     1       1.519   8.148  21.029  0.00  0.00    +0.000 C 
BRANCH  11  16
ATOM     12  N   UNL     1       0.649  10.528  21.100  0.00  0.00    +0.000 NA
ATOM     13  C   UNL     1       1.420  11.445  20.242  0.00  0.00    +0.000 C 
ATOM     14  C   UNL     1       1.077  11.039  18.826  0.00  0.00    +0.000 C 
ATOM     15  C   UNL     1       1.046   9.526  18.914  0.00  0.00    +0.000 C 
ATOM     16  C   UNL     1       0.627   9.221  20.363  0.00  0.00    +0.000 C 
BRANCH  12  18
ATOM     17  C   UNL     1      -1.174  11.119  22.763  0.00  0.00    +0.000 C 
ATOM     18  C   UNL     1      -0.746  10.983  21.305  0.00  0.00    +0.000 C 
ENDBRANCH  12  18
ENDBRANCH  11  16
ENDBRANCH   7  11
ENDBRANCH   1   8
BRANCH   3  19
ATOM     19  N   UNL     1       6.344   5.459  17.757  0.00  0.00    +0.000 N 
ATOM     20  H   UNL     1       6.628   6.036  18.551  0.00  0.00    +0.000 HD
BRANCH  19  21
ATOM     21  S   UNL     1       6.744   6.338  16.378  0.00  0.00    +0.000 S 
ATOM     22  O   UNL     1       7.652   5.553  15.582  0.00  0.00    +0.000 OA
ATOM     23  O   UNL     1       5.515   6.875  15.859  0.00  0.00    +0.000 OA
BRANCH  21  24
ATOM     24  N   UNL     1       7.597   7.582  17.060  0.00  0.00    +0.000 NA
ATOM     25  H   UNL     1       8.599   7.420  17.102  0.00  0.00    +0.000 HD
ATOM     26  H   UNL     1       7.142   7.982  17.874  0.00  0.00    +0.000 HD
ENDBRANCH  21  24
ENDBRANCH  19  21
ENDBRANCH   3  19
BRANCH   6  27
ATOM     27  O   UNL     1       1.069   3.631  18.083  0.00  0.00    +0.000 OA
ATOM     28  C   UNL     1       0.738   2.400  18.696  0.00  0.00    +0.000 C 
ENDBRANCH   6  27
TORSDOF 8
ENDMDL
MODEL 4
REMARK VINA RESULT:      -6.8      3.965      7.679
REMARK  Name = 
REMARK  10 active torsions:
REMARK  status: ('A' for Active; 'I' for Inactive)
REMARK    1  A    between atoms: C_1  and  C_2
REMARK    2  A    between atoms: C_2  and  N_3
REMARK    3  A    between atoms: C_7  and  C_8
REMARK    4  A    between atoms: C_8  and  N_9
REMARK    5  A    between atoms: C_10  and  C_12
REMARK    6  A    between atoms: C_14  and  N_15
REMARK    7  A    between atoms: N_15  and  S_16
REMARK    8  A    between atoms: S_16  and  N_17
REMARK    9  A    between atoms: C_22  and  O_23
REMARK   10  A    between atoms: O_23  and  C_24
REMARK                            x       y       z     vdW  Elec       q    Type
REMARK                         _______ _______ _______ _____ _____    ______ ____
ROOT
ATOM      1  C   UNL     1       2.825   4.994  19.009  0.00  0.00    +0.000 A 
ATOM      2  C   UNL     1       4.165   5.434  18.918  0.00  0.00    +0.000 A 
ATOM      3  C   UNL     1       5.028   4.930  17.948  0.00  0.00    +0.000 A 
ATOM      4  C   UNL     1       4.599   3.928  17.092  0.00  0.00    +0.000 A 
ATOM      5  C   UNL     1       3.285   3.471  17.190  0.00  0.00    +0.000 A 
ATOM      6  C   UNL     1       2.372   3.998  18.128  0.00  0.00    +0.000 A 
ENDROOT
BRANCH   1   8
ATOM      7  N   UNL     1       2.070   7.007  20.151  0.00  0.00    +0.000 N 
ATOM      8  C   UNL     1       2.029   5.626  20.100  0.00  0.00    +0.000 C 
ATOM      9  O   UNL     1       1.412   4.949  20.911  0.00  0.00    +0.000 OA
ATOM     10  H   UNL     1       2.624   7.546  19.498  0.00  0.00    +0.000 HD
BRANCH   7  11
ATOM     11  C   UNL     1       1.330   7.782  21.134  0.00  0.00    +0.000 C 
BRANCH  11  16
ATOM     12  N   UNL     1       0.359   9.534  19.580  0.00  0.00    +0.000 NA
ATOM     13  C   UNL     1      -0.862  10.161  20.118  0.00  0.00    +0.000 C 
ATOM     14  C   UNL     1      -0.390  11.012  21.275  0.00  0.00    +0.000 C 
ATOM     15  C   UNL     1       0.662  10.134  21.923  0.00  0.00    +0.000 C 
ATOM     16  C   UNL     1       1.232   9.283  20.774  0.00  0.00    +0.000 C 
BRANCH  12  18
ATOM     17  C   UNL     1       2.147   9.729  17.791  0.00  0.00    +0.000 C 
ATOM     18  C   UNL     1       1.082  10.419  18.637  0.00  0.00    +0.000 C 
ENDBRANCH  12  18
ENDBRANCH  11  16
ENDBRANCH   7  11
ENDBRANCH   1   8
BRANCH   3  19
ATOM     19  N   UNL     1       6.353   5.462  17.866  0.00  0.00    +0.000 N 
ATOM     20  H   UNL     1       6.613   5.964  18.717  0.00  0.00    +0.000 HD
BRANCH  19  21
ATOM     21  S   UNL     1       6.724   6.491  16.588  0.00  0.00    +0.000 S 
ATOM     22  O   UNL     1       5.498   6.871  15.934  0.00  0.00    +0.000 OA
ATOM     23  O   UNL     1       7.670   7.450  17.090  0.00  0.00    +0.000 OA
BRANCH  21  24
ATOM     24  N   UNL     1       7.536   5.445  15.595  0.00  0.00    +0.000 NA
ATOM     25  H   UNL     1       8.161   5.903  14.937  0.00  0.00    +0.000 HD
ATOM     26  H   UNL     1       6.959   4.683  15.256  0.00  0.00    +0.000 HD
ENDBRANCH  21  24
ENDBRANCH  19  21
ENDBRANCH   3  19
BRANCH   6  27
ATOM     27  O   UNL     1       1.153   3.406  17.966  0.00  0.00    +0.000 OA
ATOM     28  C   UNL     1       0.751   2.294  18.743  0.00  0.00    +0.000 C 
ENDBRANCH   6  27
TORSDOF 8
ENDMDL
MODEL 5
REMARK VINA RESULT:      -6.8      3.787      7.822
REMARK  Name = 
REMARK  10 active torsions:
REMARK  status: ('A' for Active; 'I' for Inactive)
REMARK    1  A    between atoms: C_1  and  C_2
REMARK    2  A    between atoms: C_2  and  N_3
REMARK    3  A    between atoms: C_7  and  C_8
REMARK    4  A    between atoms: C_8  and  N_9
REMARK    5  A    between atoms: C_10  and  C_12
REMARK    6  A    between atoms: C_14  and  N_15
REMARK    7  A    between atoms: N_15  and  S_16
REMARK    8  A    between atoms: S_16  and  N_17
REMARK    9  A    between atoms: C_22  and  O_23
REMARK   10  A    between atoms: O_23  and  C_24
REMARK                            x       y       z     vdW  Elec       q    Type
REMARK                         _______ _______ _______ _____ _____    ______ ____
ROOT
ATOM      1  C   UNL     1       3.024   6.735  18.331  0.00  0.00    +0.000 A 
ATOM      2  C   UNL     1       3.963   6.505  17.301  0.00  0.00    +0.000 A 
ATOM      3  C   UNL     1       4.677   5.311  17.226  0.00  0.00    +0.000 A 
ATOM      4  C   UNL     1       4.525   4.350  18.212  0.00  0.00    +0.000 A 
ATOM      5  C   UNL     1       3.616   4.578  19.246  0.00  0.00    +0.000 A 
ATOM      6  C   UNL     1       2.841   5.755  19.322  0.00  0.00    +0.000 A 
ENDROOT
BRANCH   1   8
ATOM      7  N   UNL     1       1.638   8.422  19.409  0.00  0.00    +0.000 N 
ATOM      8  C   UNL     1       2.342   8.060  18.276  0.00  0.00    +0.000 C 
ATOM      9  O   UNL     1       2.384   8.755  17.269  0.00  0.00    +0.000 OA
ATOM     10  H   UNL     1       1.578   7.811  20.213  0.00  0.00    +0.000 HD
BRANCH   7  11
ATOM     11  C   UNL     1       0.938   9.690  19.531  0.00  0.00    +0.000 C 
BRANCH  11  16
ATOM     12  N   UNL     1      -0.402  10.683  21.441  0.00  0.00    +0.000 NA
ATOM     13  C   UNL     1      -0.796   9.678  22.446  0.00  0.00    +0.000 C 
ATOM     14  C   UNL     1       0.490   9.298  23.145  0.00  0.00    +0.000 C 
ATOM     15  C   UNL     1       1.485   9.245  22.002  0.00  0.00    +0.000 C 
ATOM     16  C   UNL     1       0.958  10.258  20.970  0.00  0.00    +0.000 C 
BRANCH  12  18
ATOM     17  C   UNL     1      -1.466  12.454  22.914  0.00  0.00    +0.000 C 
ATOM     18  C   UNL     1      -0.305  12.047  22.012  0.00  0.00    +0.000 C 
ENDBRANCH  12  18
ENDBRANCH  11  16
ENDBRANCH   7  11
ENDBRANCH   1   8
BRANCH   3  19
ATOM     19  N   UNL     1       5.565   5.112  16.124  0.00  0.00    +0.000 N 
ATOM     20  H   UNL     1       5.557   4.143  15.800  0.00  0.00    +0.000 HD
BRANCH  19  21
ATOM     21  S   UNL     1       7.186   5.523  16.318  0.00  0.00    +0.000 S 
ATOM     22  O   UNL     1       7.261   6.878  16.801  0.00  0.00    +0.000 OA
ATOM     23  O   UNL     1       7.814   4.419  16.991  0.00  0.00    +0.000 OA
BRANCH  21  24
ATOM     24  N   UNL     1       7.684   5.510  14.740  0.00  0.00    +0.000 NA
ATOM     25  H   UNL     1       7.388   6.323  14.207  0.00  0.00    +0.000 HD
ATOM     26  H   UNL     1       7.607   4.598  14.302  0.00  0.00    +0.000 HD
ENDBRANCH  21  24
ENDBRANCH  19  21
ENDBRANCH   3  19
BRANCH   6  27
ATOM     27  O   UNL     1       2.008   5.688  20.400  0.00  0.00    +0.000 OA
ATOM     28  C   UNL     1       1.424   4.471  20.822  0.00  0.00    +0.000 C 
ENDBRANCH   6  27
TORSDOF 8
ENDMDL
MODEL 6
REMARK VINA RESULT:      -6.8      1.222      1.817
REMARK  Name = 
REMARK  10 active torsions:
REMARK  status: ('A' for Active; 'I' for Inactive)
REMARK    1  A    between atoms: C_1  and  C_2
REMARK    2  A    between atoms: C_2  and  N_3
REMARK    3  A    between atoms: C_7  and  C_8
REMARK    4  A    between atoms: C_8  and  N_9
REMARK    5  A    between atoms: C_10  and  C_12
REMARK    6  A    between atoms: C_14  and  N_15
REMARK    7  A    between atoms: N_15  and  S_16
REMARK    8  A    between atoms: S_16  and  N_17
REMARK    9  A    between atoms: C_22  and  O_23
REMARK   10  A    between atoms: O_23  and  C_24
REMARK                            x       y       z     vdW  Elec       q    Type
REMARK                         _______ _______ _______ _____ _____    ______ ____
ROOT
ATOM      1  C   UNL     1       0.888   9.533  18.820  0.00  0.00    +0.000 A 
ATOM      2  C   UNL     1       0.044  10.188  17.896  0.00  0.00    +0.000 A 
ATOM      3  C   UNL     1      -1.009  10.994  18.323  0.00  0.00    +0.000 A 
ATOM      4  C   UNL     1      -1.289  11.110  19.675  0.00  0.00    +0.000 A 
ATOM      5  C   UNL     1      -0.474  10.447  20.594  0.00  0.00    +0.000 A 
ATOM      6  C   UNL     1       0.630   9.666  20.195  0.00  0.00    +0.000 A 
ENDROOT
BRANCH   1   8
ATOM      7  N   UNL     1       2.326   7.571  18.908  0.00  0.00    +0.000 N 
ATOM      8  C   UNL     1       1.968   8.706  18.207  0.00  0.00    +0.000 C 
ATOM      9  O   UNL     1       2.516   9.047  17.167  0.00  0.00    +0.000 OA
ATOM     10  H   UNL     1       1.891   7.333  19.791  0.00  0.00    +0.000 HD
BRANCH   7  11
ATOM     11  C   UNL     1       3.341   6.641  18.439  0.00  0.00    +0.000 C 
BRANCH  11  16
ATOM     12  N   UNL     1       2.149   4.408  18.297  0.00  0.00    +0.000 NA
ATOM     13  C   UNL     1       2.913   3.400  17.541  0.00  0.00    +0.000 C 
ATOM     14  C   UNL     1       4.092   3.057  18.424  0.00  0.00    +0.000 C 
ATOM     15  C   UNL     1       4.486   4.408  18.987  0.00  0.00    +0.000 C 
ATOM     16  C   UNL     1       3.179   5.219  19.026  0.00  0.00    +0.000 C 
BRANCH  12  18
ATOM     17  C   UNL     1       0.660   2.441  18.890  0.00  0.00    +0.000 C 
ATOM     18  C   UNL     1       1.232   3.798  19.288  0.00  0.00    +0.000 C 
ENDBRANCH  12  18
ENDBRANCH  11  16
ENDBRANCH   7  11
ENDBRANCH   1   8
BRANCH   3  19
ATOM     19  N   UNL     1      -1.788  11.682  17.341  0.00  0.00    +0.000 N 
ATOM     20  H   UNL     1      -2.230  12.520  17.726  0.00  0.00    +0.000 HD
BRANCH  19  21
ATOM     21  S   UNL     1      -3.009  10.835  16.551  0.00  0.00    +0.000 S 
ATOM     22  O   UNL     1      -2.673  10.742  15.154  0.00  0.00    +0.000 OA
ATOM     23  O   UNL     1      -3.304   9.684  17.361  0.00  0.00    +0.000 OA
BRANCH  21  24
ATOM     24  N   UNL     1      -4.261  11.906  16.711  0.00  0.00    +0.000 NA
ATOM     25  H   UNL     1      -5.026  11.563  17.285  0.00  0.00    +0.000 HD
ATOM     26  H   UNL     1      -4.488  12.389  15.849  0.00  0.00    +0.000 HD
ENDBRANCH  21  24
ENDBRANCH  19  21
ENDBRANCH   3  19
BRANCH   6  27
ATOM     27  O   UNL     1       1.273   9.181  21.296  0.00  0.00    +0.000 OA
ATOM     28  C   UNL     1       0.725   9.296  22.596  0.00  0.00    +0.000 C 
ENDBRANCH   6  27
TORSDOF 8
ENDMDL
MODEL 7
REMARK VINA RESULT:      -6.7      3.760      8.047
REMARK  Name = 
REMARK  10 active torsions:
REMARK  status: ('A' for Active; 'I' for Inactive)
REMARK    1  A    between atoms: C_1  and  C_2
REMARK    2  A    between atoms: C_2  and  N_3
REMARK    3  A    between atoms: C_7  and  C_8
REMARK    4  A    between atoms: C_8  and  N_9
REMARK    5  A    between atoms: C_10  and  C_12
REMARK    6  A    between atoms: C_14  and  N_15
REMARK    7  A    between atoms: N_15  and  S_16
REMARK    8  A    between atoms: S_16  and  N_17
REMARK    9  A    between atoms: C_22  and  O_23
REMARK   10  A    between atoms: O_23  and  C_24
REMARK                            x       y       z     vdW  Elec       q    Type
REMARK                         _______ _______ _______ _____ _____    ______ ____
ROOT
ATOM      1  C   UNL     1       2.611   5.630  18.705  0.00  0.00    +0.000 A 
ATOM      2  C   UNL     1       3.757   5.954  17.944  0.00  0.00    +0.000 A 
ATOM      3  C   UNL     1       4.364   5.014  17.114  0.00  0.00    +0.000 A 
ATOM      4  C   UNL     1       3.889   3.713  17.077  0.00  0.00    +0.000 A 
ATOM      5  C   UNL     1       2.772   3.378  17.843  0.00  0.00    +0.000 A 
ATOM      6  C   UNL     1       2.104   4.320  18.653  0.00  0.00    +0.000 A 
ENDROOT
BRANCH   1   8
ATOM      7  N   UNL     1       1.987   7.973  18.921  0.00  0.00    +0.000 N 
ATOM      8  C   UNL     1       2.079   6.743  19.543  0.00  0.00    +0.000 C 
ATOM      9  O   UNL     1       1.781   6.567  20.717  0.00  0.00    +0.000 OA
ATOM     10  H   UNL     1       2.283   8.107  17.963  0.00  0.00    +0.000 HD
BRANCH   7  11
ATOM     11  C   UNL     1       1.465   9.156  19.586  0.00  0.00    +0.000 C 
BRANCH  11  16
ATOM     12  N   UNL     1      -0.746  10.150  18.843  0.00  0.00    +0.000 NA
ATOM     13  C   UNL     1      -1.023  11.458  19.464  0.00  0.00    +0.000 C 
ATOM     14  C   UNL     1      -0.034  12.410  18.828  0.00  0.00    +0.000 C 
ATOM     15  C   UNL     1       1.229  11.575  18.755  0.00  0.00    +0.000 C 
ATOM     16  C   UNL     1       0.738  10.123  18.622  0.00  0.00    +0.000 C 
BRANCH  12  18
ATOM     17  C   UNL     1      -2.947  10.100  17.581  0.00  0.00    +0.000 C 
ATOM     18  C   UNL     1      -1.426   9.988  17.536  0.00  0.00    +0.000 C 
ENDBRANCH  12  18
ENDBRANCH  11  16
ENDBRANCH   7  11
ENDBRANCH   1   8
BRANCH   3  19
ATOM     19  N   UNL     1       5.482   5.421  16.320  0.00  0.00    +0.000 N 
ATOM     20  H   UNL     1       5.479   4.971  15.403  0.00  0.00    +0.000 HD
BRANCH  19  21
ATOM     21  S   UNL     1       7.029   5.195  16.942  0.00  0.00    +0.000 S 
ATOM     22  O   UNL     1       6.914   4.676  18.281  0.00  0.00    +0.000 OA
ATOM     23  O   UNL     1       7.796   4.543  15.916  0.00  0.00    +0.000 OA
BRANCH  21  24
ATOM     24  N   UNL     1       7.538   6.767  17.040  0.00  0.00    +0.000 NA
ATOM     25  H   UNL     1       7.852   7.042  17.966  0.00  0.00    +0.000 HD
ATOM     26  H   UNL     1       6.951   7.412  16.522  0.00  0.00    +0.000 HD
ENDBRANCH  21  24
ENDBRANCH  19  21
ENDBRANCH   3  19
BRANCH   6  27
ATOM     27  O   UNL     1       1.023   3.735  19.245  0.00  0.00    +0.000 OA
ATOM     28  C   UNL     1       1.123   3.057  20.483  0.00  0.00    +0.000 C 
ENDBRANCH   6  27
TORSDOF 8
ENDMDL
MODEL 8
REMARK VINA RESULT:      -6.7      3.732      7.885
REMARK  Name = 
REMARK  10 active torsions:
REMARK  status: ('A' for Active; 'I' for Inactive)
REMARK    1  A    between atoms: C_1  and  C_2
REMARK    2  A    between atoms: C_2  and  N_3
REMARK    3  A    between atoms: C_7  and  C_8
REMARK    4  A    between atoms: C_8  and  N_9
REMARK    5  A    between atoms: C_10  and  C_12
REMARK    6  A    between atoms: C_14  and  N_15
REMARK    7  A    between atoms: N_15  and  S_16
REMARK    8  A    between atoms: S_16  and  N_17
REMARK    9  A    between atoms: C_22  and  O_23
REMARK   10  A    between atoms: O_23  and  C_24
REMARK                            x       y       z     vdW  Elec       q    Type
REMARK                         _______ _______ _______ _____ _____    ______ ____
ROOT
ATOM      1  C   UNL     1       2.739   6.057  18.467  0.00  0.00    +0.000 A 
ATOM      2  C   UNL     1       3.865   6.115  17.617  0.00  0.00    +0.000 A 
ATOM      3  C   UNL     1       4.385   4.967  17.024  0.00  0.00    +0.000 A 
ATOM      4  C   UNL     1       3.841   3.728  17.320  0.00  0.00    +0.000 A 
ATOM      5  C   UNL     1       2.742   3.657  18.177  0.00  0.00    +0.000 A 
ATOM      6  C   UNL     1       2.161   4.807  18.752  0.00  0.00    +0.000 A 
ENDROOT
BRANCH   1   8
ATOM      7  N   UNL     1       2.120   8.383  18.103  0.00  0.00    +0.000 N 
ATOM      8  C   UNL     1       2.303   7.369  19.025  0.00  0.00    +0.000 C 
ATOM      9  O   UNL     1       2.156   7.532  20.229  0.00  0.00    +0.000 OA
ATOM     10  H   UNL     1       2.292   8.239  17.116  0.00  0.00    +0.000 HD
BRANCH   7  11
ATOM     11  C   UNL     1       1.671   9.715  18.473  0.00  0.00    +0.000 C 
BRANCH  11  16
ATOM     12  N   UNL     1       0.232  10.534  20.393  0.00  0.00    +0.000 NA
ATOM     13  C   UNL     1      -0.540  11.743  20.054  0.00  0.00    +0.000 C 
ATOM     14  C   UNL     1      -1.588  11.275  19.069  0.00  0.00    +0.000 C 
ATOM     15  C   UNL     1      -0.817  10.296  18.206  0.00  0.00    +0.000 C 
ATOM     16  C   UNL     1       0.271   9.723  19.131  0.00  0.00    +0.000 C 
BRANCH  12  18
ATOM     17  C   UNL     1       0.475   9.412  22.656  0.00  0.00    +0.000 C 
ATOM     18  C   UNL     1      -0.413   9.730  21.457  0.00  0.00    +0.000 C 
ENDBRANCH  12  18
ENDBRANCH  11  16
ENDBRANCH   7  11
ENDBRANCH   1   8
BRANCH   3  19
ATOM     19  N   UNL     1       5.486   5.099  16.122  0.00  0.00    +0.000 N 
ATOM     20  H   UNL     1       5.458   4.395  15.382  0.00  0.00    +0.000 HD
BRANCH  19  21
ATOM     21  S   UNL     1       7.046   5.049  16.751  0.00  0.00    +0.000 S 
ATOM     22  O   UNL     1       6.980   4.557  18.103  0.00  0.00    +0.000 OA
ATOM     23  O   UNL     1       7.879   4.452  15.743  0.00  0.00    +0.000 OA
BRANCH  21  24
ATOM     24  N   UNL     1       7.393   6.667  16.806  0.00  0.00    +0.000 NA
ATOM     25  H   UNL     1       7.733   6.985  17.709  0.00  0.00    +0.000 HD
ATOM     26  H   UNL     1       6.710   7.240  16.323  0.00  0.00    +0.000 HD
ENDBRANCH  21  24
ENDBRANCH  19  21
ENDBRANCH   3  19
BRANCH   6  27
ATOM     27  O   UNL     1       1.079   4.450  19.502  0.00  0.00    +0.000 OA
ATOM     28  C   UNL     1       1.209   3.725  20.710  0.00  0.00    +0.000 C 
ENDBRANCH   6  27
TORSDOF 8
ENDMDL
MODEL 9
REMARK VINA RESULT:      -6.7      3.584      7.891
REMARK  Name = 
REMARK  10 active torsions:
REMARK  status: ('A' for Active; 'I' for Inactive)
REMARK    1  A    between atoms: C_1  and  C_2
REMARK    2  A    between atoms: C_2  and  N_3
REMARK    3  A    between atoms: C_7  and  C_8
REMARK    4  A    between atoms: C_8  and  N_9
REMARK    5  A    between atoms: C_10  and  C_12
REMARK    6  A    between atoms: C_14  and  N_15
REMARK    7  A    between atoms: N_15  and  S_16
REMARK    8  A    between atoms: S_16  and  N_17
REMARK    9  A    between atoms: C_22  and  O_23
REMARK   10  A    between atoms: O_23  and  C_24
REMARK                            x       y       z     vdW  Elec       q    Type
REMARK                         _______ _______ _______ _____ _____    ______ ____
ROOT
ATOM      1  C   UNL     1       2.715   6.360  18.563  0.00  0.00    +0.000 A 
ATOM      2  C   UNL     1       3.712   6.379  17.562  0.00  0.00    +0.000 A 
ATOM      3  C   UNL     1       4.249   5.199  17.053  0.00  0.00    +0.000 A 
ATOM      4  C   UNL     1       3.858   3.977  17.576  0.00  0.00    +0.000 A 
ATOM      5  C   UNL     1       2.891   3.949  18.581  0.00  0.00    +0.000 A 
ATOM      6  C   UNL     1       2.291   5.124  19.082  0.00  0.00    +0.000 A 
ENDROOT
BRANCH   1   8
ATOM      7  N   UNL     1       2.114   8.653  18.009  0.00  0.00    +0.000 N 
ATOM      8  C   UNL     1       2.242   7.703  19.005  0.00  0.00    +0.000 C 
ATOM      9  O   UNL     1       2.019   7.942  20.184  0.00  0.00    +0.000 OA
ATOM     10  H   UNL     1       2.348   8.447  17.046  0.00  0.00    +0.000 HD
BRANCH   7  11
ATOM     11  C   UNL     1       1.640  10.003  18.263  0.00  0.00    +0.000 C 
BRANCH  11  16
ATOM     12  N   UNL     1      -0.182  11.374  19.371  0.00  0.00    +0.000 NA
ATOM     13  C   UNL     1      -1.090  12.010  18.400  0.00  0.00    +0.000 C 
ATOM     14  C   UNL     1      -1.888  10.871  17.805  0.00  0.00    +0.000 C 
ATOM     15  C   UNL     1      -0.844   9.783  17.648  0.00  0.00    +0.000 C 
ATOM     16  C   UNL     1       0.178  10.049  18.766  0.00  0.00    +0.000 C 
BRANCH  12  18
ATOM     17  C   UNL     1       0.021  10.384  21.698  0.00  0.00    +0.000 C 
ATOM     18  C   UNL     1      -0.830  11.140  20.683  0.00  0.00    +0.000 C 
ENDBRANCH  12  18
ENDBRANCH  11  16
ENDBRANCH   7  11
ENDBRANCH   1   8
BRANCH   3  19
ATOM     19  N   UNL     1       5.208   5.283  15.996  0.00  0.00    +0.000 N 
ATOM     20  H   UNL     1       5.197   4.448  15.406  0.00  0.00    +0.000 HD
BRANCH  19  21
ATOM     21  S   UNL     1       6.821   5.545  16.398  0.00  0.00    +0.000 S 
ATOM     22  O   UNL     1       6.987   6.932  16.751  0.00  0.00    +0.000 OA
ATOM     23  O   UNL     1       7.211   4.467  17.266  0.00  0.00    +0.000 OA
BRANCH  21  24
ATOM     24  N   UNL     1       7.535   5.298  14.926  0.00  0.00    +0.000 NA
ATOM     25  H   UNL     1       8.392   5.827  14.789  0.00  0.00    +0.000 HD
ATOM     26  H   UNL     1       6.872   5.257  14.160  0.00  0.00    +0.000 HD
ENDBRANCH  21  24
ENDBRANCH  19  21
ENDBRANCH   3  19
BRANCH   6  27
ATOM     27  O   UNL     1       1.350   4.799  20.015  0.00  0.00    +0.000 OA
ATOM     28  C   UNL     1       1.082   3.456  20.372  0.00  0.00    +0.000 C 
ENDBRANCH   6  27
TORSDOF 8
ENDMDL
