MODEL 1
REMARK VINA RESULT:      -7.6      0.000      0.000
REMARK  Name = 
REMARK  7 active torsions:
REMARK  status: ('A' for Active; 'I' for Inactive)
REMARK    1  A    between atoms: C_2  and  C_3
REMARK    2  A    between atoms: C_3  and  C_4
REMARK    3  A    between atoms: C_4  and  C_5
REMARK    4  A    between atoms: C_5  and  C_6
REMARK    5  A    between atoms: N_9  and  S_10
REMARK    6  A    between atoms: S_10  and  C_13
REMARK    7  A    between atoms: N_22  and  O_23
REMARK                            x       y       z     vdW  Elec       q    Type
REMARK                         _______ _______ _______ _____ _____    ______ ____
ROOT
ATOM      1  C   UNL     1       2.432   6.116  18.475  0.00  0.00    +0.000 C 
ATOM      2  C   UNL     1       3.128   7.180  17.612  0.00  0.00    +0.000 C 
ATOM      3  C   UNL     1       4.584   6.878  17.229  0.00  0.00    +0.000 C 
ATOM      4  N   UNL     1       5.399   6.321  18.355  0.00  0.00    +0.000 NA
ATOM      5  C   UNL     1       4.693   5.258  19.122  0.00  0.00    +0.000 C 
ATOM      6  C   UNL     1       3.378   5.811  19.643  0.00  0.00    +0.000 C 
ENDROOT
BRANCH   4   7
ATOM      7  S   UNL     1       6.986   5.814  17.904  0.00  0.00    +0.000 S 
ATOM      8  O   UNL     1       7.788   6.994  17.641  0.00  0.00    +0.000 OA
ATOM      9  O   UNL     1       7.423   4.821  18.868  0.00  0.00    +0.000 OA
BRANCH   7  10
ATOM     10  C   UNL     1       6.758   5.017  16.336  0.00  0.00    +0.000 A 
ATOM     11  C   UNL     1       5.860   3.946  16.247  0.00  0.00    +0.000 A 
ATOM     12  C   UNL     1       5.578   3.389  14.999  0.00  0.00    +0.000 A 
ATOM     13  C   UNL     1       6.185   3.913  13.861  0.00  0.00    +0.000 A 
ATOM     14  F   UNL     1       5.897   3.391  12.661  0.00  0.00    +0.000 F 
ATOM     15  C   UNL     1       7.076   4.980  13.945  0.00  0.00    +0.000 A 
ATOM     16  C   UNL     1       7.369   5.540  15.188  0.00  0.00    +0.000 A 
ENDBRANCH   7  10
ENDBRANCH   4   7
BRANCH   1  17
ATOM     17  C   UNL     1       1.945   4.838  17.719  0.00  0.00    +0.000 C 
BRANCH  17  18
ATOM     18  C   UNL     1       1.526   3.772  18.746  0.00  0.00    +0.000 C 
BRANCH  18  19
ATOM     19  C   UNL     1       2.103   2.361  18.641  0.00  0.00    +0.000 C 
BRANCH  19  21
ATOM     20  O   UNL     1       3.000   2.502  20.908  0.00  0.00    +0.000 OA
ATOM     21  C   UNL     1       3.169   2.203  19.725  0.00  0.00    +0.000 C 
ATOM     22  N   UNL     1       4.367   1.697  19.300  0.00  0.00    +0.000 N 
ATOM     23  H   UNL     1       4.566   1.323  18.382  0.00  0.00    +0.000 HD
BRANCH  22  24
ATOM     24  O   UNL     1       5.345   1.505  20.307  0.00  0.00    +0.000 OA
ATOM     25  H   UNL     1       4.807   1.180  21.064  0.00  0.00    +0.000 HD
ENDBRANCH  22  24
ENDBRANCH  19  21
ENDBRANCH  18  19
ENDBRANCH  17  18
ENDBRANCH   1  17
TORSDOF 7
ENDMDL
MODEL 2
REMARK VINA RESULT:      -7.5      4.155      7.373
REMARK  Name = 
REMARK  7 active torsions:
REMARK  status: ('A' for Active; 'I' for Inactive)
REMARK    1  A    between atoms: C_2  and  C_3
REMARK    2  A    between atoms: C_3  and  C_4
REMARK    3  A    between atoms: C_4  and  C_5
REMARK    4  A    between atoms: C_5  and  C_6
REMARK    5  A    between atoms: N_9  and  S_10
REMARK    6  A    between atoms: S_10  and  C_13
REMARK    7  A    between atoms: N_22  and  O_23
REMARK                            x       y       z     vdW  Elec       q    Type
REMARK                         _______ _______ _______ _____ _____    ______ ____
ROOT
ATOM      1  C   UNL     1       7.745   5.869  18.310  0.00  0.00    +0.000 C 
ATOM      2  C   UNL     1       7.538   4.672  17.369  0.00  0.00    +0.000 C 
ATOM      3  C   UNL     1       6.082   4.374  16.982  0.00  0.00    +0.000 C 
ATOM      4  N   UNL     1       5.122   4.473  18.129  0.00  0.00    +0.000 NA
ATOM      5  C   UNL     1       5.339   5.679  18.974  0.00  0.00    +0.000 C 
ATOM      6  C   UNL     1       6.771   5.681  19.480  0.00  0.00    +0.000 C 
ENDROOT
BRANCH   4   7
ATOM      7  S   UNL     1       3.463   4.312  17.685  0.00  0.00    +0.000 S 
ATOM      8  O   UNL     1       2.894   5.638  17.542  0.00  0.00    +0.000 OA
ATOM      9  O   UNL     1       3.387   3.352  16.601  0.00  0.00    +0.000 OA
BRANCH   7  10
ATOM     10  C   UNL     1       2.698   3.604  19.121  0.00  0.00    +0.000 A 
ATOM     11  C   UNL     1       3.499   2.927  20.049  0.00  0.00    +0.000 A 
ATOM     12  C   UNL     1       2.932   2.472  21.240  0.00  0.00    +0.000 A 
ATOM     13  C   UNL     1       1.583   2.706  21.493  0.00  0.00    +0.000 A 
ATOM     14  F   UNL     1       1.047   2.287  22.646  0.00  0.00    +0.000 F 
ATOM     15  C   UNL     1       0.785   3.381  20.573  0.00  0.00    +0.000 A 
ATOM     16  C   UNL     1       1.339   3.834  19.377  0.00  0.00    +0.000 A 
ENDBRANCH   7  10
ENDBRANCH   4   7
BRANCH   1  17
ATOM     17  C   UNL     1       7.656   7.280  17.646  0.00  0.00    +0.000 C 
BRANCH  17  18
ATOM     18  C   UNL     1       8.441   8.292  18.501  0.00  0.00    +0.000 C 
BRANCH  18  19
ATOM     19  C   UNL     1       8.401   9.775  18.134  0.00  0.00    +0.000 C 
BRANCH  19  21
ATOM     20  O   UNL     1      10.471  11.001  18.548  0.00  0.00    +0.000 OA
ATOM     21  C   UNL     1       9.436  10.503  18.991  0.00  0.00    +0.000 C 
ATOM     22  N   UNL     1       9.145  10.575  20.326  0.00  0.00    +0.000 N 
ATOM     23  H   UNL     1       8.278  10.296  20.765  0.00  0.00    +0.000 HD
BRANCH  22  24
ATOM     24  O   UNL     1      10.077  11.287  21.121  0.00  0.00    +0.000 OA
ATOM     25  H   UNL     1       9.826  11.016  22.033  0.00  0.00    +0.000 HD
ENDBRANCH  22  24
ENDBRANCH  19  21
ENDBRANCH  18  19
ENDBRANCH  17  18
ENDBRANCH   1  17
TORSDOF 7
ENDMDL
MODEL 3
REMARK VINA RESULT:      -7.5      4.254      7.425
REMARK  Name = 
REMARK  7 active torsions:
REMARK  status: ('A' for Active; 'I' for Inactive)
REMARK    1  A    between atoms: C_2  and  C_3
REMARK    2  A    between atoms: C_3  and  C_4
REMARK    3  A    between atoms: C_4  and  C_5
REMARK    4  A    between atoms: C_5  and  C_6
REMARK    5  A    between atoms: N_9  and  S_10
REMARK    6  A    between atoms: S_10  and  C_13
REMARK    7  A    between atoms: N_22  and  O_23
REMARK                            x       y       z     vdW  Elec       q    Type
REMARK                         _______ _______ _______ _____ _____    ______ ____
ROOT
ATOM      1  C   UNL     1       7.752   5.906  18.215  0.00  0.00    +0.000 C 
ATOM      2  C   UNL     1       7.481   4.786  17.197  0.00  0.00    +0.000 C 
ATOM      3  C   UNL     1       6.002   4.514  16.887  0.00  0.00    +0.000 C 
ATOM      4  N   UNL     1       5.122   4.517  18.099  0.00  0.00    +0.000 NA
ATOM      5  C   UNL     1       5.396   5.653  19.021  0.00  0.00    +0.000 C 
ATOM      6  C   UNL     1       6.859   5.621  19.429  0.00  0.00    +0.000 C 
ENDROOT
BRANCH   4   7
ATOM      7  S   UNL     1       3.435   4.385  17.756  0.00  0.00    +0.000 S 
ATOM      8  O   UNL     1       2.902   5.717  17.549  0.00  0.00    +0.000 OA
ATOM      9  O   UNL     1       3.270   3.355  16.748  0.00  0.00    +0.000 OA
BRANCH   7  10
ATOM     10  C   UNL     1       2.729   3.806  19.277  0.00  0.00    +0.000 A 
ATOM     11  C   UNL     1       1.368   4.031  19.519  0.00  0.00    +0.000 A 
ATOM     12  C   UNL     1       0.771   3.476  20.651  0.00  0.00    +0.000 A 
ATOM     13  C   UNL     1       1.535   2.698  21.517  0.00  0.00    +0.000 A 
ATOM     14  F   UNL     1       0.955   2.148  22.592  0.00  0.00    +0.000 F 
ATOM     15  C   UNL     1       2.887   2.469  21.278  0.00  0.00    +0.000 A 
ATOM     16  C   UNL     1       3.495   3.024  20.153  0.00  0.00    +0.000 A 
ENDBRANCH   7  10
ENDBRANCH   4   7
BRANCH   1  17
ATOM     17  C   UNL     1       7.621   7.365  17.672  0.00  0.00    +0.000 C 
BRANCH  17  18
ATOM     18  C   UNL     1       8.455   8.310  18.556  0.00  0.00    +0.000 C 
BRANCH  18  19
ATOM     19  C   UNL     1       8.633   9.768  18.135  0.00  0.00    +0.000 C 
BRANCH  19  21
ATOM     20  O   UNL     1       9.156  10.438  20.424  0.00  0.00    +0.000 OA
ATOM     21  C   UNL     1       9.433  10.481  19.225  0.00  0.00    +0.000 C 
ATOM     22  N   UNL     1      10.512  11.199  18.785  0.00  0.00    +0.000 N 
ATOM     23  H   UNL     1      10.881  11.207  17.844  0.00  0.00    +0.000 HD
BRANCH  22  24
ATOM     24  O   UNL     1      11.285  11.826  19.793  0.00  0.00    +0.000 OA
ATOM     25  H   UNL     1      11.094  11.268  20.582  0.00  0.00    +0.000 HD
ENDBRANCH  22  24
ENDBRANCH  19  21
ENDBRANCH  18  19
ENDBRANCH  17  18
ENDBRANCH   1  17
TORSDOF 7
ENDMDL
MODEL 4
REMARK VINA RESULT:      -7.5      0.833      1.364
REMARK  Name = 
REMARK  7 active torsions:
REMARK  status: ('A' for Active; 'I' for Inactive)
REMARK    1  A    between atoms: C_2  and  C_3
REMARK    2  A    between atoms: C_3  and  C_4
REMARK    3  A    between atoms: C_4  and  C_5
REMARK    4  A    between atoms: C_5  and  C_6
REMARK    5  A    between atoms: N_9  and  S_10
REMARK    6  A    between atoms: S_10  and  C_13
REMARK    7  A    between atoms: N_22  and  O_23
REMARK                            x       y       z     vdW  Elec       q    Type
REMARK                         _______ _______ _______ _____ _____    ______ ____
ROOT
ATOM      1  C   UNL     1       2.787   6.168  18.600  0.00  0.00    +0.000 C 
ATOM      2  C   UNL     1       3.387   7.275  17.719  0.00  0.00    +0.000 C 
ATOM      3  C   UNL     1       4.739   6.948  17.068  0.00  0.00    +0.000 C 
ATOM      4  N   UNL     1       5.699   6.258  17.989  0.00  0.00    +0.000 NA
ATOM      5  C   UNL     1       5.073   5.163  18.778  0.00  0.00    +0.000 C 
ATOM      6  C   UNL     1       3.897   5.722  19.560  0.00  0.00    +0.000 C 
ENDROOT
BRANCH   4   7
ATOM      7  S   UNL     1       7.157   5.728  17.232  0.00  0.00    +0.000 S 
ATOM      8  O   UNL     1       7.946   6.894  16.887  0.00  0.00    +0.000 OA
ATOM      9  O   UNL     1       7.717   4.669  18.050  0.00  0.00    +0.000 OA
BRANCH   7  10
ATOM     10  C   UNL     1       6.617   5.028  15.694  0.00  0.00    +0.000 A 
ATOM     11  C   UNL     1       7.352   5.299  14.533  0.00  0.00    +0.000 A 
ATOM     12  C   UNL     1       7.013   4.659  13.341  0.00  0.00    +0.000 A 
ATOM     13  C   UNL     1       5.955   3.753  13.326  0.00  0.00    +0.000 A 
ATOM     14  F   UNL     1       5.645   3.124  12.185  0.00  0.00    +0.000 F 
ATOM     15  C   UNL     1       5.224   3.479  14.478  0.00  0.00    +0.000 A 
ATOM     16  C   UNL     1       5.551   4.118  15.674  0.00  0.00    +0.000 A 
ENDBRANCH   7  10
ENDBRANCH   4   7
BRANCH   1  17
ATOM     17  C   UNL     1       2.109   4.985  17.839  0.00  0.00    +0.000 C 
BRANCH  17  18
ATOM     18  C   UNL     1       1.833   3.839  18.829  0.00  0.00    +0.000 C 
BRANCH  18  19
ATOM     19  C   UNL     1       1.900   2.392  18.340  0.00  0.00    +0.000 C 
BRANCH  19  21
ATOM     20  O   UNL     1       3.877   0.981  18.088  0.00  0.00    +0.000 OA
ATOM     21  C   UNL     1       3.257   1.818  18.745  0.00  0.00    +0.000 C 
ATOM     22  N   UNL     1       3.768   2.296  19.922  0.00  0.00    +0.000 N 
ATOM     23  H   UNL     1       3.392   3.056  20.472  0.00  0.00    +0.000 HD
BRANCH  22  24
ATOM     24  O   UNL     1       5.046   1.802  20.282  0.00  0.00    +0.000 OA
ATOM     25  H   UNL     1       5.443   1.587  19.407  0.00  0.00    +0.000 HD
ENDBRANCH  22  24
ENDBRANCH  19  21
ENDBRANCH  18  19
ENDBRANCH  17  18
ENDBRANCH   1  17
TORSDOF 7
ENDMDL
MODEL 5
REMARK VINA RESULT:      -7.4      1.393      2.110
REMARK  Name = 
REMARK  7 active torsions:
REMARK  status: ('A' for Active; 'I' for Inactive)
REMARK    1  A    between atoms: C_2  and  C_3
REMARK    2  A    between atoms: C_3  and  C_4
REMARK    3  A    between atoms: C_4  and  C_5
REMARK    4  A    between atoms: C_5  and  C_6
REMARK    5  A    between atoms: N_9  and  S_10
REMARK    6  A    between atoms: S_10  and  C_13
REMARK    7  A    between atoms: N_22  and  O_23
REMARK                            x       y       z     vdW  Elec       q    Type
REMARK                         _______ _______ _______ _____ _____    ______ ____
ROOT
ATOM      1  C   UNL     1       2.432   5.855  18.439  0.00  0.00    +0.000 C 
ATOM      2  C   UNL     1       2.689   4.654  17.515  0.00  0.00    +0.000 C 
ATOM      3  C   UNL     1       4.154   4.423  17.118  0.00  0.00    +0.000 C 
ATOM      4  N   UNL     1       4.889   5.681  16.768  0.00  0.00    +0.000 NA
ATOM      5  C   UNL     1       4.641   6.792  17.726  0.00  0.00    +0.000 C 
ATOM      6  C   UNL     1       3.147   7.056  17.807  0.00  0.00    +0.000 C 
ENDROOT
BRANCH   4   7
ATOM      7  S   UNL     1       6.578   5.466  16.485  0.00  0.00    +0.000 S 
ATOM      8  O   UNL     1       7.225   6.762  16.557  0.00  0.00    +0.000 OA
ATOM      9  O   UNL     1       7.027   4.366  17.317  0.00  0.00    +0.000 OA
BRANCH   7  10
ATOM     10  C   UNL     1       6.672   4.964  14.787  0.00  0.00    +0.000 A 
ATOM     11  C   UNL     1       7.678   5.506  13.977  0.00  0.00    +0.000 A 
ATOM     12  C   UNL     1       7.841   5.031  12.675  0.00  0.00    +0.000 A 
ATOM     13  C   UNL     1       7.010   4.018  12.205  0.00  0.00    +0.000 A 
ATOM     14  F   UNL     1       7.182   3.549  10.962  0.00  0.00    +0.000 F 
ATOM     15  C   UNL     1       6.011   3.475  13.008  0.00  0.00    +0.000 A 
ATOM     16  C   UNL     1       5.835   3.947  14.308  0.00  0.00    +0.000 A 
ENDBRANCH   7  10
ENDBRANCH   4   7
BRANCH   1  17
ATOM     17  C   UNL     1       2.784   5.642  19.946  0.00  0.00    +0.000 C 
BRANCH  17  18
ATOM     18  C   UNL     1       1.697   4.770  20.601  0.00  0.00    +0.000 C 
BRANCH  18  19
ATOM     19  C   UNL     1       2.106   3.517  21.375  0.00  0.00    +0.000 C 
BRANCH  19  21
ATOM     20  O   UNL     1       2.309   1.931  19.530  0.00  0.00    +0.000 OA
ATOM     21  C   UNL     1       2.853   2.591  20.415  0.00  0.00    +0.000 C 
ATOM     22  N   UNL     1       4.207   2.526  20.599  0.00  0.00    +0.000 N 
ATOM     23  H   UNL     1       4.755   3.105  21.220  0.00  0.00    +0.000 HD
BRANCH  22  24
ATOM     24  O   UNL     1       4.913   1.705  19.685  0.00  0.00    +0.000 OA
ATOM     25  H   UNL     1       5.498   1.182  20.280  0.00  0.00    +0.000 HD
ENDBRANCH  22  24
ENDBRANCH  19  21
ENDBRANCH  18  19
ENDBRANCH  17  18
ENDBRANCH   1  17
TORSDOF 7
ENDMDL
MODEL 6
REMARK VINA RESULT:      -7.4      1.213      1.399
REMARK  Name = 
REMARK  7 active torsions:
REMARK  status: ('A' for Active; 'I' for Inactive)
REMARK    1  A    between atoms: C_2  and  C_3
REMARK    2  A    between atoms: C_3  and  C_4
REMARK    3  A    between atoms: C_4  and  C_5
REMARK    4  A    between atoms: C_5  and  C_6
REMARK    5  A    between atoms: N_9  and  S_10
REMARK    6  A    between atoms: S_10  and  C_13
REMARK    7  A    between atoms: N_22  and  O_23
REMARK                            x       y       z     vdW  Elec       q    Type
REMARK                         _______ _______ _______ _____ _____    ______ ____
ROOT
ATOM      1  C   UNL     1       2.765   5.492  18.529  0.00  0.00    +0.000 C 
ATOM      2  C   UNL     1       3.231   6.693  17.691  0.00  0.00    +0.000 C 
ATOM      3  C   UNL     1       4.649   6.589  17.111  0.00  0.00    +0.000 C 
ATOM      4  N   UNL     1       5.656   6.041  18.076  0.00  0.00    +0.000 NA
ATOM      5  C   UNL     1       5.167   4.848  18.821  0.00  0.00    +0.000 C 
ATOM      6  C   UNL     1       3.880   5.206  19.544  0.00  0.00    +0.000 C 
ENDROOT
BRANCH   4   7
ATOM      7  S   UNL     1       7.215   5.755  17.395  0.00  0.00    +0.000 S 
ATOM      8  O   UNL     1       7.813   7.033  17.061  0.00  0.00    +0.000 OA
ATOM      9  O   UNL     1       7.907   4.815  18.256  0.00  0.00    +0.000 OA
BRANCH   7  10
ATOM     10  C   UNL     1       6.873   4.956  15.848  0.00  0.00    +0.000 A 
ATOM     11  C   UNL     1       5.883   3.966  15.804  0.00  0.00    +0.000 A 
ATOM     12  C   UNL     1       5.518   3.416  14.574  0.00  0.00    +0.000 A 
ATOM     13  C   UNL     1       6.134   3.867  13.410  0.00  0.00    +0.000 A 
ATOM     14  F   UNL     1       5.767   3.354  12.229  0.00  0.00    +0.000 F 
ATOM     15  C   UNL     1       7.116   4.853  13.451  0.00  0.00    +0.000 A 
ATOM     16  C   UNL     1       7.494   5.405  14.675  0.00  0.00    +0.000 A 
ENDBRANCH   7  10
ENDBRANCH   4   7
BRANCH   1  17
ATOM     17  C   UNL     1       2.319   4.231  17.722  0.00  0.00    +0.000 C 
BRANCH  17  18
ATOM     18  C   UNL     1       0.929   3.784  18.210  0.00  0.00    +0.000 C 
BRANCH  18  19
ATOM     19  C   UNL     1       0.772   2.423  18.886  0.00  0.00    +0.000 C 
BRANCH  19  21
ATOM     20  O   UNL     1       2.827   1.959  20.120  0.00  0.00    +0.000 OA
ATOM     21  C   UNL     1       1.677   2.399  20.117  0.00  0.00    +0.000 C 
ATOM     22  N   UNL     1       1.124   2.907  21.261  0.00  0.00    +0.000 N 
ATOM     23  H   UNL     1       0.237   3.386  21.335  0.00  0.00    +0.000 HD
BRANCH  22  24
ATOM     24  O   UNL     1       1.972   2.931  22.396  0.00  0.00    +0.000 OA
ATOM     25  H   UNL     1       1.813   3.832  22.758  0.00  0.00    +0.000 HD
ENDBRANCH  22  24
ENDBRANCH  19  21
ENDBRANCH  18  19
ENDBRANCH  17  18
ENDBRANCH   1  17
TORSDOF 7
ENDMDL
MODEL 7
REMARK VINA RESULT:      -7.3      1.264      1.700
REMARK  Name = 
REMARK  7 active torsions:
REMARK  status: ('A' for Active; 'I' for Inactive)
REMARK    1  A    between atoms: C_2  and  C_3
REMARK    2  A    between atoms: C_3  and  C_4
REMARK    3  A    between atoms: C_4  and  C_5
REMARK    4  A    between atoms: C_5  and  C_6
REMARK    5  A    between atoms: N_9  and  S_10
REMARK    6  A    between atoms: S_10  and  C_13
REMARK    7  A    between atoms: N_22  and  O_23
REMARK                            x       y       z     vdW  Elec       q    Type
REMARK                         _______ _______ _______ _____ _____    ______ ____
ROOT
ATOM      1  C   UNL     1       2.435   5.748  18.361  0.00  0.00    +0.000 C 
ATOM      2  C   UNL     1       2.761   4.598  17.394  0.00  0.00    +0.000 C 
ATOM      3  C   UNL     1       4.250   4.402  17.073  0.00  0.00    +0.000 C 
ATOM      4  N   UNL     1       4.988   5.683  16.830  0.00  0.00    +0.000 NA
ATOM      5  C   UNL     1       4.670   6.742  17.828  0.00  0.00    +0.000 C 
ATOM      6  C   UNL     1       3.171   6.986  17.834  0.00  0.00    +0.000 C 
ENDROOT
BRANCH   4   7
ATOM      7  S   UNL     1       6.692   5.500  16.637  0.00  0.00    +0.000 S 
ATOM      8  O   UNL     1       7.303   6.814  16.670  0.00  0.00    +0.000 OA
ATOM      9  O   UNL     1       7.129   4.456  17.546  0.00  0.00    +0.000 OA
BRANCH   7  10
ATOM     10  C   UNL     1       6.879   4.914  14.973  0.00  0.00    +0.000 A 
ATOM     11  C   UNL     1       6.017   3.913  14.508  0.00  0.00    +0.000 A 
ATOM     12  C   UNL     1       6.072   3.530  13.168  0.00  0.00    +0.000 A 
ATOM     13  C   UNL     1       6.974   4.154  12.311  0.00  0.00    +0.000 A 
ATOM     14  F   UNL     1       7.009   3.800  11.020  0.00  0.00    +0.000 F 
ATOM     15  C   UNL     1       7.830   5.152  12.769  0.00  0.00    +0.000 A 
ATOM     16  C   UNL     1       7.788   5.539  14.108  0.00  0.00    +0.000 A 
ENDBRANCH   7  10
ENDBRANCH   4   7
BRANCH   1  17
ATOM     17  C   UNL     1       2.702   5.461  19.873  0.00  0.00    +0.000 C 
BRANCH  17  18
ATOM     18  C   UNL     1       1.501   4.699  20.463  0.00  0.00    +0.000 C 
BRANCH  18  19
ATOM     19  C   UNL     1       1.449   3.176  20.349  0.00  0.00    +0.000 C 
BRANCH  19  21
ATOM     20  O   UNL     1       3.049   2.431  22.036  0.00  0.00    +0.000 OA
ATOM     21  C   UNL     1       2.782   2.619  20.849  0.00  0.00    +0.000 C 
ATOM     22  N   UNL     1       3.699   2.330  19.876  0.00  0.00    +0.000 N 
ATOM     23  H   UNL     1       3.537   2.346  18.878  0.00  0.00    +0.000 HD
BRANCH  22  24
ATOM     24  O   UNL     1       4.919   1.770  20.327  0.00  0.00    +0.000 OA
ATOM     25  H   UNL     1       5.017   2.173  21.220  0.00  0.00    +0.000 HD
ENDBRANCH  22  24
ENDBRANCH  19  21
ENDBRANCH  18  19
ENDBRANCH  17  18
ENDBRANCH   1  17
TORSDOF 7
ENDMDL
MODEL 8
REMARK VINA RESULT:      -7.1      1.614      2.025
REMARK  Name = 
REMARK  7 active torsions:
REMARK  status: ('A' for Active; 'I' for Inactive)
REMARK    1  A    between atoms: C_2  and  C_3
REMARK    2  A    between atoms: C_3  and  C_4
REMARK    3  A    between atoms: C_4  and  C_5
REMARK    4  A    between atoms: C_5  and  C_6
REMARK    5  A    between atoms: N_9  and  S_10
REMARK    6  A    between atoms: S_10  and  C_13
REMARK    7  A    between atoms: N_22  and  O_23
REMARK                            x       y       z     vdW  Elec       q    Type
REMARK                         _______ _______ _______ _____ _____    ______ ____
ROOT
ATOM      1  C   UNL     1       3.124   4.936  18.488  0.00  0.00    +0.000 C 
ATOM      2  C   UNL     1       3.398   6.217  17.684  0.00  0.00    +0.000 C 
ATOM      3  C   UNL     1       4.708   6.232  16.883  0.00  0.00    +0.000 C 
ATOM      4  N   UNL     1       5.879   5.673  17.632  0.00  0.00    +0.000 NA
ATOM      5  C   UNL     1       5.567   4.406  18.349  0.00  0.00    +0.000 C 
ATOM      6  C   UNL     1       4.398   4.641  19.290  0.00  0.00    +0.000 C 
ENDROOT
BRANCH   4   7
ATOM      7  S   UNL     1       7.319   5.521  16.695  0.00  0.00    +0.000 S 
ATOM      8  O   UNL     1       7.849   6.848  16.447  0.00  0.00    +0.000 OA
ATOM      9  O   UNL     1       8.142   4.498  17.313  0.00  0.00    +0.000 OA
BRANCH   7  10
ATOM     10  C   UNL     1       6.754   4.918  15.126  0.00  0.00    +0.000 A 
ATOM     11  C   UNL     1       7.517   5.189  13.983  0.00  0.00    +0.000 A 
ATOM     12  C   UNL     1       7.151   4.619  12.763  0.00  0.00    +0.000 A 
ATOM     13  C   UNL     1       6.039   3.783  12.702  0.00  0.00    +0.000 A 
ATOM     14  F   UNL     1       5.702   3.220  11.534  0.00  0.00    +0.000 F 
ATOM     15  C   UNL     1       5.281   3.509  13.837  0.00  0.00    +0.000 A 
ATOM     16  C   UNL     1       5.634   4.078  15.059  0.00  0.00    +0.000 A 
ENDBRANCH   7  10
ENDBRANCH   4   7
BRANCH   1  17
ATOM     17  C   UNL     1       2.608   3.713  17.665  0.00  0.00    +0.000 C 
BRANCH  17  18
ATOM     18  C   UNL     1       1.100   3.533  17.918  0.00  0.00    +0.000 C 
BRANCH  18  19
ATOM     19  C   UNL     1       0.633   2.650  19.074  0.00  0.00    +0.000 C 
BRANCH  19  21
ATOM     20  O   UNL     1       0.758   4.423  20.747  0.00  0.00    +0.000 OA
ATOM     21  C   UNL     1       1.093   3.297  20.380  0.00  0.00    +0.000 C 
ATOM     22  N   UNL     1       1.931   2.535  21.148  0.00  0.00    +0.000 N 
ATOM     23  H   UNL     1       2.174   1.567  20.988  0.00  0.00    +0.000 HD
BRANCH  22  24
ATOM     24  O   UNL     1       2.326   3.109  22.382  0.00  0.00    +0.000 OA
ATOM     25  H   UNL     1       3.308   3.089  22.318  0.00  0.00    +0.000 HD
ENDBRANCH  22  24
ENDBRANCH  19  21
ENDBRANCH  18  19
ENDBRANCH  17  18
ENDBRANCH   1  17
TORSDOF 7
ENDMDL
MODEL 9
REMARK VINA RESULT:      -7.1      2.775      3.515
REMARK  Name = 
REMARK  7 active torsions:
REMARK  status: ('A' for Active; 'I' for Inactive)
REMARK    1  A    between atoms: C_2  and  C_3
REMARK    2  A    between atoms: C_3  and  C_4
REMARK    3  A    between atoms: C_4  and  C_5
REMARK    4  A    between atoms: C_5  and  C_6
REMARK    5  A    between atoms: N_9  and  S_10
REMARK    6  A    between atoms: S_10  and  C_13
REMARK    7  A    between atoms: N_22  and  O_23
REMARK                            x       y       z     vdW  Elec       q    Type
REMARK                         _______ _______ _______ _____ _____    ______ ____
ROOT
ATOM      1  C   UNL     1       1.630   5.758  18.854  0.00  0.00    +0.000 C 
ATOM      2  C   UNL     1       1.484   4.722  17.727  0.00  0.00    +0.000 C 
ATOM      3  C   UNL     1       2.797   4.132  17.192  0.00  0.00    +0.000 C 
ATOM      4  N   UNL     1       3.881   5.149  17.002  0.00  0.00    +0.000 NA
ATOM      5  C   UNL     1       4.009   6.093  18.147  0.00  0.00    +0.000 C 
ATOM      6  C   UNL     1       2.673   6.778  18.379  0.00  0.00    +0.000 C 
ENDROOT
BRANCH   4   7
ATOM      7  S   UNL     1       5.413   4.487  16.566  0.00  0.00    +0.000 S 
ATOM      8  O   UNL     1       5.588   3.230  17.269  0.00  0.00    +0.000 OA
ATOM      9  O   UNL     1       5.526   4.549  15.121  0.00  0.00    +0.000 OA
BRANCH   7  10
ATOM     10  C   UNL     1       6.589   5.611  17.273  0.00  0.00    +0.000 A 
ATOM     11  C   UNL     1       6.737   6.882  16.703  0.00  0.00    +0.000 A 
ATOM     12  C   UNL     1       7.566   7.818  17.320  0.00  0.00    +0.000 A 
ATOM     13  C   UNL     1       8.225   7.480  18.499  0.00  0.00    +0.000 A 
ATOM     14  F   UNL     1       9.004   8.388  19.101  0.00  0.00    +0.000 F 
ATOM     15  C   UNL     1       8.078   6.220  19.071  0.00  0.00    +0.000 A 
ATOM     16  C   UNL     1       7.256   5.274  18.459  0.00  0.00    +0.000 A 
ENDBRANCH   7  10
ENDBRANCH   4   7
BRANCH   1  17
ATOM     17  C   UNL     1       1.925   5.180  20.275  0.00  0.00    +0.000 C 
BRANCH  17  18
ATOM     18  C   UNL     1       0.988   3.989  20.541  0.00  0.00    +0.000 C 
BRANCH  18  19
ATOM     19  C   UNL     1       1.456   2.575  20.198  0.00  0.00    +0.000 C 
BRANCH  19  21
ATOM     20  O   UNL     1       3.211   2.422  21.888  0.00  0.00    +0.000 OA
ATOM     21  C   UNL     1       2.891   2.416  20.700  0.00  0.00    +0.000 C 
ATOM     22  N   UNL     1       3.839   2.265  19.724  0.00  0.00    +0.000 N 
ATOM     23  H   UNL     1       3.665   2.139  18.737  0.00  0.00    +0.000 HD
BRANCH  22  24
ATOM     24  O   UNL     1       5.166   2.072  20.182  0.00  0.00    +0.000 OA
ATOM     25  H   UNL     1       5.285   1.100  20.077  0.00  0.00    +0.000 HD
ENDBRANCH  22  24
ENDBRANCH  19  21
ENDBRANCH  18  19
ENDBRANCH  17  18
ENDBRANCH   1  17
TORSDOF 7
ENDMDL
