MODEL 1
REMARK VINA RESULT:      -7.9      0.000      0.000
REMARK  Name = 
REMARK  5 active torsions:
REMARK  status: ('A' for Active; 'I' for Inactive)
REMARK    1  A    between atoms: C_1  and  C_2
REMARK    2  A    between atoms: C_8  and  O_9
REMARK    3  A    between atoms: O_9  and  C_10
REMARK    4  A    between atoms: C_10  and  C_11
REMARK    5  A    between atoms: N_20  and  C_21
REMARK                            x       y       z     vdW  Elec       q    Type
REMARK                         _______ _______ _______ _____ _____    ______ ____
ROOT
ATOM      1  C   UNL     1       2.101   6.295  20.307  0.00  0.00    +0.000 A 
ATOM      2  N   UNL     1       1.233   5.339  20.625  0.00  0.00    +0.000 NA
ATOM      3  C   UNL     1       1.517   4.150  20.118  0.00  0.00    +0.000 A 
ATOM      4  N   UNL     1       0.655   3.118  20.432  0.00  0.00    +0.000 N 
ATOM      5  N   UNL     1       2.552   3.874  19.339  0.00  0.00    +0.000 NA
ATOM      6  C   UNL     1       3.375   4.885  19.077  0.00  0.00    +0.000 A 
ATOM      7  N   UNL     1       4.385   4.743  18.158  0.00  0.00    +0.000 N 
ATOM      8  C   UNL     1       5.613   5.513  18.349  0.00  0.00    +0.000 C 
ATOM      9  C   UNL     1       6.267   5.794  16.979  0.00  0.00    +0.000 C 
ATOM     10  N   UNL     1       6.484   4.563  16.184  0.00  0.00    +0.000 NA
ATOM     11  C   UNL     1       7.039   4.897  14.874  0.00  0.00    +0.000 C 
ATOM     12  C   UNL     1       5.199   3.838  16.038  0.00  0.00    +0.000 C 
ATOM     13  C   UNL     1       4.537   3.506  17.402  0.00  0.00    +0.000 C 
ATOM     14  N   UNL     1       3.196   6.100  19.575  0.00  0.00    +0.000 NA
ATOM     15  H   UNL     1       0.151   3.344  21.281  0.00  0.00    +0.000 HD
ATOM     16  H   UNL     1       1.149   2.238  20.410  0.00  0.00    +0.000 HD
ENDROOT
BRANCH   1  17
ATOM     17  C   UNL     1       1.741   7.734  20.607  0.00  0.00    +0.000 C 
BRANCH  17  18
ATOM     18  O   UNL     1       0.389   7.875  21.012  0.00  0.00    +0.000 OA
BRANCH  18  26
ATOM     19  C   UNL     1      -0.229  10.248  18.970  0.00  0.00    +0.000 C 
ATOM     20  C   UNL     1      -0.391  10.211  20.465  0.00  0.00    +0.000 A 
ATOM     21  C   UNL     1      -0.890  11.398  21.049  0.00  0.00    +0.000 A 
ATOM     22  C   UNL     1      -1.082  11.512  22.424  0.00  0.00    +0.000 A 
ATOM     23 CL   UNL     1      -1.687  12.979  23.086  0.00  0.00    +0.000 Cl
ATOM     24  C   UNL     1      -0.782  10.446  23.255  0.00  0.00    +0.000 A 
ATOM     25  C   UNL     1      -0.292   9.263  22.699  0.00  0.00    +0.000 A 
ATOM     26  C   UNL     1      -0.092   9.123  21.312  0.00  0.00    +0.000 A 
ENDBRANCH  18  26
ENDBRANCH  17  18
ENDBRANCH   1  17
TORSDOF 3
ENDMDL
MODEL 2
REMARK VINA RESULT:      -7.8      5.017      7.720
REMARK  Name = 
REMARK  5 active torsions:
REMARK  status: ('A' for Active; 'I' for Inactive)
REMARK    1  A    between atoms: C_1  and  C_2
REMARK    2  A    between atoms: C_8  and  O_9
REMARK    3  A    between atoms: O_9  and  C_10
REMARK    4  A    between atoms: C_10  and  C_11
REMARK    5  A    between atoms: N_20  and  C_21
REMARK                            x       y       z     vdW  Elec       q    Type
REMARK                         _______ _______ _______ _____ _____    ______ ____
ROOT
ATOM      1  C   UNL     1       7.072   7.144  17.283  0.00  0.00    +0.000 A 
ATOM      2  N   UNL     1       7.637   6.481  16.280  0.00  0.00    +0.000 NA
ATOM      3  C   UNL     1       6.913   5.479  15.808  0.00  0.00    +0.000 A 
ATOM      4  N   UNL     1       7.449   4.767  14.751  0.00  0.00    +0.000 N 
ATOM      5  N   UNL     1       5.727   5.107  16.264  0.00  0.00    +0.000 NA
ATOM      6  C   UNL     1       5.230   5.829  17.263  0.00  0.00    +0.000 A 
ATOM      7  N   UNL     1       4.085   5.432  17.909  0.00  0.00    +0.000 N 
ATOM      8  C   UNL     1       3.211   6.461  18.472  0.00  0.00    +0.000 C 
ATOM      9  C   UNL     1       2.455   5.889  19.690  0.00  0.00    +0.000 C 
ATOM     10  N   UNL     1       1.731   4.634  19.378  0.00  0.00    +0.000 NA
ATOM     11  C   UNL     1       1.094   4.105  20.581  0.00  0.00    +0.000 C 
ATOM     12  C   UNL     1       2.680   3.647  18.811  0.00  0.00    +0.000 C 
ATOM     13  C   UNL     1       3.426   4.179  17.559  0.00  0.00    +0.000 C 
ATOM     14  N   UNL     1       5.863   6.876  17.772  0.00  0.00    +0.000 NA
ATOM     15  H   UNL     1       8.135   5.337  14.273  0.00  0.00    +0.000 HD
ATOM     16  H   UNL     1       6.708   4.370  14.193  0.00  0.00    +0.000 HD
ENDROOT
BRANCH   1  17
ATOM     17  C   UNL     1       7.909   8.130  18.067  0.00  0.00    +0.000 C 
BRANCH  17  18
ATOM     18  O   UNL     1       7.722   9.465  17.624  0.00  0.00    +0.000 OA
BRANCH  18  26
ATOM     19  C   UNL     1       7.575  12.583  16.962  0.00  0.00    +0.000 C 
ATOM     20  C   UNL     1       8.454  11.857  17.944  0.00  0.00    +0.000 A 
ATOM     21  C   UNL     1       9.343  12.675  18.679  0.00  0.00    +0.000 A 
ATOM     22  C   UNL     1      10.223  12.141  19.616  0.00  0.00    +0.000 A 
ATOM     23 CL   UNL     1      11.287  13.177  20.482  0.00  0.00    +0.000 Cl
ATOM     24  C   UNL     1      10.242  10.775  19.847  0.00  0.00    +0.000 A 
ATOM     25  C   UNL     1       9.371   9.950  19.135  0.00  0.00    +0.000 A 
ATOM     26  C   UNL     1       8.471  10.467  18.184  0.00  0.00    +0.000 A 
ENDBRANCH  18  26
ENDBRANCH  17  18
ENDBRANCH   1  17
TORSDOF 3
ENDMDL
MODEL 3
REMARK VINA RESULT:      -7.6      2.411      3.239
REMARK  Name = 
REMARK  5 active torsions:
REMARK  status: ('A' for Active; 'I' for Inactive)
REMARK    1  A    between atoms: C_1  and  C_2
REMARK    2  A    between atoms: C_8  and  O_9
REMARK    3  A    between atoms: O_9  and  C_10
REMARK    4  A    between atoms: C_10  and  C_11
REMARK    5  A    between atoms: N_20  and  C_21
REMARK                            x       y       z     vdW  Elec       q    Type
REMARK                         _______ _______ _______ _____ _____    ______ ____
ROOT
ATOM      1  C   UNL     1       2.224   8.084  18.612  0.00  0.00    +0.000 A 
ATOM      2  N   UNL     1       1.807   7.520  19.741  0.00  0.00    +0.000 NA
ATOM      3  C   UNL     1       2.391   6.368  20.027  0.00  0.00    +0.000 A 
ATOM      4  N   UNL     1       2.005   5.748  21.200  0.00  0.00    +0.000 N 
ATOM      5  N   UNL     1       3.309   5.767  19.284  0.00  0.00    +0.000 NA
ATOM      6  C   UNL     1       3.675   6.403  18.176  0.00  0.00    +0.000 A 
ATOM      7  N   UNL     1       4.499   5.794  17.262  0.00  0.00    +0.000 N 
ATOM      8  C   UNL     1       5.401   6.631  16.472  0.00  0.00    +0.000 C 
ATOM      9  C   UNL     1       5.672   5.957  15.109  0.00  0.00    +0.000 C 
ATOM     10  N   UNL     1       6.160   4.565  15.246  0.00  0.00    +0.000 NA
ATOM     11  C   UNL     1       6.333   3.957  13.928  0.00  0.00    +0.000 C 
ATOM     12  C   UNL     1       5.199   3.784  16.060  0.00  0.00    +0.000 C 
ATOM     13  C   UNL     1       4.936   4.416  17.452  0.00  0.00    +0.000 C 
ATOM     14  N   UNL     1       3.177   7.581  17.830  0.00  0.00    +0.000 NA
ATOM     15  H   UNL     1       1.607   6.433  21.830  0.00  0.00    +0.000 HD
ATOM     16  H   UNL     1       2.760   5.179  21.553  0.00  0.00    +0.000 HD
ENDROOT
BRANCH   1  17
ATOM     17  C   UNL     1       1.449   9.257  18.054  0.00  0.00    +0.000 C 
BRANCH  17  18
ATOM     18  O   UNL     1       0.594   9.844  19.023  0.00  0.00    +0.000 OA
BRANCH  18  26
ATOM     19  C   UNL     1      -1.063  12.184  20.423  0.00  0.00    +0.000 C 
ATOM     20  C   UNL     1      -1.394  11.386  19.191  0.00  0.00    +0.000 A 
ATOM     21  C   UNL     1      -2.616  11.723  18.564  0.00  0.00    +0.000 A 
ATOM     22  C   UNL     1      -3.058  11.062  17.421  0.00  0.00    +0.000 A 
ATOM     23 CL   UNL     1      -4.553  11.505  16.698  0.00  0.00    +0.000 Cl
ATOM     24  C   UNL     1      -2.293  10.046  16.870  0.00  0.00    +0.000 A 
ATOM     25  C   UNL     1      -1.082   9.701  17.471  0.00  0.00    +0.000 A 
ATOM     26  C   UNL     1      -0.614  10.356  18.627  0.00  0.00    +0.000 A 
ENDBRANCH  18  26
ENDBRANCH  17  18
ENDBRANCH   1  17
TORSDOF 3
ENDMDL
MODEL 4
REMARK VINA RESULT:      -7.5      4.520      8.883
REMARK  Name = 
REMARK  5 active torsions:
REMARK  status: ('A' for Active; 'I' for Inactive)
REMARK    1  A    between atoms: C_1  and  C_2
REMARK    2  A    between atoms: C_8  and  O_9
REMARK    3  A    between atoms: O_9  and  C_10
REMARK    4  A    between atoms: C_10  and  C_11
REMARK    5  A    between atoms: N_20  and  C_21
REMARK                            x       y       z     vdW  Elec       q    Type
REMARK                         _______ _______ _______ _____ _____    ______ ____
ROOT
ATOM      1  C   UNL     1       5.861   5.131  17.551  0.00  0.00    +0.000 A 
ATOM      2  N   UNL     1       5.951   4.011  18.260  0.00  0.00    +0.000 NA
ATOM      3  C   UNL     1       4.968   3.830  19.127  0.00  0.00    +0.000 A 
ATOM      4  N   UNL     1       5.005   2.672  19.878  0.00  0.00    +0.000 N 
ATOM      5  N   UNL     1       3.960   4.665  19.330  0.00  0.00    +0.000 NA
ATOM      6  C   UNL     1       3.942   5.757  18.572  0.00  0.00    +0.000 A 
ATOM      7  N   UNL     1       3.032   6.758  18.812  0.00  0.00    +0.000 N 
ATOM      8  C   UNL     1       2.563   7.557  17.680  0.00  0.00    +0.000 C 
ATOM      9  C   UNL     1       2.179   8.971  18.170  0.00  0.00    +0.000 C 
ATOM     10  N   UNL     1       1.211   8.946  19.291  0.00  0.00    +0.000 NA
ATOM     11  C   UNL     1       0.939  10.305  19.755  0.00  0.00    +0.000 C 
ATOM     12  C   UNL     1       1.754   8.116  20.392  0.00  0.00    +0.000 C 
ATOM     13  C   UNL     1       2.111   6.676  19.940  0.00  0.00    +0.000 C 
ATOM     14  N   UNL     1       4.860   6.002  17.648  0.00  0.00    +0.000 NA
ATOM     15  H   UNL     1       5.571   1.979  19.404  0.00  0.00    +0.000 HD
ATOM     16  H   UNL     1       4.069   2.402  20.142  0.00  0.00    +0.000 HD
ENDROOT
BRANCH   1  17
ATOM     17  C   UNL     1       7.052   5.568  16.726  0.00  0.00    +0.000 C 
BRANCH  17  18
ATOM     18  O   UNL     1       6.670   6.062  15.452  0.00  0.00    +0.000 OA
BRANCH  18  26
ATOM     19  C   UNL     1       8.665   5.844  12.971  0.00  0.00    +0.000 C 
ATOM     20  C   UNL     1       7.431   5.040  13.276  0.00  0.00    +0.000 A 
ATOM     21  C   UNL     1       7.110   4.044  12.325  0.00  0.00    +0.000 A 
ATOM     22  C   UNL     1       5.990   3.229  12.470  0.00  0.00    +0.000 A 
ATOM     23 CL   UNL     1       5.639   2.034  11.284  0.00  0.00    +0.000 Cl
ATOM     24  C   UNL     1       5.158   3.384  13.567  0.00  0.00    +0.000 A 
ATOM     25  C   UNL     1       5.459   4.359  14.519  0.00  0.00    +0.000 A 
ATOM     26  C   UNL     1       6.587   5.193  14.395  0.00  0.00    +0.000 A 
ENDBRANCH  18  26
ENDBRANCH  17  18
ENDBRANCH   1  17
TORSDOF 3
ENDMDL
MODEL 5
REMARK VINA RESULT:      -7.5      2.074      2.702
REMARK  Name = 
REMARK  5 active torsions:
REMARK  status: ('A' for Active; 'I' for Inactive)
REMARK    1  A    between atoms: C_1  and  C_2
REMARK    2  A    between atoms: C_8  and  O_9
REMARK    3  A    between atoms: O_9  and  C_10
REMARK    4  A    between atoms: C_10  and  C_11
REMARK    5  A    between atoms: N_20  and  C_21
REMARK                            x       y       z     vdW  Elec       q    Type
REMARK                         _______ _______ _______ _____ _____    ______ ____
ROOT
ATOM      1  C   UNL     1       2.340   8.289  18.505  0.00  0.00    +0.000 A 
ATOM      2  N   UNL     1       1.870   7.776  19.637  0.00  0.00    +0.000 NA
ATOM      3  C   UNL     1       2.368   6.591  19.951  0.00  0.00    +0.000 A 
ATOM      4  N   UNL     1       1.924   6.021  21.128  0.00  0.00    +0.000 N 
ATOM      5  N   UNL     1       3.250   5.914  19.231  0.00  0.00    +0.000 NA
ATOM      6  C   UNL     1       3.674   6.503  18.118  0.00  0.00    +0.000 A 
ATOM      7  N   UNL     1       4.465   5.821  17.226  0.00  0.00    +0.000 N 
ATOM      8  C   UNL     1       5.434   6.580  16.434  0.00  0.00    +0.000 C 
ATOM      9  C   UNL     1       5.675   5.864  15.087  0.00  0.00    +0.000 C 
ATOM     10  N   UNL     1       6.062   4.443  15.254  0.00  0.00    +0.000 NA
ATOM     11  C   UNL     1       6.208   3.802  13.950  0.00  0.00    +0.000 C 
ATOM     12  C   UNL     1       5.037   3.746  16.068  0.00  0.00    +0.000 C 
ATOM     13  C   UNL     1       4.802   4.420  17.445  0.00  0.00    +0.000 C 
ATOM     14  N   UNL     1       3.265   7.707  17.745  0.00  0.00    +0.000 NA
ATOM     15  H   UNL     1       1.567   6.743  21.741  0.00  0.00    +0.000 HD
ATOM     16  H   UNL     1       2.632   5.406  21.502  0.00  0.00    +0.000 HD
ENDROOT
BRANCH   1  17
ATOM     17  C   UNL     1       1.656   9.504  17.917  0.00  0.00    +0.000 C 
BRANCH  17  18
ATOM     18  O   UNL     1       0.284   9.269  17.646  0.00  0.00    +0.000 OA
BRANCH  18  26
ATOM     19  C   UNL     1      -2.500  10.053  16.298  0.00  0.00    +0.000 C 
ATOM     20  C   UNL     1      -1.899  10.531  17.592  0.00  0.00    +0.000 A 
ATOM     21  C   UNL     1      -2.681  11.462  18.314  0.00  0.00    +0.000 A 
ATOM     22  C   UNL     1      -2.248  11.999  19.523  0.00  0.00    +0.000 A 
ATOM     23 CL   UNL     1      -3.234  13.131  20.361  0.00  0.00    +0.000 Cl
ATOM     24  C   UNL     1      -1.022  11.623  20.047  0.00  0.00    +0.000 A 
ATOM     25  C   UNL     1      -0.236  10.703  19.353  0.00  0.00    +0.000 A 
ATOM     26  C   UNL     1      -0.653  10.145  18.129  0.00  0.00    +0.000 A 
ENDBRANCH  18  26
ENDBRANCH  17  18
ENDBRANCH   1  17
TORSDOF 3
ENDMDL
MODEL 6
REMARK VINA RESULT:      -7.4      0.885      1.707
REMARK  Name = 
REMARK  5 active torsions:
REMARK  status: ('A' for Active; 'I' for Inactive)
REMARK    1  A    between atoms: C_1  and  C_2
REMARK    2  A    between atoms: C_8  and  O_9
REMARK    3  A    between atoms: O_9  and  C_10
REMARK    4  A    between atoms: C_10  and  C_11
REMARK    5  A    between atoms: N_20  and  C_21
REMARK                            x       y       z     vdW  Elec       q    Type
REMARK                         _______ _______ _______ _____ _____    ______ ____
ROOT
ATOM      1  C   UNL     1       2.146   6.319  20.397  0.00  0.00    +0.000 A 
ATOM      2  N   UNL     1       1.199   5.419  20.640  0.00  0.00    +0.000 NA
ATOM      3  C   UNL     1       1.392   4.249  20.052  0.00  0.00    +0.000 A 
ATOM      4  N   UNL     1       0.444   3.271  20.286  0.00  0.00    +0.000 N 
ATOM      5  N   UNL     1       2.412   3.944  19.264  0.00  0.00    +0.000 NA
ATOM      6  C   UNL     1       3.318   4.899  19.081  0.00  0.00    +0.000 A 
ATOM      7  N   UNL     1       4.325   4.739  18.162  0.00  0.00    +0.000 N 
ATOM      8  C   UNL     1       5.610   5.390  18.417  0.00  0.00    +0.000 C 
ATOM      9  C   UNL     1       6.303   5.711  17.075  0.00  0.00    +0.000 C 
ATOM     10  N   UNL     1       6.429   4.525  16.197  0.00  0.00    +0.000 NA
ATOM     11  C   UNL     1       7.028   4.903  14.918  0.00  0.00    +0.000 C 
ATOM     12  C   UNL     1       5.092   3.921  15.990  0.00  0.00    +0.000 C 
ATOM     13  C   UNL     1       4.387   3.549  17.321  0.00  0.00    +0.000 C 
ATOM     14  N   UNL     1       3.231   6.087  19.662  0.00  0.00    +0.000 NA
ATOM     15  H   UNL     1      -0.051   3.478  21.144  0.00  0.00    +0.000 HD
ATOM     16  H   UNL     1       0.865   2.357  20.204  0.00  0.00    +0.000 HD
ENDROOT
BRANCH   1  17
ATOM     17  C   UNL     1       1.901   7.758  20.796  0.00  0.00    +0.000 C 
BRANCH  17  18
ATOM     18  O   UNL     1       0.519   8.061  20.891  0.00  0.00    +0.000 OA
BRANCH  18  26
ATOM     19  C   UNL     1      -0.553   9.976  23.207  0.00  0.00    +0.000 C 
ATOM     20  C   UNL     1      -0.368  10.263  21.742  0.00  0.00    +0.000 A 
ATOM     21  C   UNL     1      -0.719  11.570  21.334  0.00  0.00    +0.000 A 
ATOM     22  C   UNL     1      -0.609  11.976  20.006  0.00  0.00    +0.000 A 
ATOM     23 CL   UNL     1      -1.053  13.576  19.559  0.00  0.00    +0.000 Cl
ATOM     24  C   UNL     1      -0.146  11.089  19.048  0.00  0.00    +0.000 A 
ATOM     25  C   UNL     1       0.209   9.795  19.430  0.00  0.00    +0.000 A 
ATOM     26  C   UNL     1       0.109   9.363  20.766  0.00  0.00    +0.000 A 
ENDBRANCH  18  26
ENDBRANCH  17  18
ENDBRANCH   1  17
TORSDOF 3
ENDMDL
MODEL 7
REMARK VINA RESULT:      -7.3      4.565      8.120
REMARK  Name = 
REMARK  5 active torsions:
REMARK  status: ('A' for Active; 'I' for Inactive)
REMARK    1  A    between atoms: C_1  and  C_2
REMARK    2  A    between atoms: C_8  and  O_9
REMARK    3  A    between atoms: O_9  and  C_10
REMARK    4  A    between atoms: C_10  and  C_11
REMARK    5  A    between atoms: N_20  and  C_21
REMARK                            x       y       z     vdW  Elec       q    Type
REMARK                         _______ _______ _______ _____ _____    ______ ____
ROOT
ATOM      1  C   UNL     1       1.308   8.465  20.640  0.00  0.00    +0.000 A 
ATOM      2  N   UNL     1       0.675   8.328  21.800  0.00  0.00    +0.000 NA
ATOM      3  C   UNL     1       0.200   9.457  22.301  0.00  0.00    +0.000 A 
ATOM      4  N   UNL     1      -0.483   9.368  23.499  0.00  0.00    +0.000 N 
ATOM      5  N   UNL     1       0.326  10.655  21.751  0.00  0.00    +0.000 NA
ATOM      6  C   UNL     1       0.967  10.701  20.587  0.00  0.00    +0.000 A 
ATOM      7  N   UNL     1       1.287  11.907  20.014  0.00  0.00    +0.000 N 
ATOM      8  C   UNL     1       1.345  11.990  18.555  0.00  0.00    +0.000 C 
ATOM      9  C   UNL     1       2.353  13.084  18.138  0.00  0.00    +0.000 C 
ATOM     10  N   UNL     1       2.074  14.392  18.774  0.00  0.00    +0.000 NA
ATOM     11  C   UNL     1       3.097  15.366  18.398  0.00  0.00    +0.000 C 
ATOM     12  C   UNL     1       2.027  14.225  20.246  0.00  0.00    +0.000 C 
ATOM     13  C   UNL     1       0.993  13.160  20.698  0.00  0.00    +0.000 C 
ATOM     14  N   UNL     1       1.439   9.617  19.988  0.00  0.00    +0.000 NA
ATOM     15  H   UNL     1      -0.824   8.423  23.625  0.00  0.00    +0.000 HD
ATOM     16  H   UNL     1      -1.159  10.114  23.567  0.00  0.00    +0.000 HD
ENDROOT
BRANCH   1  17
ATOM     17  C   UNL     1       2.113   7.298  20.108  0.00  0.00    +0.000 C 
BRANCH  17  18
ATOM     18  O   UNL     1       2.107   7.244  18.691  0.00  0.00    +0.000 OA
BRANCH  18  26
ATOM     19  C   UNL     1       1.493   4.135  18.322  0.00  0.00    +0.000 C 
ATOM     20  C   UNL     1       2.676   4.936  17.850  0.00  0.00    +0.000 A 
ATOM     21  C   UNL     1       3.656   4.204  17.140  0.00  0.00    +0.000 A 
ATOM     22  C   UNL     1       4.810   4.812  16.652  0.00  0.00    +0.000 A 
ATOM     23 CL   UNL     1       5.975   3.878  15.798  0.00  0.00    +0.000 Cl
ATOM     24  C   UNL     1       5.020   6.165  16.857  0.00  0.00    +0.000 A 
ATOM     25  C   UNL     1       4.063   6.906  17.552  0.00  0.00    +0.000 A 
ATOM     26  C   UNL     1       2.887   6.315  18.054  0.00  0.00    +0.000 A 
ENDBRANCH  18  26
ENDBRANCH  17  18
ENDBRANCH   1  17
TORSDOF 3
ENDMDL
MODEL 8
REMARK VINA RESULT:      -7.3      1.367      1.729
REMARK  Name = 
REMARK  5 active torsions:
REMARK  status: ('A' for Active; 'I' for Inactive)
REMARK    1  A    between atoms: C_1  and  C_2
REMARK    2  A    between atoms: C_8  and  O_9
REMARK    3  A    between atoms: O_9  and  C_10
REMARK    4  A    between atoms: C_10  and  C_11
REMARK    5  A    between atoms: N_20  and  C_21
REMARK                            x       y       z     vdW  Elec       q    Type
REMARK                         _______ _______ _______ _____ _____    ______ ____
ROOT
ATOM      1  C   UNL     1       2.427   4.767  19.767  0.00  0.00    +0.000 A 
ATOM      2  N   UNL     1       1.570   3.758  19.661  0.00  0.00    +0.000 NA
ATOM      3  C   UNL     1       1.913   2.837  18.774  0.00  0.00    +0.000 A 
ATOM      4  N   UNL     1       1.064   1.757  18.638  0.00  0.00    +0.000 N 
ATOM      5  N   UNL     1       2.998   2.870  18.014  0.00  0.00    +0.000 NA
ATOM      6  C   UNL     1       3.805   3.911  18.189  0.00  0.00    +0.000 A 
ATOM      7  N   UNL     1       4.868   4.120  17.345  0.00  0.00    +0.000 N 
ATOM      8  C   UNL     1       6.063   4.773  17.879  0.00  0.00    +0.000 C 
ATOM      9  C   UNL     1       6.783   5.538  16.747  0.00  0.00    +0.000 C 
ATOM     10  N   UNL     1       7.077   4.683  15.574  0.00  0.00    +0.000 NA
ATOM     11  C   UNL     1       7.695   5.475  14.512  0.00  0.00    +0.000 C 
ATOM     12  C   UNL     1       5.823   4.055  15.096  0.00  0.00    +0.000 C 
ATOM     13  C   UNL     1       5.096   3.245  16.201  0.00  0.00    +0.000 C 
ATOM     14  N   UNL     1       3.566   4.859  19.083  0.00  0.00    +0.000 NA
ATOM     15  H   UNL     1       0.508   1.655  19.477  0.00  0.00    +0.000 HD
ATOM     16  H   UNL     1       1.582   0.948  18.326  0.00  0.00    +0.000 HD
ENDROOT
BRANCH   1  17
ATOM     17  C   UNL     1       2.013   5.995  20.548  0.00  0.00    +0.000 C 
BRANCH  17  18
ATOM     18  O   UNL     1       2.275   7.196  19.839  0.00  0.00    +0.000 OA
BRANCH  18  26
ATOM     19  C   UNL     1       1.565   9.624  17.895  0.00  0.00    +0.000 C 
ATOM     20  C   UNL     1       1.210   9.428  19.344  0.00  0.00    +0.000 A 
ATOM     21  C   UNL     1       0.453  10.470  19.927  0.00  0.00    +0.000 A 
ATOM     22  C   UNL     1       0.061  10.429  21.263  0.00  0.00    +0.000 A 
ATOM     23 CL   UNL     1      -0.856  11.723  21.927  0.00  0.00    +0.000 Cl
ATOM     24  C   UNL     1       0.413   9.348  22.055  0.00  0.00    +0.000 A 
ATOM     25  C   UNL     1       1.157   8.308  21.498  0.00  0.00    +0.000 A 
ATOM     26  C   UNL     1       1.563   8.325  20.150  0.00  0.00    +0.000 A 
ENDBRANCH  18  26
ENDBRANCH  17  18
ENDBRANCH   1  17
TORSDOF 3
ENDMDL
MODEL 9
REMARK VINA RESULT:      -7.3      3.719      5.456
REMARK  Name = 
REMARK  5 active torsions:
REMARK  status: ('A' for Active; 'I' for Inactive)
REMARK    1  A    between atoms: C_1  and  C_2
REMARK    2  A    between atoms: C_8  and  O_9
REMARK    3  A    between atoms: O_9  and  C_10
REMARK    4  A    between atoms: C_10  and  C_11
REMARK    5  A    between atoms: N_20  and  C_21
REMARK                            x       y       z     vdW  Elec       q    Type
REMARK                         _______ _______ _______ _____ _____    ______ ____
ROOT
ATOM      1  C   UNL     1       0.166  10.269  20.186  0.00  0.00    +0.000 A 
ATOM      2  N   UNL     1      -0.147  10.369  21.473  0.00  0.00    +0.000 NA
ATOM      3  C   UNL     1       0.293   9.372  22.224  0.00  0.00    +0.000 A 
ATOM      4  N   UNL     1       0.009   9.436  23.574  0.00  0.00    +0.000 N 
ATOM      5  N   UNL     1       0.977   8.326  21.786  0.00  0.00    +0.000 NA
ATOM      6  C   UNL     1       1.255   8.308  20.486  0.00  0.00    +0.000 A 
ATOM      7  N   UNL     1       1.819   7.198  19.908  0.00  0.00    +0.000 N 
ATOM      8  C   UNL     1       2.700   7.386  18.756  0.00  0.00    +0.000 C 
ATOM      9  C   UNL     1       2.645   6.135  17.852  0.00  0.00    +0.000 C 
ATOM     10  N   UNL     1       2.930   4.882  18.590  0.00  0.00    +0.000 NA
ATOM     11  C   UNL     1       2.796   3.729  17.702  0.00  0.00    +0.000 C 
ATOM     12  C   UNL     1       2.003   4.766  19.741  0.00  0.00    +0.000 C 
ATOM     13  C   UNL     1       2.066   5.992  20.690  0.00  0.00    +0.000 C 
ATOM     14  N   UNL     1       0.893   9.283  19.665  0.00  0.00    +0.000 NA
ATOM     15  H   UNL     1      -0.173  10.397  23.836  0.00  0.00    +0.000 HD
ATOM     16  H   UNL     1       0.715   8.941  24.099  0.00  0.00    +0.000 HD
ENDROOT
BRANCH   1  17
ATOM     17  C   UNL     1      -0.501  11.204  19.200  0.00  0.00    +0.000 C 
BRANCH  17  18
ATOM     18  O   UNL     1      -1.914  11.087  19.221  0.00  0.00    +0.000 OA
BRANCH  18  26
ATOM     19  C   UNL     1      -4.824  12.179  18.498  0.00  0.00    +0.000 C 
ATOM     20  C   UNL     1      -3.867  11.383  17.653  0.00  0.00    +0.000 A 
ATOM     21  C   UNL     1      -4.324  11.076  16.351  0.00  0.00    +0.000 A 
ATOM     22  C   UNL     1      -3.549  10.337  15.460  0.00  0.00    +0.000 A 
ATOM     23 CL   UNL     1      -4.151   9.985  13.888  0.00  0.00    +0.000 Cl
ATOM     24  C   UNL     1      -2.298   9.883  15.843  0.00  0.00    +0.000 A 
ATOM     25  C   UNL     1      -1.826  10.179  17.122  0.00  0.00    +0.000 A 
ATOM     26  C   UNL     1      -2.590  10.926  18.040  0.00  0.00    +0.000 A 
ENDBRANCH  18  26
ENDBRANCH  17  18
ENDBRANCH   1  17
TORSDOF 3
ENDMDL
