MODEL 1
REMARK VINA RESULT:      -7.0      0.000      0.000
REMARK  Name = 
REMARK  6 active torsions:
REMARK  status: ('A' for Active; 'I' for Inactive)
REMARK    1  A    between atoms: C_1  and  C_2
REMARK    2  A    between atoms: C_6  and  C_7
REMARK    3  A    between atoms: C_8  and  N_9
REMARK    4  A    between atoms: N_12  and  C_13
REMARK    5  A    between atoms: N_12  and  N_14
REMARK    6  A    between atoms: C_15  and  C_16
REMARK                            x       y       z     vdW  Elec       q    Type
REMARK                         _______ _______ _______ _____ _____    ______ ____
ROOT
ATOM      1  N   UNL     1       4.099   4.694  18.806  0.00  0.00    +0.000 N 
ATOM      2  C   UNL     1       3.740   3.823  19.828  0.00  0.00    +0.000 C 
ATOM      3  O   UNL     1       4.332   2.791  20.130  0.00  0.00    +0.000 OA
ATOM      4  N   UNL     1       2.542   4.254  20.464  0.00  0.00    +0.000 N 
ATOM      5  C   UNL     1       1.977   3.445  21.531  0.00  0.00    +0.000 C 
ATOM      6  H   UNL     1       3.262   5.171  18.499  0.00  0.00    +0.000 HD
ENDROOT
BRANCH   1  14
ATOM      7  C   UNL     1       6.898   5.549  19.400  0.00  0.00    +0.000 C 
ATOM      8  C   UNL     1       6.464   4.884  18.122  0.00  0.00    +0.000 A 
ATOM      9  C   UNL     1       7.426   4.742  17.104  0.00  0.00    +0.000 A 
ATOM     10  C   UNL     1       7.089   4.217  15.860  0.00  0.00    +0.000 A 
ATOM     11  C   UNL     1       5.781   3.820  15.613  0.00  0.00    +0.000 A 
ATOM     12  C   UNL     1       4.792   3.950  16.603  0.00  0.00    +0.000 A 
ATOM     13  C   UNL     1       3.406   3.455  16.288  0.00  0.00    +0.000 C 
ATOM     14  C   UNL     1       5.135   4.476  17.872  0.00  0.00    +0.000 A 
ENDBRANCH   1  14
BRANCH   4  15
ATOM     15  N   UNL     1       2.005   5.475  20.072  0.00  0.00    +0.000 NA
ATOM     16  C   UNL     1       2.034   6.490  20.873  0.00  0.00    +0.000 C 
BRANCH  16  17
ATOM     17  C   UNL     1       1.531   7.812  20.434  0.00  0.00    +0.000 A 
ATOM     18  C   UNL     1       0.723   8.572  21.282  0.00  0.00    +0.000 A 
ATOM     19  C   UNL     1       0.223   9.803  20.855  0.00  0.00    +0.000 A 
ATOM     20  C   UNL     1       0.534  10.267  19.579  0.00  0.00    +0.000 A 
ATOM     21 BR   UNL     1      -0.153  11.930  18.999  0.00  0.00    +0.000 Br
ATOM     22  C   UNL     1       1.339   9.512  18.725  0.00  0.00    +0.000 A 
ATOM     23  C   UNL     1       1.842   8.278  19.150  0.00  0.00    +0.000 A 
ENDBRANCH  16  17
ENDBRANCH   4  15
TORSDOF 3
ENDMDL
MODEL 2
REMARK VINA RESULT:      -6.9      0.066      1.035
REMARK  Name = 
REMARK  6 active torsions:
REMARK  status: ('A' for Active; 'I' for Inactive)
REMARK    1  A    between atoms: C_1  and  C_2
REMARK    2  A    between atoms: C_6  and  C_7
REMARK    3  A    between atoms: C_8  and  N_9
REMARK    4  A    between atoms: N_12  and  C_13
REMARK    5  A    between atoms: N_12  and  N_14
REMARK    6  A    between atoms: C_15  and  C_16
REMARK                            x       y       z     vdW  Elec       q    Type
REMARK                         _______ _______ _______ _____ _____    ______ ____
ROOT
ATOM      1  N   UNL     1       4.094   4.693  18.811  0.00  0.00    +0.000 N 
ATOM      2  C   UNL     1       3.742   3.825  19.837  0.00  0.00    +0.000 C 
ATOM      3  O   UNL     1       4.338   2.795  20.139  0.00  0.00    +0.000 OA
ATOM      4  N   UNL     1       2.546   4.256  20.479  0.00  0.00    +0.000 N 
ATOM      5  C   UNL     1       1.989   3.448  21.550  0.00  0.00    +0.000 C 
ATOM      6  H   UNL     1       3.255   5.169  18.507  0.00  0.00    +0.000 HD
ENDROOT
BRANCH   1  14
ATOM      7  C   UNL     1       6.896   5.548  19.392  0.00  0.00    +0.000 C 
ATOM      8  C   UNL     1       6.456   4.883  18.116  0.00  0.00    +0.000 A 
ATOM      9  C   UNL     1       7.413   4.741  17.093  0.00  0.00    +0.000 A 
ATOM     10  C   UNL     1       7.070   4.215  15.852  0.00  0.00    +0.000 A 
ATOM     11  C   UNL     1       5.761   3.818  15.611  0.00  0.00    +0.000 A 
ATOM     12  C   UNL     1       4.776   3.949  16.605  0.00  0.00    +0.000 A 
ATOM     13  C   UNL     1       3.389   3.455  16.297  0.00  0.00    +0.000 C 
ATOM     14  C   UNL     1       5.125   4.476  17.873  0.00  0.00    +0.000 A 
ENDBRANCH   1  14
BRANCH   4  15
ATOM     15  N   UNL     1       2.006   5.475  20.086  0.00  0.00    +0.000 NA
ATOM     16  C   UNL     1       2.022   6.488  20.891  0.00  0.00    +0.000 C 
BRANCH  16  17
ATOM     17  C   UNL     1       1.514   7.808  20.452  0.00  0.00    +0.000 A 
ATOM     18  C   UNL     1       1.805   8.279  19.170  0.00  0.00    +0.000 A 
ATOM     19  C   UNL     1       1.352   9.536  18.767  0.00  0.00    +0.000 A 
ATOM     20  C   UNL     1       0.612  10.318  19.652  0.00  0.00    +0.000 A 
ATOM     21 BR   UNL     1       0.010  12.025  19.109  0.00  0.00    +0.000 Br
ATOM     22  C   UNL     1       0.321   9.854  20.936  0.00  0.00    +0.000 A 
ATOM     23  C   UNL     1       0.772   8.594  21.342  0.00  0.00    +0.000 A 
ENDBRANCH  16  17
ENDBRANCH   4  15
TORSDOF 3
ENDMDL
MODEL 3
REMARK VINA RESULT:      -6.6      5.031      9.165
REMARK  Name = 
REMARK  6 active torsions:
REMARK  status: ('A' for Active; 'I' for Inactive)
REMARK    1  A    between atoms: C_1  and  C_2
REMARK    2  A    between atoms: C_6  and  C_7
REMARK    3  A    between atoms: C_8  and  N_9
REMARK    4  A    between atoms: N_12  and  C_13
REMARK    5  A    between atoms: N_12  and  N_14
REMARK    6  A    between atoms: C_15  and  C_16
REMARK                            x       y       z     vdW  Elec       q    Type
REMARK                         _______ _______ _______ _____ _____    ______ ____
ROOT
ATOM      1  N   UNL     1      -1.203  11.442  18.744  0.00  0.00    +0.000 N 
ATOM      2  C   UNL     1      -0.219  12.397  18.526  0.00  0.00    +0.000 C 
ATOM      3  O   UNL     1      -0.415  13.572  18.231  0.00  0.00    +0.000 OA
ATOM      4  N   UNL     1       1.080  11.822  18.634  0.00  0.00    +0.000 N 
ATOM      5  C   UNL     1       2.245  12.655  18.390  0.00  0.00    +0.000 C 
ATOM      6  H   UNL     1      -0.807  10.535  18.535  0.00  0.00    +0.000 HD
ENDROOT
BRANCH   1  14
ATOM      7  C   UNL     1      -2.863  12.803  20.821  0.00  0.00    +0.000 C 
ATOM      8  C   UNL     1      -3.398  12.263  19.522  0.00  0.00    +0.000 A 
ATOM      9  C   UNL     1      -4.790  12.320  19.319  0.00  0.00    +0.000 A 
ATOM     10  C   UNL     1      -5.377  11.767  18.186  0.00  0.00    +0.000 A 
ATOM     11  C   UNL     1      -4.581  11.146  17.232  0.00  0.00    +0.000 A 
ATOM     12  C   UNL     1      -3.189  11.064  17.402  0.00  0.00    +0.000 A 
ATOM     13  C   UNL     1      -2.379  10.422  16.309  0.00  0.00    +0.000 C 
ATOM     14  C   UNL     1      -2.588  11.634  18.551  0.00  0.00    +0.000 A 
ENDBRANCH   1  14
BRANCH   4  15
ATOM     15  N   UNL     1       1.166  10.495  19.038  0.00  0.00    +0.000 NA
ATOM     16  C   UNL     1       1.856   9.644  18.350  0.00  0.00    +0.000 C 
BRANCH  16  17
ATOM     17  C   UNL     1       2.012   8.247  18.815  0.00  0.00    +0.000 A 
ATOM     18  C   UNL     1       1.650   7.898  20.118  0.00  0.00    +0.000 A 
ATOM     19  C   UNL     1       1.826   6.588  20.565  0.00  0.00    +0.000 A 
ATOM     20  C   UNL     1       2.367   5.633  19.707  0.00  0.00    +0.000 A 
ATOM     21 BR   UNL     1       2.615   3.862  20.319  0.00  0.00    +0.000 Br
ATOM     22  C   UNL     1       2.733   5.976  18.404  0.00  0.00    +0.000 A 
ATOM     23  C   UNL     1       2.558   7.288  17.952  0.00  0.00    +0.000 A 
ENDBRANCH  16  17
ENDBRANCH   4  15
TORSDOF 3
ENDMDL
MODEL 4
REMARK VINA RESULT:      -6.6      5.034      9.333
REMARK  Name = 
REMARK  6 active torsions:
REMARK  status: ('A' for Active; 'I' for Inactive)
REMARK    1  A    between atoms: C_1  and  C_2
REMARK    2  A    between atoms: C_6  and  C_7
REMARK    3  A    between atoms: C_8  and  N_9
REMARK    4  A    between atoms: N_12  and  C_13
REMARK    5  A    between atoms: N_12  and  N_14
REMARK    6  A    between atoms: C_15  and  C_16
REMARK                            x       y       z     vdW  Elec       q    Type
REMARK                         _______ _______ _______ _____ _____    ______ ____
ROOT
ATOM      1  N   UNL     1      -1.303  11.263  18.662  0.00  0.00    +0.000 N 
ATOM      2  C   UNL     1      -0.330  12.234  18.461  0.00  0.00    +0.000 C 
ATOM      3  O   UNL     1      -0.538  13.402  18.146  0.00  0.00    +0.000 OA
ATOM      4  N   UNL     1       0.975  11.684  18.614  0.00  0.00    +0.000 N 
ATOM      5  C   UNL     1       2.131  12.536  18.394  0.00  0.00    +0.000 C 
ATOM      6  H   UNL     1      -0.884  10.362  18.475  0.00  0.00    +0.000 HD
ENDROOT
BRANCH   1  14
ATOM      7  C   UNL     1      -2.519  10.438  16.063  0.00  0.00    +0.000 C 
ATOM      8  C   UNL     1      -3.282  11.059  17.201  0.00  0.00    +0.000 A 
ATOM      9  C   UNL     1      -4.642  11.356  16.987  0.00  0.00    +0.000 A 
ATOM     10  C   UNL     1      -5.400  12.009  17.954  0.00  0.00    +0.000 A 
ATOM     11  C   UNL     1      -4.811  12.375  19.157  0.00  0.00    +0.000 A 
ATOM     12  C   UNL     1      -3.455  12.100  19.406  0.00  0.00    +0.000 A 
ATOM     13  C   UNL     1      -2.891  12.479  20.749  0.00  0.00    +0.000 C 
ATOM     14  C   UNL     1      -2.684  11.428  18.426  0.00  0.00    +0.000 A 
ENDBRANCH   1  14
BRANCH   4  15
ATOM     15  N   UNL     1       1.074  10.364  19.036  0.00  0.00    +0.000 NA
ATOM     16  C   UNL     1       1.844   9.532  18.412  0.00  0.00    +0.000 C 
BRANCH  16  17
ATOM     17  C   UNL     1       2.009   8.144  18.902  0.00  0.00    +0.000 A 
ATOM     18  C   UNL     1       2.449   7.143  18.034  0.00  0.00    +0.000 A 
ATOM     19  C   UNL     1       2.575   5.830  18.488  0.00  0.00    +0.000 A 
ATOM     20  C   UNL     1       2.257   5.524  19.809  0.00  0.00    +0.000 A 
ATOM     21 BR   UNL     1       2.417   3.742  20.419  0.00  0.00    +0.000 Br
ATOM     22  C   UNL     1       1.813   6.519  20.681  0.00  0.00    +0.000 A 
ATOM     23  C   UNL     1       1.686   7.837  20.230  0.00  0.00    +0.000 A 
ENDBRANCH  16  17
ENDBRANCH   4  15
TORSDOF 3
ENDMDL
MODEL 5
REMARK VINA RESULT:      -6.6      5.042      9.252
REMARK  Name = 
REMARK  6 active torsions:
REMARK  status: ('A' for Active; 'I' for Inactive)
REMARK    1  A    between atoms: C_1  and  C_2
REMARK    2  A    between atoms: C_6  and  C_7
REMARK    3  A    between atoms: C_8  and  N_9
REMARK    4  A    between atoms: N_12  and  C_13
REMARK    5  A    between atoms: N_12  and  N_14
REMARK    6  A    between atoms: C_15  and  C_16
REMARK                            x       y       z     vdW  Elec       q    Type
REMARK                         _______ _______ _______ _____ _____    ______ ____
ROOT
ATOM      1  N   UNL     1      -1.129  11.596  18.819  0.00  0.00    +0.000 N 
ATOM      2  C   UNL     1      -0.197  12.579  18.513  0.00  0.00    +0.000 C 
ATOM      3  O   UNL     1      -0.456  13.728  18.168  0.00  0.00    +0.000 OA
ATOM      4  N   UNL     1       1.129  12.066  18.596  0.00  0.00    +0.000 N 
ATOM      5  C   UNL     1       2.246  12.934  18.263  0.00  0.00    +0.000 C 
ATOM      6  H   UNL     1      -0.701  10.697  18.638  0.00  0.00    +0.000 HD
ENDROOT
BRANCH   1  14
ATOM      7  C   UNL     1      -2.762  13.015  20.877  0.00  0.00    +0.000 C 
ATOM      8  C   UNL     1      -3.324  12.374  19.638  0.00  0.00    +0.000 A 
ATOM      9  C   UNL     1      -4.725  12.362  19.490  0.00  0.00    +0.000 A 
ATOM     10  C   UNL     1      -5.332  11.716  18.418  0.00  0.00    +0.000 A 
ATOM     11  C   UNL     1      -4.548  11.070  17.471  0.00  0.00    +0.000 A 
ATOM     12  C   UNL     1      -3.148  11.055  17.587  0.00  0.00    +0.000 A 
ATOM     13  C   UNL     1      -2.355  10.380  16.501  0.00  0.00    +0.000 C 
ATOM     14  C   UNL     1      -2.527  11.720  18.672  0.00  0.00    +0.000 A 
ENDBRANCH   1  14
BRANCH   4  15
ATOM     15  N   UNL     1       1.290  10.766  19.062  0.00  0.00    +0.000 NA
ATOM     16  C   UNL     1       1.708   9.834  18.269  0.00  0.00    +0.000 C 
BRANCH  16  17
ATOM     17  C   UNL     1       1.951   8.464  18.778  0.00  0.00    +0.000 A 
ATOM     18  C   UNL     1       2.502   7.493  17.939  0.00  0.00    +0.000 A 
ATOM     19  C   UNL     1       2.701   6.195  18.410  0.00  0.00    +0.000 A 
ATOM     20  C   UNL     1       2.347   5.874  19.719  0.00  0.00    +0.000 A 
ATOM     21 BR   UNL     1       2.608   4.111  20.350  0.00  0.00    +0.000 Br
ATOM     22  C   UNL     1       1.794   6.839  20.561  0.00  0.00    +0.000 A 
ATOM     23  C   UNL     1       1.592   8.142  20.093  0.00  0.00    +0.000 A 
ENDBRANCH  16  17
ENDBRANCH   4  15
TORSDOF 3
ENDMDL
MODEL 6
REMARK VINA RESULT:      -6.6      5.068      9.357
REMARK  Name = 
REMARK  6 active torsions:
REMARK  status: ('A' for Active; 'I' for Inactive)
REMARK    1  A    between atoms: C_1  and  C_2
REMARK    2  A    between atoms: C_6  and  C_7
REMARK    3  A    between atoms: C_8  and  N_9
REMARK    4  A    between atoms: N_12  and  C_13
REMARK    5  A    between atoms: N_12  and  N_14
REMARK    6  A    between atoms: C_15  and  C_16
REMARK                            x       y       z     vdW  Elec       q    Type
REMARK                         _______ _______ _______ _____ _____    ______ ____
ROOT
ATOM      1  N   UNL     1      -1.262  11.433  18.740  0.00  0.00    +0.000 N 
ATOM      2  C   UNL     1      -0.301  12.413  18.525  0.00  0.00    +0.000 C 
ATOM      3  O   UNL     1      -0.527  13.585  18.237  0.00  0.00    +0.000 OA
ATOM      4  N   UNL     1       1.011  11.870  18.627  0.00  0.00    +0.000 N 
ATOM      5  C   UNL     1       2.154  12.734  18.386  0.00  0.00    +0.000 C 
ATOM      6  H   UNL     1      -0.843  10.537  18.524  0.00  0.00    +0.000 HD
ENDROOT
BRANCH   1  14
ATOM      7  C   UNL     1      -2.544  10.703  16.143  0.00  0.00    +0.000 C 
ATOM      8  C   UNL     1      -3.280  11.268  17.327  0.00  0.00    +0.000 A 
ATOM      9  C   UNL     1      -4.648  11.558  17.164  0.00  0.00    +0.000 A 
ATOM     10  C   UNL     1      -5.384  12.162  18.178  0.00  0.00    +0.000 A 
ATOM     11  C   UNL     1      -4.765  12.484  19.379  0.00  0.00    +0.000 A 
ATOM     12  C   UNL     1      -3.400  12.214  19.578  0.00  0.00    +0.000 A 
ATOM     13  C   UNL     1      -2.802  12.543  20.919  0.00  0.00    +0.000 C 
ATOM     14  C   UNL     1      -2.651  11.592  18.549  0.00  0.00    +0.000 A 
ENDBRANCH   1  14
BRANCH   4  15
ATOM     15  N   UNL     1       1.131  10.543  19.024  0.00  0.00    +0.000 NA
ATOM     16  C   UNL     1       1.822   9.709  18.317  0.00  0.00    +0.000 C 
BRANCH  16  17
ATOM     17  C   UNL     1       2.014   8.313  18.773  0.00  0.00    +0.000 A 
ATOM     18  C   UNL     1       1.716   7.959  20.090  0.00  0.00    +0.000 A 
ATOM     19  C   UNL     1       1.927   6.651  20.527  0.00  0.00    +0.000 A 
ATOM     20  C   UNL     1       2.438   5.702  19.643  0.00  0.00    +0.000 A 
ATOM     21 BR   UNL     1       2.733   3.933  20.241  0.00  0.00    +0.000 Br
ATOM     22  C   UNL     1       2.741   6.050  18.326  0.00  0.00    +0.000 A 
ATOM     23  C   UNL     1       2.530   7.361  17.884  0.00  0.00    +0.000 A 
ENDBRANCH  16  17
ENDBRANCH   4  15
TORSDOF 3
ENDMDL
MODEL 7
REMARK VINA RESULT:      -6.5      0.392      2.160
REMARK  Name = 
REMARK  6 active torsions:
REMARK  status: ('A' for Active; 'I' for Inactive)
REMARK    1  A    between atoms: C_1  and  C_2
REMARK    2  A    between atoms: C_6  and  C_7
REMARK    3  A    between atoms: C_8  and  N_9
REMARK    4  A    between atoms: N_12  and  C_13
REMARK    5  A    between atoms: N_12  and  N_14
REMARK    6  A    between atoms: C_15  and  C_16
REMARK                            x       y       z     vdW  Elec       q    Type
REMARK                         _______ _______ _______ _____ _____    ______ ____
ROOT
ATOM      1  N   UNL     1       4.105   4.590  18.781  0.00  0.00    +0.000 N 
ATOM      2  C   UNL     1       3.903   3.639  19.773  0.00  0.00    +0.000 C 
ATOM      3  O   UNL     1       4.606   2.653  19.973  0.00  0.00    +0.000 OA
ATOM      4  N   UNL     1       2.721   3.922  20.514  0.00  0.00    +0.000 N 
ATOM      5  C   UNL     1       2.312   3.010  21.569  0.00  0.00    +0.000 C 
ATOM      6  H   UNL     1       3.208   5.002  18.560  0.00  0.00    +0.000 HD
ENDROOT
BRANCH   1  14
ATOM      7  C   UNL     1       3.463   3.407  16.115  0.00  0.00    +0.000 C 
ATOM      8  C   UNL     1       4.811   3.953  16.502  0.00  0.00    +0.000 A 
ATOM      9  C   UNL     1       5.861   3.808  15.576  0.00  0.00    +0.000 A 
ATOM     10  C   UNL     1       7.158   4.206  15.887  0.00  0.00    +0.000 A 
ATOM     11  C   UNL     1       7.427   4.760  17.131  0.00  0.00    +0.000 A 
ATOM     12  C   UNL     1       6.406   4.916  18.084  0.00  0.00    +0.000 A 
ATOM     13  C   UNL     1       6.755   5.568  19.394  0.00  0.00    +0.000 C 
ATOM     14  C   UNL     1       5.084   4.520  17.767  0.00  0.00    +0.000 A 
ENDBRANCH   1  14
BRANCH   4  15
ATOM     15  N   UNL     1       2.049   5.105  20.231  0.00  0.00    +0.000 NA
ATOM     16  C   UNL     1       2.622   6.248  20.433  0.00  0.00    +0.000 C 
BRANCH  16  17
ATOM     17  C   UNL     1       1.939   7.509  20.065  0.00  0.00    +0.000 A 
ATOM     18  C   UNL     1       2.109   8.051  18.789  0.00  0.00    +0.000 A 
ATOM     19  C   UNL     1       1.490   9.256  18.453  0.00  0.00    +0.000 A 
ATOM     20  C   UNL     1       0.705   9.914  19.398  0.00  0.00    +0.000 A 
ATOM     21 BR   UNL     1      -0.123  11.552  18.943  0.00  0.00    +0.000 Br
ATOM     22  C   UNL     1       0.533   9.379  20.675  0.00  0.00    +0.000 A 
ATOM     23  C   UNL     1       1.152   8.172  21.015  0.00  0.00    +0.000 A 
ENDBRANCH  16  17
ENDBRANCH   4  15
TORSDOF 3
ENDMDL
MODEL 8
REMARK VINA RESULT:      -6.5      0.660      1.979
REMARK  Name = 
REMARK  6 active torsions:
REMARK  status: ('A' for Active; 'I' for Inactive)
REMARK    1  A    between atoms: C_1  and  C_2
REMARK    2  A    between atoms: C_6  and  C_7
REMARK    3  A    between atoms: C_8  and  N_9
REMARK    4  A    between atoms: N_12  and  C_13
REMARK    5  A    between atoms: N_12  and  N_14
REMARK    6  A    between atoms: C_15  and  C_16
REMARK                            x       y       z     vdW  Elec       q    Type
REMARK                         _______ _______ _______ _____ _____    ______ ____
ROOT
ATOM      1  N   UNL     1       4.293   5.073  18.826  0.00  0.00    +0.000 N 
ATOM      2  C   UNL     1       3.789   4.138  19.722  0.00  0.00    +0.000 C 
ATOM      3  O   UNL     1       4.136   2.964  19.800  0.00  0.00    +0.000 OA
ATOM      4  N   UNL     1       2.758   4.707  20.522  0.00  0.00    +0.000 N 
ATOM      5  C   UNL     1       2.071   3.868  21.490  0.00  0.00    +0.000 C 
ATOM      6  H   UNL     1       3.578   5.773  18.674  0.00  0.00    +0.000 HD
ENDROOT
BRANCH   1  14
ATOM      7  C   UNL     1       3.368   3.796  16.289  0.00  0.00    +0.000 C 
ATOM      8  C   UNL     1       4.793   4.183  16.578  0.00  0.00    +0.000 A 
ATOM      9  C   UNL     1       5.768   3.832  15.624  0.00  0.00    +0.000 A 
ATOM     10  C   UNL     1       7.119   4.075  15.850  0.00  0.00    +0.000 A 
ATOM     11  C   UNL     1       7.521   4.677  17.035  0.00  0.00    +0.000 A 
ATOM     12  C   UNL     1       6.578   5.037  18.013  0.00  0.00    +0.000 A 
ATOM     13  C   UNL     1       7.075   5.730  19.252  0.00  0.00    +0.000 C 
ATOM     14  C   UNL     1       5.202   4.799  17.782  0.00  0.00    +0.000 A 
ENDBRANCH   1  14
BRANCH   4  15
ATOM     15  N   UNL     1       2.506   6.066  20.381  0.00  0.00    +0.000 NA
ATOM     16  C   UNL     1       1.436   6.590  20.886  0.00  0.00    +0.000 C 
BRANCH  16  17
ATOM     17  C   UNL     1       1.199   8.049  20.801  0.00  0.00    +0.000 A 
ATOM     18  C   UNL     1       0.783   8.758  21.930  0.00  0.00    +0.000 A 
ATOM     19  C   UNL     1       0.530  10.127  21.842  0.00  0.00    +0.000 A 
ATOM     20  C   UNL     1       0.692  10.781  20.623  0.00  0.00    +0.000 A 
ATOM     21 BR   UNL     1       0.337  12.634  20.504  0.00  0.00    +0.000 Br
ATOM     22  C   UNL     1       1.104  10.078  19.490  0.00  0.00    +0.000 A 
ATOM     23  C   UNL     1       1.359   8.706  19.574  0.00  0.00    +0.000 A 
ENDBRANCH  16  17
ENDBRANCH   4  15
TORSDOF 3
ENDMDL
MODEL 9
REMARK VINA RESULT:      -6.3      1.024      2.029
REMARK  Name = 
REMARK  6 active torsions:
REMARK  status: ('A' for Active; 'I' for Inactive)
REMARK    1  A    between atoms: C_1  and  C_2
REMARK    2  A    between atoms: C_6  and  C_7
REMARK    3  A    between atoms: C_8  and  N_9
REMARK    4  A    between atoms: N_12  and  C_13
REMARK    5  A    between atoms: N_12  and  N_14
REMARK    6  A    between atoms: C_15  and  C_16
REMARK                            x       y       z     vdW  Elec       q    Type
REMARK                         _______ _______ _______ _____ _____    ______ ____
ROOT
ATOM      1  N   UNL     1       4.072   5.461  18.171  0.00  0.00    +0.000 N 
ATOM      2  C   UNL     1       3.893   4.708  19.325  0.00  0.00    +0.000 C 
ATOM      3  O   UNL     1       4.541   3.714  19.638  0.00  0.00    +0.000 OA
ATOM      4  N   UNL     1       2.805   5.209  20.094  0.00  0.00    +0.000 N 
ATOM      5  C   UNL     1       2.429   4.522  21.318  0.00  0.00    +0.000 C 
ATOM      6  H   UNL     1       3.190   5.904  17.951  0.00  0.00    +0.000 HD
ENDROOT
BRANCH   1  14
ATOM      7  C   UNL     1       3.552   3.102  16.414  0.00  0.00    +0.000 C 
ATOM      8  C   UNL     1       4.734   4.023  16.276  0.00  0.00    +0.000 A 
ATOM      9  C   UNL     1       5.707   3.692  15.313  0.00  0.00    +0.000 A 
ATOM     10  C   UNL     1       6.873   4.439  15.178  0.00  0.00    +0.000 A 
ATOM     11  C   UNL     1       7.086   5.536  16.003  0.00  0.00    +0.000 A 
ATOM     12  C   UNL     1       6.140   5.895  16.979  0.00  0.00    +0.000 A 
ATOM     13  C   UNL     1       6.409   7.122  17.807  0.00  0.00    +0.000 C 
ATOM     14  C   UNL     1       4.949   5.140  17.113  0.00  0.00    +0.000 A 
ENDBRANCH   1  14
BRANCH   4  15
ATOM     15  N   UNL     1       2.195   6.381  19.663  0.00  0.00    +0.000 NA
ATOM     16  C   UNL     1       1.834   7.284  20.516  0.00  0.00    +0.000 C 
BRANCH  16  17
ATOM     17  C   UNL     1       1.251   8.565  20.057  0.00  0.00    +0.000 A 
ATOM     18  C   UNL     1       0.358   9.262  20.874  0.00  0.00    +0.000 A 
ATOM     19  C   UNL     1      -0.214  10.453  20.428  0.00  0.00    +0.000 A 
ATOM     20  C   UNL     1       0.107  10.942  19.163  0.00  0.00    +0.000 A 
ATOM     21 BR   UNL     1      -0.679  12.550  18.557  0.00  0.00    +0.000 Br
ATOM     22  C   UNL     1       0.996  10.249  18.340  0.00  0.00    +0.000 A 
ATOM     23  C   UNL     1       1.573   9.054  18.784  0.00  0.00    +0.000 A 
ENDBRANCH  16  17
ENDBRANCH   4  15
TORSDOF 3
ENDMDL
