MODEL 1
REMARK VINA RESULT:      -6.6      0.000      0.000
REMARK  Name = 
REMARK  6 active torsions:
REMARK  status: ('A' for Active; 'I' for Inactive)
REMARK    1  A    between atoms: C_2  and  O_3
REMARK    2  A    between atoms: C_2  and  C_4
REMARK    3  A    between atoms: C_4  and  N_5
REMARK    4  A    between atoms: C_6  and  C_8
REMARK    5  A    between atoms: C_8  and  C_9
REMARK    6  A    between atoms: C_9  and  C_11
REMARK                            x       y       z     vdW  Elec       q    Type
REMARK                         _______ _______ _______ _____ _____    ______ ____
ROOT
ATOM      1  N   UNL     1       6.005   3.883  14.317  0.00  0.00    +0.000 N 
ATOM      2  C   UNL     1       6.676   4.693  15.203  0.00  0.00    +0.000 C 
ATOM      3  O   UNL     1       7.668   5.342  14.873  0.00  0.00    +0.000 OA
ATOM      4  H   UNL     1       5.225   3.340  14.680  0.00  0.00    +0.000 HD
ENDROOT
BRANCH   1   5
ATOM      5  C   UNL     1       6.461   3.751  12.941  0.00  0.00    +0.000 C 
BRANCH   5   7
ATOM      6  O   UNL     1       4.411   3.383  11.695  0.00  0.00    +0.000 OA
ATOM      7  C   UNL     1       5.528   2.992  12.005  0.00  0.00    +0.000 C 
BRANCH   7   8
ATOM      8  O   UNL     1       5.989   1.773  11.623  0.00  0.00    +0.000 OA
ATOM      9  H   UNL     1       6.418   1.279  12.350  0.00  0.00    +0.000 HD
ENDBRANCH   7   8
ENDBRANCH   5   7
ENDBRANCH   1   5
BRANCH   2  10
ATOM     10  C   UNL     1       6.207   4.661  16.641  0.00  0.00    +0.000 C 
BRANCH  10  11
ATOM     11  C   UNL     1       4.849   5.261  16.919  0.00  0.00    +0.000 C 
ATOM     12  O   UNL     1       4.599   6.455  16.743  0.00  0.00    +0.000 OA
BRANCH  11  13
ATOM     13  C   UNL     1       3.766   4.365  17.412  0.00  0.00    +0.000 A 
ATOM     14  C   UNL     1       2.559   4.944  17.822  0.00  0.00    +0.000 A 
ATOM     15  C   UNL     1       1.513   4.140  18.274  0.00  0.00    +0.000 A 
ATOM     16  C   UNL     1       1.663   2.754  18.305  0.00  0.00    +0.000 A 
ATOM     17  C   UNL     1       2.858   2.171  17.887  0.00  0.00    +0.000 A 
ATOM     18  C   UNL     1       3.915   2.973  17.444  0.00  0.00    +0.000 A 
ENDBRANCH  11  13
ENDBRANCH  10  11
ENDBRANCH   2  10
TORSDOF 6
ENDMDL
MODEL 2
REMARK VINA RESULT:      -6.6      2.759      4.621
REMARK  Name = 
REMARK  6 active torsions:
REMARK  status: ('A' for Active; 'I' for Inactive)
REMARK    1  A    between atoms: C_2  and  O_3
REMARK    2  A    between atoms: C_2  and  C_4
REMARK    3  A    between atoms: C_4  and  N_5
REMARK    4  A    between atoms: C_6  and  C_8
REMARK    5  A    between atoms: C_8  and  C_9
REMARK    6  A    between atoms: C_9  and  C_11
REMARK                            x       y       z     vdW  Elec       q    Type
REMARK                         _______ _______ _______ _____ _____    ______ ____
ROOT
ATOM      1  N   UNL     1       6.042   4.901  17.880  0.00  0.00    +0.000 N 
ATOM      2  C   UNL     1       5.486   4.238  16.811  0.00  0.00    +0.000 C 
ATOM      3  O   UNL     1       6.174   3.713  15.938  0.00  0.00    +0.000 OA
ATOM      4  H   UNL     1       5.406   5.352  18.533  0.00  0.00    +0.000 HD
ENDROOT
BRANCH   1   5
ATOM      5  C   UNL     1       7.488   5.017  18.009  0.00  0.00    +0.000 C 
BRANCH   5   7
ATOM      6  O   UNL     1       8.371   7.137  18.795  0.00  0.00    +0.000 OA
ATOM      7  C   UNL     1       7.980   6.008  19.057  0.00  0.00    +0.000 C 
BRANCH   7   8
ATOM      8  O   UNL     1       8.061   5.499  20.314  0.00  0.00    +0.000 OA
ATOM      9  H   UNL     1       8.714   5.961  20.875  0.00  0.00    +0.000 HD
ENDBRANCH   7   8
ENDBRANCH   5   7
ENDBRANCH   1   5
BRANCH   2  10
ATOM     10  C   UNL     1       3.978   4.285  16.695  0.00  0.00    +0.000 C 
BRANCH  10  11
ATOM     11  C   UNL     1       3.247   5.090  17.743  0.00  0.00    +0.000 C 
ATOM     12  O   UNL     1       3.239   6.322  17.752  0.00  0.00    +0.000 OA
BRANCH  11  13
ATOM     13  C   UNL     1       2.490   4.358  18.798  0.00  0.00    +0.000 A 
ATOM     14  C   UNL     1       2.798   4.620  20.138  0.00  0.00    +0.000 A 
ATOM     15  C   UNL     1       2.102   3.970  21.158  0.00  0.00    +0.000 A 
ATOM     16  C   UNL     1       1.089   3.065  20.842  0.00  0.00    +0.000 A 
ATOM     17  C   UNL     1       0.771   2.809  19.509  0.00  0.00    +0.000 A 
ATOM     18  C   UNL     1       1.473   3.449  18.483  0.00  0.00    +0.000 A 
ENDBRANCH  11  13
ENDBRANCH  10  11
ENDBRANCH   2  10
TORSDOF 6
ENDMDL
MODEL 3
REMARK VINA RESULT:      -6.5      0.590      1.310
REMARK  Name = 
REMARK  6 active torsions:
REMARK  status: ('A' for Active; 'I' for Inactive)
REMARK    1  A    between atoms: C_2  and  O_3
REMARK    2  A    between atoms: C_2  and  C_4
REMARK    3  A    between atoms: C_4  and  N_5
REMARK    4  A    between atoms: C_6  and  C_8
REMARK    5  A    between atoms: C_8  and  C_9
REMARK    6  A    between atoms: C_9  and  C_11
REMARK                            x       y       z     vdW  Elec       q    Type
REMARK                         _______ _______ _______ _____ _____    ______ ____
ROOT
ATOM      1  N   UNL     1       6.098   3.852  14.095  0.00  0.00    +0.000 N 
ATOM      2  C   UNL     1       6.780   4.738  14.895  0.00  0.00    +0.000 C 
ATOM      3  O   UNL     1       7.735   5.393  14.480  0.00  0.00    +0.000 OA
ATOM      4  H   UNL     1       5.353   3.311  14.526  0.00  0.00    +0.000 HD
ENDROOT
BRANCH   1   5
ATOM      5  C   UNL     1       6.499   3.644  12.710  0.00  0.00    +0.000 C 
BRANCH   5   7
ATOM      6  O   UNL     1       4.396   3.253  11.564  0.00  0.00    +0.000 OA
ATOM      7  C   UNL     1       5.517   2.858  11.849  0.00  0.00    +0.000 C 
BRANCH   7   8
ATOM      8  O   UNL     1       5.944   1.614  11.509  0.00  0.00    +0.000 OA
ATOM      9  H   UNL     1       5.223   1.033  11.192  0.00  0.00    +0.000 HD
ENDBRANCH   7   8
ENDBRANCH   5   7
ENDBRANCH   1   5
BRANCH   2  10
ATOM     10  C   UNL     1       6.375   4.786  16.352  0.00  0.00    +0.000 C 
BRANCH  10  11
ATOM     11  C   UNL     1       5.177   5.642  16.689  0.00  0.00    +0.000 C 
ATOM     12  O   UNL     1       5.159   6.862  16.518  0.00  0.00    +0.000 OA
BRANCH  11  13
ATOM     13  C   UNL     1       3.962   4.975  17.235  0.00  0.00    +0.000 A 
ATOM     14  C   UNL     1       3.749   3.626  16.927  0.00  0.00    +0.000 A 
ATOM     15  C   UNL     1       2.633   2.958  17.432  0.00  0.00    +0.000 A 
ATOM     16  C   UNL     1       1.733   3.631  18.256  0.00  0.00    +0.000 A 
ATOM     17  C   UNL     1       1.946   4.971  18.576  0.00  0.00    +0.000 A 
ATOM     18  C   UNL     1       3.056   5.649  18.064  0.00  0.00    +0.000 A 
ENDBRANCH  11  13
ENDBRANCH  10  11
ENDBRANCH   2  10
TORSDOF 6
ENDMDL
MODEL 4
REMARK VINA RESULT:      -6.5      2.840      4.689
REMARK  Name = 
REMARK  6 active torsions:
REMARK  status: ('A' for Active; 'I' for Inactive)
REMARK    1  A    between atoms: C_2  and  O_3
REMARK    2  A    between atoms: C_2  and  C_4
REMARK    3  A    between atoms: C_4  and  N_5
REMARK    4  A    between atoms: C_6  and  C_8
REMARK    5  A    between atoms: C_8  and  C_9
REMARK    6  A    between atoms: C_9  and  C_11
REMARK                            x       y       z     vdW  Elec       q    Type
REMARK                         _______ _______ _______ _____ _____    ______ ____
ROOT
ATOM      1  N   UNL     1       6.374   4.228  17.762  0.00  0.00    +0.000 N 
ATOM      2  C   UNL     1       5.679   4.713  16.678  0.00  0.00    +0.000 C 
ATOM      3  O   UNL     1       6.174   5.519  15.892  0.00  0.00    +0.000 OA
ATOM      4  H   UNL     1       5.878   3.604  18.394  0.00  0.00    +0.000 HD
ENDROOT
BRANCH   1   5
ATOM      5  C   UNL     1       7.735   4.672  18.028  0.00  0.00    +0.000 C 
BRANCH   5   7
ATOM      6  O   UNL     1       8.096   6.991  18.646  0.00  0.00    +0.000 OA
ATOM      7  C   UNL     1       7.871   5.841  18.996  0.00  0.00    +0.000 C 
BRANCH   7   8
ATOM      8  O   UNL     1       7.835   5.489  20.307  0.00  0.00    +0.000 OA
ATOM      9  H   UNL     1       7.025   5.790  20.765  0.00  0.00    +0.000 HD
ENDBRANCH   7   8
ENDBRANCH   5   7
ENDBRANCH   1   5
BRANCH   2  10
ATOM     10  C   UNL     1       4.229   4.296  16.561  0.00  0.00    +0.000 C 
BRANCH  10  11
ATOM     11  C   UNL     1       3.749   3.247  17.537  0.00  0.00    +0.000 C 
ATOM     12  O   UNL     1       4.119   2.073  17.488  0.00  0.00    +0.000 OA
BRANCH  11  13
ATOM     13  C   UNL     1       2.803   3.660  18.611  0.00  0.00    +0.000 A 
ATOM     14  C   UNL     1       1.699   2.841  18.874  0.00  0.00    +0.000 A 
ATOM     15  C   UNL     1       0.797   3.182  19.883  0.00  0.00    +0.000 A 
ATOM     16  C   UNL     1       1.003   4.334  20.640  0.00  0.00    +0.000 A 
ATOM     17  C   UNL     1       2.107   5.147  20.390  0.00  0.00    +0.000 A 
ATOM     18  C   UNL     1       3.008   4.817  19.373  0.00  0.00    +0.000 A 
ENDBRANCH  11  13
ENDBRANCH  10  11
ENDBRANCH   2  10
TORSDOF 6
ENDMDL
MODEL 5
REMARK VINA RESULT:      -6.5      0.877      1.093
REMARK  Name = 
REMARK  6 active torsions:
REMARK  status: ('A' for Active; 'I' for Inactive)
REMARK    1  A    between atoms: C_2  and  O_3
REMARK    2  A    between atoms: C_2  and  C_4
REMARK    3  A    between atoms: C_4  and  N_5
REMARK    4  A    between atoms: C_6  and  C_8
REMARK    5  A    between atoms: C_8  and  C_9
REMARK    6  A    between atoms: C_9  and  C_11
REMARK                            x       y       z     vdW  Elec       q    Type
REMARK                         _______ _______ _______ _____ _____    ______ ____
ROOT
ATOM      1  N   UNL     1       6.183   3.656  14.120  0.00  0.00    +0.000 N 
ATOM      2  C   UNL     1       6.817   4.569  14.929  0.00  0.00    +0.000 C 
ATOM      3  O   UNL     1       7.623   5.387  14.487  0.00  0.00    +0.000 OA
ATOM      4  H   UNL     1       5.570   2.980  14.569  0.00  0.00    +0.000 HD
ENDROOT
BRANCH   1   5
ATOM      5  C   UNL     1       6.460   3.615  12.691  0.00  0.00    +0.000 C 
BRANCH   5   7
ATOM      6  O   UNL     1       4.371   3.229  11.516  0.00  0.00    +0.000 OA
ATOM      7  C   UNL     1       5.472   2.815  11.850  0.00  0.00    +0.000 C 
BRANCH   7   8
ATOM      8  O   UNL     1       5.863   1.540  11.589  0.00  0.00    +0.000 OA
ATOM      9  H   UNL     1       6.832   1.449  11.485  0.00  0.00    +0.000 HD
ENDBRANCH   7   8
ENDBRANCH   5   7
ENDBRANCH   1   5
BRANCH   2  10
ATOM     10  C   UNL     1       6.566   4.446  16.416  0.00  0.00    +0.000 C 
BRANCH  10  11
ATOM     11  C   UNL     1       5.218   4.914  16.912  0.00  0.00    +0.000 C 
ATOM     12  O   UNL     1       4.781   6.044  16.689  0.00  0.00    +0.000 OA
BRANCH  11  13
ATOM     13  C   UNL     1       4.379   3.958  17.688  0.00  0.00    +0.000 A 
ATOM     14  C   UNL     1       3.239   3.426  17.075  0.00  0.00    +0.000 A 
ATOM     15  C   UNL     1       2.434   2.515  17.760  0.00  0.00    +0.000 A 
ATOM     16  C   UNL     1       2.773   2.122  19.054  0.00  0.00    +0.000 A 
ATOM     17  C   UNL     1       3.914   2.640  19.665  0.00  0.00    +0.000 A 
ATOM     18  C   UNL     1       4.718   3.563  18.988  0.00  0.00    +0.000 A 
ENDBRANCH  11  13
ENDBRANCH  10  11
ENDBRANCH   2  10
TORSDOF 6
ENDMDL
MODEL 6
REMARK VINA RESULT:      -6.4      1.849      2.733
REMARK  Name = 
REMARK  6 active torsions:
REMARK  status: ('A' for Active; 'I' for Inactive)
REMARK    1  A    between atoms: C_2  and  O_3
REMARK    2  A    between atoms: C_2  and  C_4
REMARK    3  A    between atoms: C_4  and  N_5
REMARK    4  A    between atoms: C_6  and  C_8
REMARK    5  A    between atoms: C_8  and  C_9
REMARK    6  A    between atoms: C_9  and  C_11
REMARK                            x       y       z     vdW  Elec       q    Type
REMARK                         _______ _______ _______ _____ _____    ______ ____
ROOT
ATOM      1  N   UNL     1       5.827   4.841  16.598  0.00  0.00    +0.000 N 
ATOM      2  C   UNL     1       5.336   6.119  16.731  0.00  0.00    +0.000 C 
ATOM      3  O   UNL     1       5.893   7.090  16.223  0.00  0.00    +0.000 OA
ATOM      4  H   UNL     1       5.338   4.098  17.091  0.00  0.00    +0.000 HD
ENDROOT
BRANCH   1   5
ATOM      5  C   UNL     1       7.052   4.593  15.850  0.00  0.00    +0.000 C 
BRANCH   5   7
ATOM      6  O   UNL     1       6.158   3.964  13.683  0.00  0.00    +0.000 OA
ATOM      7  C   UNL     1       6.924   4.660  14.333  0.00  0.00    +0.000 C 
BRANCH   7   8
ATOM      8  O   UNL     1       7.821   5.486  13.732  0.00  0.00    +0.000 OA
ATOM      9  H   UNL     1       8.557   5.007  13.302  0.00  0.00    +0.000 HD
ENDBRANCH   7   8
ENDBRANCH   5   7
ENDBRANCH   1   5
BRANCH   2  10
ATOM     10  C   UNL     1       4.135   6.292  17.635  0.00  0.00    +0.000 C 
BRANCH  10  11
ATOM     11  C   UNL     1       4.119   5.465  18.899  0.00  0.00    +0.000 C 
ATOM     12  O   UNL     1       5.034   5.489  19.723  0.00  0.00    +0.000 OA
BRANCH  11  13
ATOM     13  C   UNL     1       2.936   4.599  19.163  0.00  0.00    +0.000 A 
ATOM     14  C   UNL     1       2.423   4.554  20.465  0.00  0.00    +0.000 A 
ATOM     15  C   UNL     1       1.306   3.770  20.752  0.00  0.00    +0.000 A 
ATOM     16  C   UNL     1       0.689   3.039  19.738  0.00  0.00    +0.000 A 
ATOM     17  C   UNL     1       1.188   3.089  18.437  0.00  0.00    +0.000 A 
ATOM     18  C   UNL     1       2.314   3.864  18.146  0.00  0.00    +0.000 A 
ENDBRANCH  11  13
ENDBRANCH  10  11
ENDBRANCH   2  10
TORSDOF 6
ENDMDL
MODEL 7
REMARK VINA RESULT:      -6.4      3.098      4.478
REMARK  Name = 
REMARK  6 active torsions:
REMARK  status: ('A' for Active; 'I' for Inactive)
REMARK    1  A    between atoms: C_2  and  O_3
REMARK    2  A    between atoms: C_2  and  C_4
REMARK    3  A    between atoms: C_4  and  N_5
REMARK    4  A    between atoms: C_6  and  C_8
REMARK    5  A    between atoms: C_8  and  C_9
REMARK    6  A    between atoms: C_9  and  C_11
REMARK                            x       y       z     vdW  Elec       q    Type
REMARK                         _______ _______ _______ _____ _____    ______ ____
ROOT
ATOM      1  N   UNL     1       6.631   5.422  18.505  0.00  0.00    +0.000 N 
ATOM      2  C   UNL     1       6.498   4.650  17.375  0.00  0.00    +0.000 C 
ATOM      3  O   UNL     1       7.421   4.493  16.577  0.00  0.00    +0.000 OA
ATOM      4  H   UNL     1       5.807   5.544  19.089  0.00  0.00    +0.000 HD
ENDROOT
BRANCH   1   5
ATOM      5  C   UNL     1       7.885   6.104  18.793  0.00  0.00    +0.000 C 
BRANCH   5   7
ATOM      6  O   UNL     1       7.594   7.824  17.106  0.00  0.00    +0.000 OA
ATOM      7  C   UNL     1       8.027   7.502  18.203  0.00  0.00    +0.000 C 
BRANCH   7   8
ATOM      8  O   UNL     1       8.781   8.350  18.950  0.00  0.00    +0.000 OA
ATOM      9  H   UNL     1       9.008   7.990  19.830  0.00  0.00    +0.000 HD
ENDBRANCH   7   8
ENDBRANCH   5   7
ENDBRANCH   1   5
BRANCH   2  10
ATOM     10  C   UNL     1       5.120   4.092  17.095  0.00  0.00    +0.000 C 
BRANCH  10  11
ATOM     11  C   UNL     1       3.949   4.928  17.553  0.00  0.00    +0.000 C 
ATOM     12  O   UNL     1       3.852   6.131  17.308  0.00  0.00    +0.000 OA
BRANCH  11  13
ATOM     13  C   UNL     1       2.858   4.260  18.317  0.00  0.00    +0.000 A 
ATOM     14  C   UNL     1       2.380   4.885  19.475  0.00  0.00    +0.000 A 
ATOM     15  C   UNL     1       1.348   4.302  20.212  0.00  0.00    +0.000 A 
ATOM     16  C   UNL     1       0.782   3.101  19.788  0.00  0.00    +0.000 A 
ATOM     17  C   UNL     1       1.247   2.480  18.629  0.00  0.00    +0.000 A 
ATOM     18  C   UNL     1       2.288   3.053  17.893  0.00  0.00    +0.000 A 
ENDBRANCH  11  13
ENDBRANCH  10  11
ENDBRANCH   2  10
TORSDOF 6
ENDMDL
MODEL 8
REMARK VINA RESULT:      -6.4      2.700      4.371
REMARK  Name = 
REMARK  6 active torsions:
REMARK  status: ('A' for Active; 'I' for Inactive)
REMARK    1  A    between atoms: C_2  and  O_3
REMARK    2  A    between atoms: C_2  and  C_4
REMARK    3  A    between atoms: C_4  and  N_5
REMARK    4  A    between atoms: C_6  and  C_8
REMARK    5  A    between atoms: C_8  and  C_9
REMARK    6  A    between atoms: C_9  and  C_11
REMARK                            x       y       z     vdW  Elec       q    Type
REMARK                         _______ _______ _______ _____ _____    ______ ____
ROOT
ATOM      1  N   UNL     1       6.037   4.043  17.594  0.00  0.00    +0.000 N 
ATOM      2  C   UNL     1       5.091   4.230  16.614  0.00  0.00    +0.000 C 
ATOM      3  O   UNL     1       5.351   4.795  15.553  0.00  0.00    +0.000 OA
ATOM      4  H   UNL     1       5.732   3.613  18.463  0.00  0.00    +0.000 HD
ENDROOT
BRANCH   1   5
ATOM      5  C   UNL     1       7.398   4.530  17.412  0.00  0.00    +0.000 C 
BRANCH   5   7
ATOM      6  O   UNL     1       7.758   6.475  18.818  0.00  0.00    +0.000 OA
ATOM      7  C   UNL     1       7.612   6.012  17.696  0.00  0.00    +0.000 C 
BRANCH   7   8
ATOM      8  O   UNL     1       7.515   6.810  16.601  0.00  0.00    +0.000 OA
ATOM      9  H   UNL     1       7.772   7.738  16.777  0.00  0.00    +0.000 HD
ENDBRANCH   7   8
ENDBRANCH   5   7
ENDBRANCH   1   5
BRANCH   2  10
ATOM     10  C   UNL     1       3.677   3.809  16.948  0.00  0.00    +0.000 C 
BRANCH  10  11
ATOM     11  C   UNL     1       3.528   2.633  17.885  0.00  0.00    +0.000 C 
ATOM     12  O   UNL     1       4.004   1.523  17.643  0.00  0.00    +0.000 OA
BRANCH  11  13
ATOM     13  C   UNL     1       2.788   2.835  19.162  0.00  0.00    +0.000 A 
ATOM     14  C   UNL     1       1.482   3.336  19.101  0.00  0.00    +0.000 A 
ATOM     15  C   UNL     1       0.748   3.524  20.272  0.00  0.00    +0.000 A 
ATOM     16  C   UNL     1       1.310   3.202  21.506  0.00  0.00    +0.000 A 
ATOM     17  C   UNL     1       2.606   2.692  21.572  0.00  0.00    +0.000 A 
ATOM     18  C   UNL     1       3.351   2.513  20.403  0.00  0.00    +0.000 A 
ENDBRANCH  11  13
ENDBRANCH  10  11
ENDBRANCH   2  10
TORSDOF 6
ENDMDL
MODEL 9
REMARK VINA RESULT:      -6.4      0.907      1.756
REMARK  Name = 
REMARK  6 active torsions:
REMARK  status: ('A' for Active; 'I' for Inactive)
REMARK    1  A    between atoms: C_2  and  O_3
REMARK    2  A    between atoms: C_2  and  C_4
REMARK    3  A    between atoms: C_4  and  N_5
REMARK    4  A    between atoms: C_6  and  C_8
REMARK    5  A    between atoms: C_8  and  C_9
REMARK    6  A    between atoms: C_9  and  C_11
REMARK                            x       y       z     vdW  Elec       q    Type
REMARK                         _______ _______ _______ _____ _____    ______ ____
ROOT
ATOM      1  N   UNL     1       6.321   3.485  14.028  0.00  0.00    +0.000 N 
ATOM      2  C   UNL     1       6.646   4.540  14.848  0.00  0.00    +0.000 C 
ATOM      3  O   UNL     1       6.982   5.636  14.403  0.00  0.00    +0.000 OA
ATOM      4  H   UNL     1       6.102   2.597  14.472  0.00  0.00    +0.000 HD
ENDROOT
BRANCH   1   5
ATOM      5  C   UNL     1       6.381   3.628  12.580  0.00  0.00    +0.000 C 
BRANCH   5   7
ATOM      6  O   UNL     1       5.666   1.626  11.408  0.00  0.00    +0.000 OA
ATOM      7  C   UNL     1       5.409   2.758  11.790  0.00  0.00    +0.000 C 
BRANCH   7   8
ATOM      8  O   UNL     1       4.257   3.386  11.438  0.00  0.00    +0.000 OA
ATOM      9  H   UNL     1       4.399   4.139  10.831  0.00  0.00    +0.000 HD
ENDBRANCH   7   8
ENDBRANCH   5   7
ENDBRANCH   1   5
BRANCH   2  10
ATOM     10  C   UNL     1       6.682   4.257  16.334  0.00  0.00    +0.000 C 
BRANCH  10  11
ATOM     11  C   UNL     1       5.883   5.186  17.217  0.00  0.00    +0.000 C 
ATOM     12  O   UNL     1       6.381   6.163  17.779  0.00  0.00    +0.000 OA
BRANCH  11  13
ATOM     13  C   UNL     1       4.430   4.915  17.398  0.00  0.00    +0.000 A 
ATOM     14  C   UNL     1       3.959   3.621  17.142  0.00  0.00    +0.000 A 
ATOM     15  C   UNL     1       2.608   3.320  17.315  0.00  0.00    +0.000 A 
ATOM     16  C   UNL     1       1.726   4.304  17.757  0.00  0.00    +0.000 A 
ATOM     17  C   UNL     1       2.191   5.591  18.025  0.00  0.00    +0.000 A 
ATOM     18  C   UNL     1       3.542   5.902  17.842  0.00  0.00    +0.000 A 
ENDBRANCH  11  13
ENDBRANCH  10  11
ENDBRANCH   2  10
TORSDOF 6
ENDMDL
