MODEL 1
REMARK VINA RESULT:      -8.8      0.000      0.000
REMARK  Name = 
REMARK  8 active torsions:
REMARK  status: ('A' for Active; 'I' for Inactive)
REMARK    1  A    between atoms: C_1  and  O_2
REMARK    2  A    between atoms: O_2  and  C_3
REMARK    3  A    between atoms: C_6  and  C_7
REMARK    4  A    between atoms: C_7  and  N_8
REMARK    5  A    between atoms: N_8  and  C_9
REMARK    6  A    between atoms: C_12  and  N_13
REMARK    7  A    between atoms: C_16  and  O_17
REMARK    8  A    between atoms: C_23  and  N_24
REMARK                            x       y       z     vdW  Elec       q    Type
REMARK                         _______ _______ _______ _____ _____    ______ ____
ROOT
ATOM      1  C   UNL     1       2.162   7.208  19.543  0.00  0.00    +0.000 A 
ATOM      2  N   UNL     1       2.596   8.109  18.648  0.00  0.00    +0.000 NA
ATOM      3  N   UNL     1       3.601   7.789  17.754  0.00  0.00    +0.000 NA
ATOM      4  C   UNL     1       4.212   6.583  17.756  0.00  0.00    +0.000 A 
ATOM      5  C   UNL     1       3.777   5.595  18.681  0.00  0.00    +0.000 A 
ATOM      6  C   UNL     1       4.306   4.278  18.754  0.00  0.00    +0.000 A 
ATOM      7  C   UNL     1       3.915   3.354  19.726  0.00  0.00    +0.000 A 
ATOM      8  C   UNL     1       2.900   3.692  20.606  0.00  0.00    +0.000 A 
ATOM      9  C   UNL     1       2.292   4.945  20.526  0.00  0.00    +0.000 A 
ATOM     10  C   UNL     1       2.725   5.918  19.582  0.00  0.00    +0.000 A 
ENDROOT
BRANCH   4  11
ATOM     11  N   UNL     1       5.221   6.371  16.821  0.00  0.00    +0.000 N 
ATOM     12  C   UNL     1       6.609   6.374  17.288  0.00  0.00    +0.000 C 
ATOM     13  C   UNL     1       7.300   5.042  17.009  0.00  0.00    +0.000 C 
ATOM     14  C   UNL     1       7.128   4.601  15.560  0.00  0.00    +0.000 C 
ATOM     15  C   UNL     1       5.658   4.572  15.171  0.00  0.00    +0.000 C 
ATOM     16  C   UNL     1       4.950   5.887  15.470  0.00  0.00    +0.000 C 
BRANCH  14  17
ATOM     17  O   UNL     1       7.871   5.435  14.672  0.00  0.00    +0.000 OA
ATOM     18  H   UNL     1       7.494   5.373  13.780  0.00  0.00    +0.000 HD
ENDBRANCH  14  17
ENDBRANCH   4  11
BRANCH   8  19
ATOM     19  N   UNL     1       2.471   2.715  21.617  0.00  0.00    +0.000 N 
ATOM     20  O   UNL     1       3.314   1.915  22.036  0.00  0.00    +0.000 OA
ATOM     21  O   UNL     1       1.291   2.757  21.992  0.00  0.00    +0.000 OA
ENDBRANCH   8  19
BRANCH   1  22
ATOM     22  N   UNL     1       1.119   7.532  20.435  0.00  0.00    +0.000 N 
ATOM     23  H   UNL     1       0.340   7.911  19.900  0.00  0.00    +0.000 HD
BRANCH  22  24
ATOM     24  C   UNL     1       1.487   8.405  21.542  0.00  0.00    +0.000 C 
BRANCH  24  28
ATOM     25  C   UNL     1      -1.443  11.596  22.004  0.00  0.00    +0.000 A 
ATOM     26  C   UNL     1      -1.098  10.768  23.080  0.00  0.00    +0.000 A 
ATOM     27  C   UNL     1      -0.177   9.726  22.926  0.00  0.00    +0.000 A 
ATOM     28  C   UNL     1       0.428   9.484  21.686  0.00  0.00    +0.000 A 
ATOM     29  C   UNL     1       0.088  10.314  20.611  0.00  0.00    +0.000 A 
ATOM     30  C   UNL     1      -0.832  11.369  20.763  0.00  0.00    +0.000 A 
ATOM     31 CL   UNL     1      -1.057  12.371  19.372  0.00  0.00    +0.000 Cl
BRANCH  25  33
ATOM     32  C   UNL     1      -3.116  12.404  23.503  0.00  0.00    +0.000 C 
ATOM     33  O   UNL     1      -2.296  12.607  22.358  0.00  0.00    +0.000 OA
ENDBRANCH  25  33
ENDBRANCH  24  28
ENDBRANCH  22  24
ENDBRANCH   1  22
TORSDOF 7
ENDMDL
MODEL 2
REMARK VINA RESULT:      -8.6      5.509      8.118
REMARK  Name = 
REMARK  8 active torsions:
REMARK  status: ('A' for Active; 'I' for Inactive)
REMARK    1  A    between atoms: C_1  and  O_2
REMARK    2  A    between atoms: O_2  and  C_3
REMARK    3  A    between atoms: C_6  and  C_7
REMARK    4  A    between atoms: C_7  and  N_8
REMARK    5  A    between atoms: N_8  and  C_9
REMARK    6  A    between atoms: C_12  and  N_13
REMARK    7  A    between atoms: C_16  and  O_17
REMARK    8  A    between atoms: C_23  and  N_24
REMARK                            x       y       z     vdW  Elec       q    Type
REMARK                         _______ _______ _______ _____ _____    ______ ____
ROOT
ATOM      1  C   UNL     1       6.545   6.732  17.419  0.00  0.00    +0.000 A 
ATOM      2  N   UNL     1       5.794   6.631  18.526  0.00  0.00    +0.000 NA
ATOM      3  N   UNL     1       4.883   5.603  18.671  0.00  0.00    +0.000 NA
ATOM      4  C   UNL     1       4.680   4.677  17.707  0.00  0.00    +0.000 A 
ATOM      5  C   UNL     1       5.462   4.740  16.520  0.00  0.00    +0.000 A 
ATOM      6  C   UNL     1       5.376   3.803  15.454  0.00  0.00    +0.000 A 
ATOM      7  C   UNL     1       6.098   3.935  14.266  0.00  0.00    +0.000 A 
ATOM      8  C   UNL     1       7.014   4.969  14.146  0.00  0.00    +0.000 A 
ATOM      9  C   UNL     1       7.193   5.871  15.196  0.00  0.00    +0.000 A 
ATOM     10  C   UNL     1       6.418   5.784  16.385  0.00  0.00    +0.000 A 
ENDROOT
BRANCH   4  11
ATOM     11  N   UNL     1       3.729   3.691  17.949  0.00  0.00    +0.000 N 
ATOM     12  C   UNL     1       4.057   2.633  18.908  0.00  0.00    +0.000 C 
ATOM     13  C   UNL     1       3.076   2.608  20.076  0.00  0.00    +0.000 C 
ATOM     14  C   UNL     1       1.626   2.599  19.605  0.00  0.00    +0.000 C 
ATOM     15  C   UNL     1       1.354   3.758  18.658  0.00  0.00    +0.000 C 
ATOM     16  C   UNL     1       2.343   3.810  17.502  0.00  0.00    +0.000 C 
BRANCH  14  17
ATOM     17  O   UNL     1       1.286   1.355  18.995  0.00  0.00    +0.000 OA
ATOM     18  H   UNL     1       1.778   0.638  19.428  0.00  0.00    +0.000 HD
ENDBRANCH  14  17
ENDBRANCH   4  11
BRANCH   8  19
ATOM     19  N   UNL     1       7.792   5.099  12.906  0.00  0.00    +0.000 N 
ATOM     20  O   UNL     1       8.764   5.860  12.916  0.00  0.00    +0.000 OA
ATOM     21  O   UNL     1       7.429   4.431  11.928  0.00  0.00    +0.000 OA
ENDBRANCH   8  19
BRANCH   1  22
ATOM     22  N   UNL     1       7.492   7.769  17.289  0.00  0.00    +0.000 N 
ATOM     23  H   UNL     1       8.081   7.574  16.482  0.00  0.00    +0.000 HD
BRANCH  22  24
ATOM     24  C   UNL     1       8.285   8.049  18.478  0.00  0.00    +0.000 C 
BRANCH  24  28
ATOM     25  C   UNL     1       9.208  12.306  18.584  0.00  0.00    +0.000 A 
ATOM     26  C   UNL     1       8.365  11.772  17.602  0.00  0.00    +0.000 A 
ATOM     27  C   UNL     1       8.088  10.401  17.550  0.00  0.00    +0.000 A 
ATOM     28  C   UNL     1       8.650   9.524  18.487  0.00  0.00    +0.000 A 
ATOM     29  C   UNL     1       9.489  10.057  19.473  0.00  0.00    +0.000 A 
ATOM     30  C   UNL     1       9.763  11.437  19.533  0.00  0.00    +0.000 A 
ATOM     31 CL   UNL     1      10.723  11.950  20.876  0.00  0.00    +0.000 Cl
BRANCH  25  33
ATOM     32  C   UNL     1       8.096  14.403  18.336  0.00  0.00    +0.000 C 
ATOM     33  O   UNL     1       9.300  13.671  18.527  0.00  0.00    +0.000 OA
ENDBRANCH  25  33
ENDBRANCH  24  28
ENDBRANCH  22  24
ENDBRANCH   1  22
TORSDOF 7
ENDMDL
MODEL 3
REMARK VINA RESULT:      -8.4      1.065      1.424
REMARK  Name = 
REMARK  8 active torsions:
REMARK  status: ('A' for Active; 'I' for Inactive)
REMARK    1  A    between atoms: C_1  and  O_2
REMARK    2  A    between atoms: O_2  and  C_3
REMARK    3  A    between atoms: C_6  and  C_7
REMARK    4  A    between atoms: C_7  and  N_8
REMARK    5  A    between atoms: N_8  and  C_9
REMARK    6  A    between atoms: C_12  and  N_13
REMARK    7  A    between atoms: C_16  and  O_17
REMARK    8  A    between atoms: C_23  and  N_24
REMARK                            x       y       z     vdW  Elec       q    Type
REMARK                         _______ _______ _______ _____ _____    ______ ____
ROOT
ATOM      1  C   UNL     1       2.129   7.293  19.454  0.00  0.00    +0.000 A 
ATOM      2  N   UNL     1       2.600   8.184  18.568  0.00  0.00    +0.000 NA
ATOM      3  N   UNL     1       3.607   7.840  17.687  0.00  0.00    +0.000 NA
ATOM      4  C   UNL     1       4.184   6.617  17.691  0.00  0.00    +0.000 A 
ATOM      5  C   UNL     1       3.708   5.638  18.607  0.00  0.00    +0.000 A 
ATOM      6  C   UNL     1       4.198   4.306  18.681  0.00  0.00    +0.000 A 
ATOM      7  C   UNL     1       3.769   3.390  19.644  0.00  0.00    +0.000 A 
ATOM      8  C   UNL     1       2.751   3.753  20.512  0.00  0.00    +0.000 A 
ATOM      9  C   UNL     1       2.181   5.024  20.429  0.00  0.00    +0.000 A 
ATOM     10  C   UNL     1       2.654   5.987  19.496  0.00  0.00    +0.000 A 
ENDROOT
BRANCH   4  11
ATOM     11  N   UNL     1       5.199   6.379  16.770  0.00  0.00    +0.000 N 
ATOM     12  C   UNL     1       6.586   6.445  17.235  0.00  0.00    +0.000 C 
ATOM     13  C   UNL     1       7.312   5.119  17.031  0.00  0.00    +0.000 C 
ATOM     14  C   UNL     1       7.153   4.593  15.609  0.00  0.00    +0.000 C 
ATOM     15  C   UNL     1       5.685   4.502  15.224  0.00  0.00    +0.000 C 
ATOM     16  C   UNL     1       4.942   5.812  15.448  0.00  0.00    +0.000 C 
BRANCH  14  17
ATOM     17  O   UNL     1       7.874   5.394  14.675  0.00  0.00    +0.000 OA
ATOM     18  H   UNL     1       8.077   6.255  15.077  0.00  0.00    +0.000 HD
ENDBRANCH  14  17
ENDBRANCH   4  11
BRANCH   8  19
ATOM     19  N   UNL     1       2.281   2.785  21.513  0.00  0.00    +0.000 N 
ATOM     20  O   UNL     1       3.128   2.084  22.075  0.00  0.00    +0.000 OA
ATOM     21  O   UNL     1       1.063   2.736  21.737  0.00  0.00    +0.000 OA
ENDBRANCH   8  19
BRANCH   1  22
ATOM     22  N   UNL     1       1.083   7.644  20.333  0.00  0.00    +0.000 N 
ATOM     23  H   UNL     1       0.274   7.924  19.782  0.00  0.00    +0.000 HD
BRANCH  22  24
ATOM     24  C   UNL     1       1.418   8.639  21.342  0.00  0.00    +0.000 C 
BRANCH  24  28
ATOM     25  C   UNL     1      -1.309  11.992  20.788  0.00  0.00    +0.000 A 
ATOM     26  C   UNL     1      -0.499  11.535  19.740  0.00  0.00    +0.000 A 
ATOM     27  C   UNL     1       0.396  10.476  19.924  0.00  0.00    +0.000 A 
ATOM     28  C   UNL     1       0.505   9.840  21.167  0.00  0.00    +0.000 A 
ATOM     29  C   UNL     1      -0.307  10.292  22.215  0.00  0.00    +0.000 A 
ATOM     30  C   UNL     1      -1.215  11.352  22.031  0.00  0.00    +0.000 A 
ATOM     31 CL   UNL     1      -2.226  11.713  23.387  0.00  0.00    +0.000 Cl
BRANCH  25  33
ATOM     32  C   UNL     1      -3.509  12.600  20.092  0.00  0.00    +0.000 C 
ATOM     33  O   UNL     1      -2.175  12.980  20.403  0.00  0.00    +0.000 OA
ENDBRANCH  25  33
ENDBRANCH  24  28
ENDBRANCH  22  24
ENDBRANCH   1  22
TORSDOF 7
ENDMDL
MODEL 4
REMARK VINA RESULT:      -8.4      5.609      8.117
REMARK  Name = 
REMARK  8 active torsions:
REMARK  status: ('A' for Active; 'I' for Inactive)
REMARK    1  A    between atoms: C_1  and  O_2
REMARK    2  A    between atoms: O_2  and  C_3
REMARK    3  A    between atoms: C_6  and  C_7
REMARK    4  A    between atoms: C_7  and  N_8
REMARK    5  A    between atoms: N_8  and  C_9
REMARK    6  A    between atoms: C_12  and  N_13
REMARK    7  A    between atoms: C_16  and  O_17
REMARK    8  A    between atoms: C_23  and  N_24
REMARK                            x       y       z     vdW  Elec       q    Type
REMARK                         _______ _______ _______ _____ _____    ______ ____
ROOT
ATOM      1  C   UNL     1       6.931   6.196  18.017  0.00  0.00    +0.000 A 
ATOM      2  N   UNL     1       6.219   5.984  19.134  0.00  0.00    +0.000 NA
ATOM      3  N   UNL     1       5.221   5.029  19.167  0.00  0.00    +0.000 NA
ATOM      4  C   UNL     1       4.892   4.292  18.083  0.00  0.00    +0.000 A 
ATOM      5  C   UNL     1       5.627   4.476  16.879  0.00  0.00    +0.000 A 
ATOM      6  C   UNL     1       5.409   3.734  15.686  0.00  0.00    +0.000 A 
ATOM      7  C   UNL     1       6.091   3.992  14.495  0.00  0.00    +0.000 A 
ATOM      8  C   UNL     1       7.095   4.948  14.488  0.00  0.00    +0.000 A 
ATOM      9  C   UNL     1       7.402   5.650  15.654  0.00  0.00    +0.000 A 
ATOM     10  C   UNL     1       6.671   5.441  16.856  0.00  0.00    +0.000 A 
ENDROOT
BRANCH   4  11
ATOM     11  N   UNL     1       3.862   3.366  18.220  0.00  0.00    +0.000 N 
ATOM     12  C   UNL     1       3.889   2.468  19.377  0.00  0.00    +0.000 C 
ATOM     13  C   UNL     1       2.649   2.636  20.250  0.00  0.00    +0.000 C 
ATOM     14  C   UNL     1       1.362   2.570  19.435  0.00  0.00    +0.000 C 
ATOM     15  C   UNL     1       1.392   3.570  18.289  0.00  0.00    +0.000 C 
ATOM     16  C   UNL     1       2.638   3.430  17.426  0.00  0.00    +0.000 C 
BRANCH  14  17
ATOM     17  O   UNL     1       1.122   1.250  18.950  0.00  0.00    +0.000 OA
ATOM     18  H   UNL     1       0.187   1.023  19.079  0.00  0.00    +0.000 HD
ENDBRANCH  14  17
ENDBRANCH   4  11
BRANCH   8  19
ATOM     19  N   UNL     1       7.830   5.207  13.242  0.00  0.00    +0.000 N 
ATOM     20  O   UNL     1       8.801   5.969  13.296  0.00  0.00    +0.000 OA
ATOM     21  O   UNL     1       7.436   4.639  12.214  0.00  0.00    +0.000 OA
ENDBRANCH   8  19
BRANCH   1  22
ATOM     22  N   UNL     1       7.965   7.154  17.998  0.00  0.00    +0.000 N 
ATOM     23  H   UNL     1       8.307   7.283  18.949  0.00  0.00    +0.000 HD
BRANCH  22  24
ATOM     24  C   UNL     1       7.634   8.425  17.368  0.00  0.00    +0.000 C 
BRANCH  24  28
ATOM     25  C   UNL     1       9.760  11.592  19.473  0.00  0.00    +0.000 A 
ATOM     26  C   UNL     1       9.704  10.290  19.988  0.00  0.00    +0.000 A 
ATOM     27  C   UNL     1       9.000   9.278  19.327  0.00  0.00    +0.000 A 
ATOM     28  C   UNL     1       8.330   9.542  18.125  0.00  0.00    +0.000 A 
ATOM     29  C   UNL     1       8.389  10.842  17.607  0.00  0.00    +0.000 A 
ATOM     30  C   UNL     1       9.104  11.860  18.265  0.00  0.00    +0.000 A 
ATOM     31 CL   UNL     1       9.176  13.376  17.437  0.00  0.00    +0.000 Cl
BRANCH  25  33
ATOM     32  C   UNL     1       9.972  13.066  21.339  0.00  0.00    +0.000 C 
ATOM     33  O   UNL     1      10.557  12.425  20.211  0.00  0.00    +0.000 OA
ENDBRANCH  25  33
ENDBRANCH  24  28
ENDBRANCH  22  24
ENDBRANCH   1  22
TORSDOF 7
ENDMDL
MODEL 5
REMARK VINA RESULT:      -8.4      1.884      2.479
REMARK  Name = 
REMARK  8 active torsions:
REMARK  status: ('A' for Active; 'I' for Inactive)
REMARK    1  A    between atoms: C_1  and  O_2
REMARK    2  A    between atoms: O_2  and  C_3
REMARK    3  A    between atoms: C_6  and  C_7
REMARK    4  A    between atoms: C_7  and  N_8
REMARK    5  A    between atoms: N_8  and  C_9
REMARK    6  A    between atoms: C_12  and  N_13
REMARK    7  A    between atoms: C_16  and  O_17
REMARK    8  A    between atoms: C_23  and  N_24
REMARK                            x       y       z     vdW  Elec       q    Type
REMARK                         _______ _______ _______ _____ _____    ______ ____
ROOT
ATOM      1  C   UNL     1       2.167   7.806  19.064  0.00  0.00    +0.000 A 
ATOM      2  N   UNL     1       2.741   8.616  18.162  0.00  0.00    +0.000 NA
ATOM      3  N   UNL     1       3.751   8.155  17.339  0.00  0.00    +0.000 NA
ATOM      4  C   UNL     1       4.228   6.892  17.419  0.00  0.00    +0.000 A 
ATOM      5  C   UNL     1       3.641   5.996  18.356  0.00  0.00    +0.000 A 
ATOM      6  C   UNL     1       4.021   4.635  18.507  0.00  0.00    +0.000 A 
ATOM      7  C   UNL     1       3.484   3.800  19.489  0.00  0.00    +0.000 A 
ATOM      8  C   UNL     1       2.466   4.281  20.298  0.00  0.00    +0.000 A 
ATOM      9  C   UNL     1       2.001   5.587  20.137  0.00  0.00    +0.000 A 
ATOM     10  C   UNL     1       2.585   6.466  19.183  0.00  0.00    +0.000 A 
ENDROOT
BRANCH   4  11
ATOM     11  N   UNL     1       5.255   6.534  16.552  0.00  0.00    +0.000 N 
ATOM     12  C   UNL     1       6.623   6.504  17.074  0.00  0.00    +0.000 C 
ATOM     13  C   UNL     1       7.242   5.115  16.950  0.00  0.00    +0.000 C 
ATOM     14  C   UNL     1       7.097   4.547  15.543  0.00  0.00    +0.000 C 
ATOM     15  C   UNL     1       5.642   4.564  15.097  0.00  0.00    +0.000 C 
ATOM     16  C   UNL     1       5.005   5.939  15.242  0.00  0.00    +0.000 C 
BRANCH  14  17
ATOM     17  O   UNL     1       7.920   5.248  14.612  0.00  0.00    +0.000 OA
ATOM     18  H   UNL     1       8.102   4.678  13.848  0.00  0.00    +0.000 HD
ENDBRANCH  14  17
ENDBRANCH   4  11
BRANCH   8  19
ATOM     19  N   UNL     1       1.883   3.399  21.318  0.00  0.00    +0.000 N 
ATOM     20  O   UNL     1       2.422   3.371  22.429  0.00  0.00    +0.000 OA
ATOM     21  O   UNL     1       0.880   2.742  21.005  0.00  0.00    +0.000 OA
ENDBRANCH   8  19
BRANCH   1  22
ATOM     22  N   UNL     1       1.120   8.276  19.883  0.00  0.00    +0.000 N 
ATOM     23  H   UNL     1       0.236   7.932  19.512  0.00  0.00    +0.000 HD
BRANCH  22  24
ATOM     24  C   UNL     1       1.088   9.717  20.098  0.00  0.00    +0.000 C 
BRANCH  24  28
ATOM     25  C   UNL     1      -2.447  11.255  18.067  0.00  0.00    +0.000 A 
ATOM     26  C   UNL     1      -1.612  10.310  17.454  0.00  0.00    +0.000 A 
ATOM     27  C   UNL     1      -0.462   9.835  18.095  0.00  0.00    +0.000 A 
ATOM     28  C   UNL     1      -0.115  10.293  19.372  0.00  0.00    +0.000 A 
ATOM     29  C   UNL     1      -0.951  11.233  19.988  0.00  0.00    +0.000 A 
ATOM     30  C   UNL     1      -2.113  11.707  19.350  0.00  0.00    +0.000 A 
ATOM     31 CL   UNL     1      -3.097  12.775  20.289  0.00  0.00    +0.000 Cl
BRANCH  25  33
ATOM     32  C   UNL     1      -3.679  10.932  16.048  0.00  0.00    +0.000 C 
ATOM     33  O   UNL     1      -3.562  11.542  17.327  0.00  0.00    +0.000 OA
ENDBRANCH  25  33
ENDBRANCH  24  28
ENDBRANCH  22  24
ENDBRANCH   1  22
TORSDOF 7
ENDMDL
MODEL 6
REMARK VINA RESULT:      -8.3      0.942      1.155
REMARK  Name = 
REMARK  8 active torsions:
REMARK  status: ('A' for Active; 'I' for Inactive)
REMARK    1  A    between atoms: C_1  and  O_2
REMARK    2  A    between atoms: O_2  and  C_3
REMARK    3  A    between atoms: C_6  and  C_7
REMARK    4  A    between atoms: C_7  and  N_8
REMARK    5  A    between atoms: N_8  and  C_9
REMARK    6  A    between atoms: C_12  and  N_13
REMARK    7  A    between atoms: C_16  and  O_17
REMARK    8  A    between atoms: C_23  and  N_24
REMARK                            x       y       z     vdW  Elec       q    Type
REMARK                         _______ _______ _______ _____ _____    ______ ____
ROOT
ATOM      1  C   UNL     1       2.154   7.356  19.417  0.00  0.00    +0.000 A 
ATOM      2  N   UNL     1       2.638   8.251  18.542  0.00  0.00    +0.000 NA
ATOM      3  N   UNL     1       3.650   7.906  17.666  0.00  0.00    +0.000 NA
ATOM      4  C   UNL     1       4.217   6.679  17.664  0.00  0.00    +0.000 A 
ATOM      5  C   UNL     1       3.727   5.696  18.568  0.00  0.00    +0.000 A 
ATOM      6  C   UNL     1       4.207   4.360  18.634  0.00  0.00    +0.000 A 
ATOM      7  C   UNL     1       3.764   3.439  19.586  0.00  0.00    +0.000 A 
ATOM      8  C   UNL     1       2.742   3.803  20.450  0.00  0.00    +0.000 A 
ATOM      9  C   UNL     1       2.182   5.078  20.373  0.00  0.00    +0.000 A 
ATOM     10  C   UNL     1       2.669   6.045  19.451  0.00  0.00    +0.000 A 
ENDROOT
BRANCH   4  11
ATOM     11  N   UNL     1       5.237   6.441  16.748  0.00  0.00    +0.000 N 
ATOM     12  C   UNL     1       6.616   6.409  17.240  0.00  0.00    +0.000 C 
ATOM     13  C   UNL     1       7.278   5.060  16.972  0.00  0.00    +0.000 C 
ATOM     14  C   UNL     1       7.121   4.625  15.520  0.00  0.00    +0.000 C 
ATOM     15  C   UNL     1       5.658   4.633  15.104  0.00  0.00    +0.000 C 
ATOM     16  C   UNL     1       4.978   5.965  15.391  0.00  0.00    +0.000 C 
BRANCH  14  17
ATOM     17  O   UNL     1       7.901   5.440  14.646  0.00  0.00    +0.000 OA
ATOM     18  H   UNL     1       8.277   6.181  15.147  0.00  0.00    +0.000 HD
ENDBRANCH  14  17
ENDBRANCH   4  11
BRANCH   8  19
ATOM     19  N   UNL     1       2.258   2.830  21.439  0.00  0.00    +0.000 N 
ATOM     20  O   UNL     1       1.036   2.717  21.582  0.00  0.00    +0.000 OA
ATOM     21  O   UNL     1       3.104   2.176  22.064  0.00  0.00    +0.000 OA
ENDBRANCH   8  19
BRANCH   1  22
ATOM     22  N   UNL     1       1.105   7.707  20.291  0.00  0.00    +0.000 N 
ATOM     23  H   UNL     1       0.260   7.856  19.742  0.00  0.00    +0.000 HD
BRANCH  22  24
ATOM     24  C   UNL     1       1.375   8.829  21.179  0.00  0.00    +0.000 C 
BRANCH  24  28
ATOM     25  C   UNL     1      -1.521  12.002  20.449  0.00  0.00    +0.000 A 
ATOM     26  C   UNL     1      -0.802  11.939  21.650  0.00  0.00    +0.000 A 
ATOM     27  C   UNL     1       0.109  10.905  21.897  0.00  0.00    +0.000 A 
ATOM     28  C   UNL     1       0.328   9.903  20.943  0.00  0.00    +0.000 A 
ATOM     29  C   UNL     1      -0.386   9.967  19.740  0.00  0.00    +0.000 A 
ATOM     30  C   UNL     1      -1.297  11.010  19.484  0.00  0.00    +0.000 A 
ATOM     31 CL   UNL     1      -2.009  11.010  17.909  0.00  0.00    +0.000 Cl
BRANCH  25  33
ATOM     32  C   UNL     1      -3.698  12.970  20.590  0.00  0.00    +0.000 C 
ATOM     33  O   UNL     1      -2.304  13.120  20.352  0.00  0.00    +0.000 OA
ENDBRANCH  25  33
ENDBRANCH  24  28
ENDBRANCH  22  24
ENDBRANCH   1  22
TORSDOF 7
ENDMDL
MODEL 7
REMARK VINA RESULT:      -8.2      1.725      2.080
REMARK  Name = 
REMARK  8 active torsions:
REMARK  status: ('A' for Active; 'I' for Inactive)
REMARK    1  A    between atoms: C_1  and  O_2
REMARK    2  A    between atoms: O_2  and  C_3
REMARK    3  A    between atoms: C_6  and  C_7
REMARK    4  A    between atoms: C_7  and  N_8
REMARK    5  A    between atoms: N_8  and  C_9
REMARK    6  A    between atoms: C_12  and  N_13
REMARK    7  A    between atoms: C_16  and  O_17
REMARK    8  A    between atoms: C_23  and  N_24
REMARK                            x       y       z     vdW  Elec       q    Type
REMARK                         _______ _______ _______ _____ _____    ______ ____
ROOT
ATOM      1  C   UNL     1       2.153   7.748  19.143  0.00  0.00    +0.000 A 
ATOM      2  N   UNL     1       2.721   8.581  18.258  0.00  0.00    +0.000 NA
ATOM      3  N   UNL     1       3.732   8.142  17.423  0.00  0.00    +0.000 NA
ATOM      4  C   UNL     1       4.215   6.880  17.475  0.00  0.00    +0.000 A 
ATOM      5  C   UNL     1       3.634   5.961  18.393  0.00  0.00    +0.000 A 
ATOM      6  C   UNL     1       4.021   4.599  18.513  0.00  0.00    +0.000 A 
ATOM      7  C   UNL     1       3.489   3.740  19.478  0.00  0.00    +0.000 A 
ATOM      8  C   UNL     1       2.470   4.198  20.299  0.00  0.00    +0.000 A 
ATOM      9  C   UNL     1       1.999   5.505  20.168  0.00  0.00    +0.000 A 
ATOM     10  C   UNL     1       2.577   6.408  19.232  0.00  0.00    +0.000 A 
ENDROOT
BRANCH   4  11
ATOM     11  N   UNL     1       5.242   6.546  16.598  0.00  0.00    +0.000 N 
ATOM     12  C   UNL     1       6.611   6.512  17.117  0.00  0.00    +0.000 C 
ATOM     13  C   UNL     1       7.238   5.129  16.962  0.00  0.00    +0.000 C 
ATOM     14  C   UNL     1       7.092   4.591  15.544  0.00  0.00    +0.000 C 
ATOM     15  C   UNL     1       5.636   4.609  15.102  0.00  0.00    +0.000 C 
ATOM     16  C   UNL     1       4.992   5.977  15.276  0.00  0.00    +0.000 C 
BRANCH  14  17
ATOM     17  O   UNL     1       7.909   5.316  14.626  0.00  0.00    +0.000 OA
ATOM     18  H   UNL     1       7.365   5.628  13.886  0.00  0.00    +0.000 HD
ENDBRANCH  14  17
ENDBRANCH   4  11
BRANCH   8  19
ATOM     19  N   UNL     1       1.893   3.292  21.301  0.00  0.00    +0.000 N 
ATOM     20  O   UNL     1       0.735   2.901  21.122  0.00  0.00    +0.000 OA
ATOM     21  O   UNL     1       2.606   2.969  22.262  0.00  0.00    +0.000 OA
ENDBRANCH   8  19
BRANCH   1  22
ATOM     22  N   UNL     1       1.105   8.196  19.974  0.00  0.00    +0.000 N 
ATOM     23  H   UNL     1       0.220   7.876  19.584  0.00  0.00    +0.000 HD
BRANCH  22  24
ATOM     24  C   UNL     1       1.087   9.626  20.247  0.00  0.00    +0.000 C 
BRANCH  24  28
ATOM     25  C   UNL     1      -2.557  11.408  18.656  0.00  0.00    +0.000 A 
ATOM     26  C   UNL     1      -2.010  11.840  19.871  0.00  0.00    +0.000 A 
ATOM     27  C   UNL     1      -0.855  11.251  20.397  0.00  0.00    +0.000 A 
ATOM     28  C   UNL     1      -0.211  10.209  19.716  0.00  0.00    +0.000 A 
ATOM     29  C   UNL     1      -0.754   9.780  18.498  0.00  0.00    +0.000 A 
ATOM     30  C   UNL     1      -1.911  10.376  17.963  0.00  0.00    +0.000 A 
ATOM     31 CL   UNL     1      -2.386   9.812  16.399  0.00  0.00    +0.000 Cl
BRANCH  25  33
ATOM     32  C   UNL     1      -4.895  11.848  18.855  0.00  0.00    +0.000 C 
ATOM     33  O   UNL     1      -3.638  12.150  18.262  0.00  0.00    +0.000 OA
ENDBRANCH  25  33
ENDBRANCH  24  28
ENDBRANCH  22  24
ENDBRANCH   1  22
TORSDOF 7
ENDMDL
MODEL 8
REMARK VINA RESULT:      -8.2      1.649      1.832
REMARK  Name = 
REMARK  8 active torsions:
REMARK  status: ('A' for Active; 'I' for Inactive)
REMARK    1  A    between atoms: C_1  and  O_2
REMARK    2  A    between atoms: O_2  and  C_3
REMARK    3  A    between atoms: C_6  and  C_7
REMARK    4  A    between atoms: C_7  and  N_8
REMARK    5  A    between atoms: N_8  and  C_9
REMARK    6  A    between atoms: C_12  and  N_13
REMARK    7  A    between atoms: C_16  and  O_17
REMARK    8  A    between atoms: C_23  and  N_24
REMARK                            x       y       z     vdW  Elec       q    Type
REMARK                         _______ _______ _______ _____ _____    ______ ____
ROOT
ATOM      1  C   UNL     1       2.114   7.346  19.431  0.00  0.00    +0.000 A 
ATOM      2  N   UNL     1       2.593   8.248  18.561  0.00  0.00    +0.000 NA
ATOM      3  N   UNL     1       3.608   7.914  17.684  0.00  0.00    +0.000 NA
ATOM      4  C   UNL     1       4.184   6.691  17.678  0.00  0.00    +0.000 A 
ATOM      5  C   UNL     1       3.701   5.701  18.577  0.00  0.00    +0.000 A 
ATOM      6  C   UNL     1       4.190   4.368  18.638  0.00  0.00    +0.000 A 
ATOM      7  C   UNL     1       3.752   3.440  19.585  0.00  0.00    +0.000 A 
ATOM      8  C   UNL     1       2.728   3.793  20.450  0.00  0.00    +0.000 A 
ATOM      9  C   UNL     1       2.158   5.064  20.378  0.00  0.00    +0.000 A 
ATOM     10  C   UNL     1       2.639   6.039  19.461  0.00  0.00    +0.000 A 
ENDROOT
BRANCH   4  11
ATOM     11  N   UNL     1       5.207   6.465  16.762  0.00  0.00    +0.000 N 
ATOM     12  C   UNL     1       6.586   6.454  17.253  0.00  0.00    +0.000 C 
ATOM     13  C   UNL     1       7.267   5.114  16.989  0.00  0.00    +0.000 C 
ATOM     14  C   UNL     1       7.116   4.671  15.539  0.00  0.00    +0.000 C 
ATOM     15  C   UNL     1       5.652   4.657  15.124  0.00  0.00    +0.000 C 
ATOM     16  C   UNL     1       4.954   5.980  15.407  0.00  0.00    +0.000 C 
BRANCH  14  17
ATOM     17  O   UNL     1       7.883   5.494  14.662  0.00  0.00    +0.000 OA
ATOM     18  H   UNL     1       7.990   5.044  13.808  0.00  0.00    +0.000 HD
ENDBRANCH  14  17
ENDBRANCH   4  11
BRANCH   8  19
ATOM     19  N   UNL     1       2.249   2.812  21.434  0.00  0.00    +0.000 N 
ATOM     20  O   UNL     1       3.096   2.157  22.050  0.00  0.00    +0.000 OA
ATOM     21  O   UNL     1       1.025   2.706  21.590  0.00  0.00    +0.000 OA
ENDBRANCH   8  19
BRANCH   1  22
ATOM     22  N   UNL     1       1.062   7.685  20.306  0.00  0.00    +0.000 N 
ATOM     23  H   UNL     1       0.203   7.770  19.765  0.00  0.00    +0.000 HD
BRANCH  22  24
ATOM     24  C   UNL     1       1.290   8.857  21.140  0.00  0.00    +0.000 C 
BRANCH  24  28
ATOM     25  C   UNL     1      -0.355  12.311  19.055  0.00  0.00    +0.000 A 
ATOM     26  C   UNL     1       0.813  12.416  19.821  0.00  0.00    +0.000 A 
ATOM     27  C   UNL     1       1.328  11.314  20.513  0.00  0.00    +0.000 A 
ATOM     28  C   UNL     1       0.686  10.070  20.454  0.00  0.00    +0.000 A 
ATOM     29  C   UNL     1      -0.480   9.963  19.685  0.00  0.00    +0.000 A 
ATOM     30  C   UNL     1      -0.996  11.068  18.982  0.00  0.00    +0.000 A 
ATOM     31 CL   UNL     1      -2.373  10.742  17.988  0.00  0.00    +0.000 Cl
BRANCH  25  33
ATOM     32  C   UNL     1      -0.365  14.698  19.035  0.00  0.00    +0.000 C 
ATOM     33  O   UNL     1      -0.664  13.467  18.389  0.00  0.00    +0.000 OA
ENDBRANCH  25  33
ENDBRANCH  24  28
ENDBRANCH  22  24
ENDBRANCH   1  22
TORSDOF 7
ENDMDL
MODEL 9
REMARK VINA RESULT:      -8.2      5.303      8.120
REMARK  Name = 
REMARK  8 active torsions:
REMARK  status: ('A' for Active; 'I' for Inactive)
REMARK    1  A    between atoms: C_1  and  O_2
REMARK    2  A    between atoms: O_2  and  C_3
REMARK    3  A    between atoms: C_6  and  C_7
REMARK    4  A    between atoms: C_7  and  N_8
REMARK    5  A    between atoms: N_8  and  C_9
REMARK    6  A    between atoms: C_12  and  N_13
REMARK    7  A    between atoms: C_16  and  O_17
REMARK    8  A    between atoms: C_23  and  N_24
REMARK                            x       y       z     vdW  Elec       q    Type
REMARK                         _______ _______ _______ _____ _____    ______ ____
ROOT
ATOM      1  C   UNL     1       6.356   6.809  17.354  0.00  0.00    +0.000 A 
ATOM      2  N   UNL     1       5.572   6.720  18.439  0.00  0.00    +0.000 NA
ATOM      3  N   UNL     1       4.672   5.681  18.578  0.00  0.00    +0.000 NA
ATOM      4  C   UNL     1       4.513   4.731  17.628  0.00  0.00    +0.000 A 
ATOM      5  C   UNL     1       5.331   4.781  16.465  0.00  0.00    +0.000 A 
ATOM      6  C   UNL     1       5.293   3.821  15.418  0.00  0.00    +0.000 A 
ATOM      7  C   UNL     1       6.050   3.939  14.251  0.00  0.00    +0.000 A 
ATOM      8  C   UNL     1       6.953   4.985  14.137  0.00  0.00    +0.000 A 
ATOM      9  C   UNL     1       7.086   5.911  15.172  0.00  0.00    +0.000 A 
ATOM     10  C   UNL     1       6.275   5.838  16.338  0.00  0.00    +0.000 A 
ENDROOT
BRANCH   4  11
ATOM     11  N   UNL     1       3.569   3.736  17.862  0.00  0.00    +0.000 N 
ATOM     12  C   UNL     1       3.954   2.602  18.705  0.00  0.00    +0.000 C 
ATOM     13  C   UNL     1       3.063   2.490  19.939  0.00  0.00    +0.000 C 
ATOM     14  C   UNL     1       1.582   2.529  19.580  0.00  0.00    +0.000 C 
ATOM     15  C   UNL     1       1.256   3.763  18.753  0.00  0.00    +0.000 C 
ATOM     16  C   UNL     1       2.156   3.901  17.533  0.00  0.00    +0.000 C 
BRANCH  14  17
ATOM     17  O   UNL     1       1.181   1.341  18.900  0.00  0.00    +0.000 OA
ATOM     18  H   UNL     1       0.389   1.525  18.370  0.00  0.00    +0.000 HD
ENDBRANCH  14  17
ENDBRANCH   4  11
BRANCH   8  19
ATOM     19  N   UNL     1       7.768   5.100  12.919  0.00  0.00    +0.000 N 
ATOM     20  O   UNL     1       7.422   4.442  11.933  0.00  0.00    +0.000 OA
ATOM     21  O   UNL     1       8.749   5.856  12.954  0.00  0.00    +0.000 OA
ENDBRANCH   8  19
BRANCH   1  22
ATOM     22  N   UNL     1       7.290   7.858  17.231  0.00  0.00    +0.000 N 
ATOM     23  H   UNL     1       7.734   7.793  16.317  0.00  0.00    +0.000 HD
BRANCH  22  24
ATOM     24  C   UNL     1       8.273   7.953  18.302  0.00  0.00    +0.000 C 
BRANCH  24  28
ATOM     25  C   UNL     1       9.326  12.141  18.883  0.00  0.00    +0.000 A 
ATOM     26  C   UNL     1       9.921  11.131  19.650  0.00  0.00    +0.000 A 
ATOM     27  C   UNL     1       9.565   9.788  19.483  0.00  0.00    +0.000 A 
ATOM     28  C   UNL     1       8.600   9.417  18.538  0.00  0.00    +0.000 A 
ATOM     29  C   UNL     1       8.007  10.425  17.767  0.00  0.00    +0.000 A 
ATOM     30  C   UNL     1       8.369  11.777  17.927  0.00  0.00    +0.000 A 
ATOM     31 CL   UNL     1       7.632  12.882  16.821  0.00  0.00    +0.000 Cl
BRANCH  25  33
ATOM     32  C   UNL     1      11.148  13.658  18.610  0.00  0.00    +0.000 C 
ATOM     33  O   UNL     1       9.854  13.380  19.129  0.00  0.00    +0.000 OA
ENDBRANCH  25  33
ENDBRANCH  24  28
ENDBRANCH  22  24
ENDBRANCH   1  22
TORSDOF 7
ENDMDL
