MODEL 1
REMARK VINA RESULT:      -8.4      0.000      0.000
REMARK  Name = 
REMARK  12 active torsions:
REMARK  status: ('A' for Active; 'I' for Inactive)
REMARK    1  A    between atoms: C_1  and  C_2
REMARK    2  A    between atoms: C_2  and  C_3
REMARK    3  A    between atoms: C_3  and  C_4
REMARK    4  A    between atoms: C_9  and  C_10
REMARK    5  A    between atoms: C_10  and  C_11
REMARK    6  A    between atoms: C_11  and  C_12
REMARK    7  A    between atoms: C_14  and  N_15
REMARK    8  A    between atoms: N_15  and  C_16
REMARK    9  A    between atoms: C_16  and  C_17
REMARK   10  A    between atoms: C_17  and  O_18
REMARK   11  A    between atoms: C_17  and  C_19
REMARK   12  A    between atoms: C_22  and  O_23
REMARK                            x       y       z     vdW  Elec       q    Type
REMARK                         _______ _______ _______ _____ _____    ______ ____
ROOT
ATOM      1  C   UNL     1       3.392   2.243  17.693  0.00  0.00    +0.000 C 
ENDROOT
BRANCH   1   2
ATOM      2  N   UNL     1       2.309   2.286  18.703  0.00  0.00    +0.000 NA
ATOM      3  H   UNL     1       1.581   1.623  18.435  0.00  0.00    +0.000 HD
BRANCH   2  11
ATOM      4  C   UNL     1       1.574   8.061  20.351  0.00  0.00    +0.000 A 
ATOM      5  C   UNL     1       1.529   6.730  20.809  0.00  0.00    +0.000 A 
ATOM      6  C   UNL     1       1.756   5.697  19.926  0.00  0.00    +0.000 A 
ATOM      7  C   UNL     1       1.996   5.937  18.580  0.00  0.00    +0.000 A 
ATOM      8  C   UNL     1       1.991   7.225  18.087  0.00  0.00    +0.000 A 
ATOM      9  C   UNL     1       1.794   8.315  18.966  0.00  0.00    +0.000 A 
ATOM     10  C   UNL     1       2.284   4.664  17.842  0.00  0.00    +0.000 C 
ATOM     11  C   UNL     1       1.709   3.623  18.828  0.00  0.00    +0.000 C 
ATOM     12  C   UNL     1       1.839   4.245  20.240  0.00  0.00    +0.000 C 
BRANCH   4  13
ATOM     13  C   UNL     1       1.399   9.132  21.407  0.00  0.00    +0.000 C 
BRANCH  13  15
ATOM     14  C   UNL     1      -0.169   9.584  23.347  0.00  0.00    +0.000 C 
ATOM     15  C   UNL     1      -0.064   9.240  21.871  0.00  0.00    +0.000 C 
ENDBRANCH  13  15
ENDBRANCH   4  13
BRANCH   9  16
ATOM     16  C   UNL     1       1.881   9.695  18.349  0.00  0.00    +0.000 C 
BRANCH  16  17
ATOM     17  C   UNL     1       0.690  10.619  18.630  0.00  0.00    +0.000 C 
ATOM     18  C   UNL     1      -0.622  10.148  18.025  0.00  0.00    +0.000 C 
ENDBRANCH  16  17
ENDBRANCH   9  16
ENDBRANCH   2  11
ENDBRANCH   1   2
BRANCH   1  19
ATOM     19  C   UNL     1       4.823   2.489  18.256  0.00  0.00    +0.000 C 
BRANCH  19  20
ATOM     20  C   UNL     1       5.535   3.787  17.938  0.00  0.00    +0.000 A 
ATOM     21  C   UNL     1       5.673   4.660  19.047  0.00  0.00    +0.000 A 
ATOM     22  C   UNL     1       6.300   5.897  18.948  0.00  0.00    +0.000 A 
ATOM     23  C   UNL     1       6.844   6.269  17.732  0.00  0.00    +0.000 A 
ATOM     24  C   UNL     1       6.698   5.443  16.614  0.00  0.00    +0.000 A 
ATOM     25  N   UNL     1       7.312   5.839  15.415  0.00  0.00    +0.000 N 
ATOM     26  C   UNL     1       7.240   5.132  14.251  0.00  0.00    +0.000 A 
ATOM     27  O   UNL     1       7.855   5.434  13.239  0.00  0.00    +0.000 OA
ATOM     28  C   UNL     1       6.301   3.984  14.254  0.00  0.00    +0.000 A 
ATOM     29  C   UNL     1       5.697   3.582  15.388  0.00  0.00    +0.000 A 
ATOM     30  C   UNL     1       5.983   4.233  16.678  0.00  0.00    +0.000 A 
ATOM     31  H   UNL     1       7.890   6.670  15.431  0.00  0.00    +0.000 HD
BRANCH  23  32
ATOM     32  O   UNL     1       7.504   7.459  17.596  0.00  0.00    +0.000 OA
ATOM     33  H   UNL     1       8.336   7.409  18.096  0.00  0.00    +0.000 HD
ENDBRANCH  23  32
ENDBRANCH  19  20
BRANCH  19  34
ATOM     34  O   UNL     1       4.924   2.363  19.675  0.00  0.00    +0.000 OA
ATOM     35  H   UNL     1       5.580   3.001  19.986  0.00  0.00    +0.000 HD
ENDBRANCH  19  34
ENDBRANCH   1  19
TORSDOF 10
ENDMDL
MODEL 2
REMARK VINA RESULT:      -7.9      1.049      2.550
REMARK  Name = 
REMARK  12 active torsions:
REMARK  status: ('A' for Active; 'I' for Inactive)
REMARK    1  A    between atoms: C_1  and  C_2
REMARK    2  A    between atoms: C_2  and  C_3
REMARK    3  A    between atoms: C_3  and  C_4
REMARK    4  A    between atoms: C_9  and  C_10
REMARK    5  A    between atoms: C_10  and  C_11
REMARK    6  A    between atoms: C_11  and  C_12
REMARK    7  A    between atoms: C_14  and  N_15
REMARK    8  A    between atoms: N_15  and  C_16
REMARK    9  A    between atoms: C_16  and  C_17
REMARK   10  A    between atoms: C_17  and  O_18
REMARK   11  A    between atoms: C_17  and  C_19
REMARK   12  A    between atoms: C_22  and  O_23
REMARK                            x       y       z     vdW  Elec       q    Type
REMARK                         _______ _______ _______ _____ _____    ______ ____
ROOT
ATOM      1  C   UNL     1       3.006   3.251  18.838  0.00  0.00    +0.000 C 
ENDROOT
BRANCH   1   2
ATOM      2  N   UNL     1       2.480   4.383  18.039  0.00  0.00    +0.000 NA
ATOM      3  H   UNL     1       2.995   4.434  17.159  0.00  0.00    +0.000 HD
BRANCH   2  11
ATOM      4  C   UNL     1       1.088   9.899  20.098  0.00  0.00    +0.000 A 
ATOM      5  C   UNL     1       1.453   9.169  18.951  0.00  0.00    +0.000 A 
ATOM      6  C   UNL     1       1.722   7.822  19.056  0.00  0.00    +0.000 A 
ATOM      7  C   UNL     1       1.675   7.170  20.281  0.00  0.00    +0.000 A 
ATOM      8  C   UNL     1       1.376   7.866  21.434  0.00  0.00    +0.000 A 
ATOM      9  C   UNL     1       1.062   9.243  21.363  0.00  0.00    +0.000 A 
ATOM     10  C   UNL     1       1.934   5.702  20.128  0.00  0.00    +0.000 C 
ATOM     11  C   UNL     1       2.607   5.672  18.737  0.00  0.00    +0.000 C 
ATOM     12  C   UNL     1       2.032   6.876  17.951  0.00  0.00    +0.000 C 
BRANCH   4  13
ATOM     13  C   UNL     1       0.726  11.352  19.872  0.00  0.00    +0.000 C 
BRANCH  13  15
ATOM     14  C   UNL     1      -0.632  12.860  18.354  0.00  0.00    +0.000 C 
ATOM     15  C   UNL     1      -0.543  11.496  19.015  0.00  0.00    +0.000 C 
ENDBRANCH  13  15
ENDBRANCH   4  13
BRANCH   9  16
ATOM     16  C   UNL     1       0.672   9.907  22.667  0.00  0.00    +0.000 C 
BRANCH  16  17
ATOM     17  C   UNL     1      -0.836  10.014  22.928  0.00  0.00    +0.000 C 
ATOM     18  C   UNL     1      -1.356  11.439  23.015  0.00  0.00    +0.000 C 
ENDBRANCH  16  17
ENDBRANCH   9  16
ENDBRANCH   2  11
ENDBRANCH   1   2
BRANCH   1  19
ATOM     19  C   UNL     1       4.513   2.932  18.609  0.00  0.00    +0.000 C 
BRANCH  19  20
ATOM     20  C   UNL     1       5.466   4.056  18.260  0.00  0.00    +0.000 A 
ATOM     21  C   UNL     1       5.890   4.825  19.375  0.00  0.00    +0.000 A 
ATOM     22  C   UNL     1       6.767   5.896  19.250  0.00  0.00    +0.000 A 
ATOM     23  C   UNL     1       7.274   6.195  17.998  0.00  0.00    +0.000 A 
ATOM     24  C   UNL     1       6.853   5.475  16.878  0.00  0.00    +0.000 A 
ATOM     25  N   UNL     1       7.435   5.781  15.637  0.00  0.00    +0.000 N 
ATOM     26  C   UNL     1       7.107   5.162  14.467  0.00  0.00    +0.000 A 
ATOM     27  O   UNL     1       7.685   5.368  13.410  0.00  0.00    +0.000 OA
ATOM     28  C   UNL     1       5.939   4.250  14.527  0.00  0.00    +0.000 A 
ATOM     29  C   UNL     1       5.360   3.939  15.703  0.00  0.00    +0.000 A 
ATOM     30  C   UNL     1       5.893   4.450  16.976  0.00  0.00    +0.000 A 
ATOM     31  H   UNL     1       8.183   6.463  15.621  0.00  0.00    +0.000 HD
BRANCH  23  32
ATOM     32  O   UNL     1       8.169   7.216  17.833  0.00  0.00    +0.000 OA
ATOM     33  H   UNL     1       9.065   6.867  17.978  0.00  0.00    +0.000 HD
ENDBRANCH  23  32
ENDBRANCH  19  20
BRANCH  19  34
ATOM     34  O   UNL     1       5.139   2.256  19.700  0.00  0.00    +0.000 OA
ATOM     35  H   UNL     1       4.481   1.681  20.113  0.00  0.00    +0.000 HD
ENDBRANCH  19  34
ENDBRANCH   1  19
TORSDOF 10
ENDMDL
MODEL 3
REMARK VINA RESULT:      -7.9      1.227      3.429
REMARK  Name = 
REMARK  12 active torsions:
REMARK  status: ('A' for Active; 'I' for Inactive)
REMARK    1  A    between atoms: C_1  and  C_2
REMARK    2  A    between atoms: C_2  and  C_3
REMARK    3  A    between atoms: C_3  and  C_4
REMARK    4  A    between atoms: C_9  and  C_10
REMARK    5  A    between atoms: C_10  and  C_11
REMARK    6  A    between atoms: C_11  and  C_12
REMARK    7  A    between atoms: C_14  and  N_15
REMARK    8  A    between atoms: N_15  and  C_16
REMARK    9  A    between atoms: C_16  and  C_17
REMARK   10  A    between atoms: C_17  and  O_18
REMARK   11  A    between atoms: C_17  and  C_19
REMARK   12  A    between atoms: C_22  and  O_23
REMARK                            x       y       z     vdW  Elec       q    Type
REMARK                         _______ _______ _______ _____ _____    ______ ____
ROOT
ATOM      1  C   UNL     1       2.640   3.894  17.761  0.00  0.00    +0.000 C 
ENDROOT
BRANCH   1   2
ATOM      2  N   UNL     1       2.605   4.155  19.218  0.00  0.00    +0.000 NA
ATOM      3  H   UNL     1       1.730   3.791  19.598  0.00  0.00    +0.000 HD
BRANCH   2  11
ATOM      4  C   UNL     1       1.226  10.042  19.411  0.00  0.00    +0.000 A 
ATOM      5  C   UNL     1       1.710   9.011  18.583  0.00  0.00    +0.000 A 
ATOM      6  C   UNL     1       1.891   7.748  19.102  0.00  0.00    +0.000 A 
ATOM      7  C   UNL     1       1.639   7.474  20.439  0.00  0.00    +0.000 A 
ATOM      8  C   UNL     1       1.217   8.473  21.292  0.00  0.00    +0.000 A 
ATOM      9  C   UNL     1       0.988   9.776  20.791  0.00  0.00    +0.000 A 
ATOM     10  C   UNL     1       1.840   6.020  20.746  0.00  0.00    +0.000 C 
ATOM     11  C   UNL     1       2.700   5.588  19.537  0.00  0.00    +0.000 C 
ATOM     12  C   UNL     1       2.304   6.523  18.367  0.00  0.00    +0.000 C 
BRANCH   4  13
ATOM     13  C   UNL     1       0.975  11.374  18.734  0.00  0.00    +0.000 C 
BRANCH  13  15
ATOM     14  C   UNL     1      -0.964  12.975  18.419  0.00  0.00    +0.000 C 
ATOM     15  C   UNL     1      -0.497  11.533  18.319  0.00  0.00    +0.000 C 
ENDBRANCH  13  15
ENDBRANCH   4  13
BRANCH   9  16
ATOM     16  C   UNL     1       0.454  10.788  21.782  0.00  0.00    +0.000 C 
BRANCH  16  17
ATOM     17  C   UNL     1      -1.071  10.955  21.797  0.00  0.00    +0.000 C 
ATOM     18  C   UNL     1      -1.630  11.476  23.110  0.00  0.00    +0.000 C 
ENDBRANCH  16  17
ENDBRANCH   9  16
ENDBRANCH   2  11
ENDBRANCH   1   2
BRANCH   1  19
ATOM     19  C   UNL     1       3.879   3.090  17.268  0.00  0.00    +0.000 C 
BRANCH  19  20
ATOM     20  C   UNL     1       5.006   3.817  16.564  0.00  0.00    +0.000 A 
ATOM     21  C   UNL     1       5.145   3.482  15.192  0.00  0.00    +0.000 A 
ATOM     22  C   UNL     1       6.123   4.050  14.383  0.00  0.00    +0.000 A 
ATOM     23  C   UNL     1       6.962   5.005  14.928  0.00  0.00    +0.000 A 
ATOM     24  C   UNL     1       6.868   5.333  16.282  0.00  0.00    +0.000 A 
ATOM     25  N   UNL     1       7.707   6.346  16.777  0.00  0.00    +0.000 N 
ATOM     26  C   UNL     1       7.722   6.755  18.077  0.00  0.00    +0.000 A 
ATOM     27  O   UNL     1       8.386   7.700  18.479  0.00  0.00    +0.000 OA
ATOM     28  C   UNL     1       6.925   5.935  19.020  0.00  0.00    +0.000 A 
ATOM     29  C   UNL     1       6.112   4.957  18.575  0.00  0.00    +0.000 A 
ATOM     30  C   UNL     1       5.946   4.698  17.135  0.00  0.00    +0.000 A 
ATOM     31  H   UNL     1       8.293   6.840  16.116  0.00  0.00    +0.000 HD
BRANCH  23  32
ATOM     32  O   UNL     1       7.913   5.618  14.160  0.00  0.00    +0.000 OA
ATOM     33  H   UNL     1       8.218   4.989  13.485  0.00  0.00    +0.000 HD
ENDBRANCH  23  32
ENDBRANCH  19  20
BRANCH  19  34
ATOM     34  O   UNL     1       4.526   2.329  18.288  0.00  0.00    +0.000 OA
ATOM     35  H   UNL     1       5.083   1.665  17.859  0.00  0.00    +0.000 HD
ENDBRANCH  19  34
ENDBRANCH   1  19
TORSDOF 10
ENDMDL
MODEL 4
REMARK VINA RESULT:      -7.8      5.320      9.398
REMARK  Name = 
REMARK  12 active torsions:
REMARK  status: ('A' for Active; 'I' for Inactive)
REMARK    1  A    between atoms: C_1  and  C_2
REMARK    2  A    between atoms: C_2  and  C_3
REMARK    3  A    between atoms: C_3  and  C_4
REMARK    4  A    between atoms: C_9  and  C_10
REMARK    5  A    between atoms: C_10  and  C_11
REMARK    6  A    between atoms: C_11  and  C_12
REMARK    7  A    between atoms: C_14  and  N_15
REMARK    8  A    between atoms: N_15  and  C_16
REMARK    9  A    between atoms: C_16  and  C_17
REMARK   10  A    between atoms: C_17  and  O_18
REMARK   11  A    between atoms: C_17  and  C_19
REMARK   12  A    between atoms: C_22  and  O_23
REMARK                            x       y       z     vdW  Elec       q    Type
REMARK                         _______ _______ _______ _____ _____    ______ ____
ROOT
ATOM      1  C   UNL     1      -0.826  10.644  20.000  0.00  0.00    +0.000 C 
ENDROOT
BRANCH   1   2
ATOM      2  N   UNL     1       0.488  10.852  20.652  0.00  0.00    +0.000 NA
ATOM      3  H   UNL     1       0.932  11.676  20.246  0.00  0.00    +0.000 HD
BRANCH   2  11
ATOM      4  C   UNL     1       2.337   5.145  19.866  0.00  0.00    +0.000 A 
ATOM      5  C   UNL     1       1.774   6.044  20.792  0.00  0.00    +0.000 A 
ATOM      6  C   UNL     1       1.587   7.361  20.437  0.00  0.00    +0.000 A 
ATOM      7  C   UNL     1       1.973   7.835  19.191  0.00  0.00    +0.000 A 
ATOM      8  C   UNL     1       2.579   6.995  18.280  0.00  0.00    +0.000 A 
ATOM      9  C   UNL     1       2.760   5.628  18.593  0.00  0.00    +0.000 A 
ATOM     10  C   UNL     1       1.601   9.276  19.016  0.00  0.00    +0.000 C 
ATOM     11  C   UNL     1       1.388   9.699  20.486  0.00  0.00    +0.000 C 
ATOM     12  C   UNL     1       0.930   8.427  21.241  0.00  0.00    +0.000 C 
BRANCH   4  13
ATOM     13  C   UNL     1       2.424   3.700  20.312  0.00  0.00    +0.000 C 
BRANCH  13  15
ATOM     14  C   UNL     1       0.801   2.401  18.862  0.00  0.00    +0.000 C 
ATOM     15  C   UNL     1       1.058   2.997  20.235  0.00  0.00    +0.000 C 
ENDBRANCH  13  15
ENDBRANCH   4  13
BRANCH   9  16
ATOM     16  C   UNL     1       3.363   4.767  17.504  0.00  0.00    +0.000 C 
BRANCH  16  17
ATOM     17  C   UNL     1       4.870   4.945  17.282  0.00  0.00    +0.000 C 
ATOM     18  C   UNL     1       5.712   4.768  18.534  0.00  0.00    +0.000 C 
ENDBRANCH  16  17
ENDBRANCH   9  16
ENDBRANCH   2  11
ENDBRANCH   1   2
BRANCH   1  19
ATOM     19  C   UNL     1      -1.648  11.943  19.753  0.00  0.00    +0.000 C 
BRANCH  19  20
ATOM     20  C   UNL     1      -2.943  11.866  18.972  0.00  0.00    +0.000 A 
ATOM     21  C   UNL     1      -4.061  12.419  19.648  0.00  0.00    +0.000 A 
ATOM     22  C   UNL     1      -5.334  12.440  19.088  0.00  0.00    +0.000 A 
ATOM     23  C   UNL     1      -5.503  11.941  17.809  0.00  0.00    +0.000 A 
ATOM     24  C   UNL     1      -4.427  11.364  17.130  0.00  0.00    +0.000 A 
ATOM     25  N   UNL     1      -4.637  10.919  15.815  0.00  0.00    +0.000 N 
ATOM     26  C   UNL     1      -3.676  10.330  15.047  0.00  0.00    +0.000 A 
ATOM     27  O   UNL     1      -3.840  10.032  13.873  0.00  0.00    +0.000 OA
ATOM     28  C   UNL     1      -2.409  10.000  15.743  0.00  0.00    +0.000 A 
ATOM     29  C   UNL     1      -2.180  10.413  17.004  0.00  0.00    +0.000 A 
ATOM     30  C   UNL     1      -3.155  11.250  17.723  0.00  0.00    +0.000 A 
ATOM     31  H   UNL     1      -5.540  11.098  15.393  0.00  0.00    +0.000 HD
BRANCH  23  32
ATOM     32  O   UNL     1      -6.729  11.976  17.203  0.00  0.00    +0.000 OA
ATOM     33  H   UNL     1      -7.039  11.064  17.082  0.00  0.00    +0.000 HD
ENDBRANCH  23  32
ENDBRANCH  19  20
BRANCH  19  34
ATOM     34  O   UNL     1      -1.987  12.656  20.942  0.00  0.00    +0.000 OA
ATOM     35  H   UNL     1      -2.923  12.895  20.891  0.00  0.00    +0.000 HD
ENDBRANCH  19  34
ENDBRANCH   1  19
TORSDOF 10
ENDMDL
MODEL 5
REMARK VINA RESULT:      -7.8      1.349      1.987
REMARK  Name = 
REMARK  12 active torsions:
REMARK  status: ('A' for Active; 'I' for Inactive)
REMARK    1  A    between atoms: C_1  and  C_2
REMARK    2  A    between atoms: C_2  and  C_3
REMARK    3  A    between atoms: C_3  and  C_4
REMARK    4  A    between atoms: C_9  and  C_10
REMARK    5  A    between atoms: C_10  and  C_11
REMARK    6  A    between atoms: C_11  and  C_12
REMARK    7  A    between atoms: C_14  and  N_15
REMARK    8  A    between atoms: N_15  and  C_16
REMARK    9  A    between atoms: C_16  and  C_17
REMARK   10  A    between atoms: C_17  and  O_18
REMARK   11  A    between atoms: C_17  and  C_19
REMARK   12  A    between atoms: C_22  and  O_23
REMARK                            x       y       z     vdW  Elec       q    Type
REMARK                         _______ _______ _______ _____ _____    ______ ____
ROOT
ATOM      1  C   UNL     1       2.992   3.859  18.706  0.00  0.00    +0.000 C 
ENDROOT
BRANCH   1   2
ATOM      2  N   UNL     1       2.960   4.722  19.910  0.00  0.00    +0.000 NA
ATOM      3  H   UNL     1       2.634   4.169  20.704  0.00  0.00    +0.000 HD
BRANCH   2  11
ATOM      4  C   UNL     1       0.647  10.262  20.653  0.00  0.00    +0.000 A 
ATOM      5  C   UNL     1       0.789   8.996  21.253  0.00  0.00    +0.000 A 
ATOM      6  C   UNL     1       1.425   7.985  20.568  0.00  0.00    +0.000 A 
ATOM      7  C   UNL     1       1.901   8.174  19.278  0.00  0.00    +0.000 A 
ATOM      8  C   UNL     1       1.729   9.385  18.639  0.00  0.00    +0.000 A 
ATOM      9  C   UNL     1       1.110  10.459  19.320  0.00  0.00    +0.000 A 
ATOM     10  C   UNL     1       2.615   6.956  18.775  0.00  0.00    +0.000 C 
ATOM     11  C   UNL     1       2.073   5.884  19.746  0.00  0.00    +0.000 C 
ATOM     12  C   UNL     1       1.747   6.621  21.068  0.00  0.00    +0.000 C 
BRANCH   4  13
ATOM     13  C   UNL     1       0.014  11.336  21.513  0.00  0.00    +0.000 C 
BRANCH  13  15
ATOM     14  C   UNL     1      -1.875  11.527  23.192  0.00  0.00    +0.000 C 
ATOM     15  C   UNL     1      -0.644  10.744  22.772  0.00  0.00    +0.000 C 
ENDBRANCH  13  15
ENDBRANCH   4  13
BRANCH   9  16
ATOM     16  C   UNL     1       1.033  11.771  18.568  0.00  0.00    +0.000 C 
BRANCH  16  17
ATOM     17  C   UNL     1       2.381  12.370  18.146  0.00  0.00    +0.000 C 
ATOM     18  C   UNL     1       2.435  13.887  18.203  0.00  0.00    +0.000 C 
ENDBRANCH  16  17
ENDBRANCH   9  16
ENDBRANCH   2  11
ENDBRANCH   1   2
BRANCH   1  19
ATOM     19  C   UNL     1       4.413   3.392  18.272  0.00  0.00    +0.000 C 
BRANCH  19  20
ATOM     20  C   UNL     1       5.398   4.408  17.732  0.00  0.00    +0.000 A 
ATOM     21  C   UNL     1       5.860   5.339  18.698  0.00  0.00    +0.000 A 
ATOM     22  C   UNL     1       6.769   6.344  18.388  0.00  0.00    +0.000 A 
ATOM     23  C   UNL     1       7.270   6.411  17.100  0.00  0.00    +0.000 A 
ATOM     24  C   UNL     1       6.811   5.527  16.120  0.00  0.00    +0.000 A 
ATOM     25  N   UNL     1       7.387   5.601  14.841  0.00  0.00    +0.000 N 
ATOM     26  C   UNL     1       7.024   4.805  13.795  0.00  0.00    +0.000 A 
ATOM     27  O   UNL     1       7.595   4.811  12.714  0.00  0.00    +0.000 OA
ATOM     28  C   UNL     1       5.829   3.956  14.016  0.00  0.00    +0.000 A 
ATOM     29  C   UNL     1       5.255   3.866  15.231  0.00  0.00    +0.000 A 
ATOM     30  C   UNL     1       5.821   4.566  16.397  0.00  0.00    +0.000 A 
ATOM     31  H   UNL     1       8.156   6.244  14.705  0.00  0.00    +0.000 HD
BRANCH  23  32
ATOM     32  O   UNL     1       8.195   7.359  16.759  0.00  0.00    +0.000 OA
ATOM     33  H   UNL     1       8.076   7.583  15.821  0.00  0.00    +0.000 HD
ENDBRANCH  23  32
ENDBRANCH  19  20
BRANCH  19  34
ATOM     34  O   UNL     1       5.136   2.698  19.289  0.00  0.00    +0.000 OA
ATOM     35  H   UNL     1       4.587   1.964  19.599  0.00  0.00    +0.000 HD
ENDBRANCH  19  34
ENDBRANCH   1  19
TORSDOF 10
ENDMDL
MODEL 6
REMARK VINA RESULT:      -7.8      5.491      9.836
REMARK  Name = 
REMARK  12 active torsions:
REMARK  status: ('A' for Active; 'I' for Inactive)
REMARK    1  A    between atoms: C_1  and  C_2
REMARK    2  A    between atoms: C_2  and  C_3
REMARK    3  A    between atoms: C_3  and  C_4
REMARK    4  A    between atoms: C_9  and  C_10
REMARK    5  A    between atoms: C_10  and  C_11
REMARK    6  A    between atoms: C_11  and  C_12
REMARK    7  A    between atoms: C_14  and  N_15
REMARK    8  A    between atoms: N_15  and  C_16
REMARK    9  A    between atoms: C_16  and  C_17
REMARK   10  A    between atoms: C_17  and  O_18
REMARK   11  A    between atoms: C_17  and  C_19
REMARK   12  A    between atoms: C_22  and  O_23
REMARK                            x       y       z     vdW  Elec       q    Type
REMARK                         _______ _______ _______ _____ _____    ______ ____
ROOT
ATOM      1  C   UNL     1      -0.976  11.864  20.680  0.00  0.00    +0.000 C 
ENDROOT
BRANCH   1   2
ATOM      2  N   UNL     1       0.299  11.638  19.961  0.00  0.00    +0.000 NA
ATOM      3  H   UNL     1       0.317  12.227  19.126  0.00  0.00    +0.000 HD
BRANCH   2  11
ATOM      4  C   UNL     1       3.024   6.485  18.341  0.00  0.00    +0.000 A 
ATOM      5  C   UNL     1       2.675   7.777  17.902  0.00  0.00    +0.000 A 
ATOM      6  C   UNL     1       1.951   8.606  18.731  0.00  0.00    +0.000 A 
ATOM      7  C   UNL     1       1.525   8.183  19.982  0.00  0.00    +0.000 A 
ATOM      8  C   UNL     1       1.801   6.905  20.421  0.00  0.00    +0.000 A 
ATOM      9  C   UNL     1       2.569   6.034  19.614  0.00  0.00    +0.000 A 
ATOM     10  C   UNL     1       0.823   9.283  20.720  0.00  0.00    +0.000 C 
ATOM     11  C   UNL     1       0.476  10.236  19.554  0.00  0.00    +0.000 C 
ATOM     12  C   UNL     1       1.571  10.022  18.480  0.00  0.00    +0.000 C 
BRANCH   4  13
ATOM     13  C   UNL     1       3.893   5.677  17.399  0.00  0.00    +0.000 C 
BRANCH  13  15
ATOM     14  C   UNL     1       6.212   6.690  17.258  0.00  0.00    +0.000 C 
ATOM     15  C   UNL     1       4.850   6.576  16.597  0.00  0.00    +0.000 C 
ENDBRANCH  13  15
ENDBRANCH   4  13
BRANCH   9  16
ATOM     16  C   UNL     1       2.887   4.678  20.209  0.00  0.00    +0.000 C 
BRANCH  16  17
ATOM     17  C   UNL     1       1.693   3.928  20.814  0.00  0.00    +0.000 C 
ATOM     18  C   UNL     1       2.074   2.712  21.643  0.00  0.00    +0.000 C 
ENDBRANCH  16  17
ENDBRANCH   9  16
ENDBRANCH   2  11
ENDBRANCH   1   2
BRANCH   1  19
ATOM     19  C   UNL     1      -1.942  12.877  19.999  0.00  0.00    +0.000 C 
BRANCH  19  20
ATOM     20  C   UNL     1      -3.200  12.369  19.327  0.00  0.00    +0.000 A 
ATOM     21  C   UNL     1      -4.383  12.567  20.085  0.00  0.00    +0.000 A 
ATOM     22  C   UNL     1      -5.635  12.167  19.629  0.00  0.00    +0.000 A 
ATOM     23  C   UNL     1      -5.731  11.593  18.374  0.00  0.00    +0.000 A 
ATOM     24  C   UNL     1      -4.581  11.358  17.618  0.00  0.00    +0.000 A 
ATOM     25  N   UNL     1      -4.734  10.821  16.329  0.00  0.00    +0.000 N 
ATOM     26  C   UNL     1      -3.696  10.536  15.493  0.00  0.00    +0.000 A 
ATOM     27  O   UNL     1      -3.842  10.158  14.339  0.00  0.00    +0.000 OA
ATOM     28  C   UNL     1      -2.342  10.646  16.087  0.00  0.00    +0.000 A 
ATOM     29  C   UNL     1      -2.164  11.156  17.322  0.00  0.00    +0.000 A 
ATOM     30  C   UNL     1      -3.298  11.671  18.106  0.00  0.00    +0.000 A 
ATOM     31  H   UNL     1      -5.676  10.692  15.980  0.00  0.00    +0.000 HD
BRANCH  23  32
ATOM     32  O   UNL     1      -6.946  11.219  17.869  0.00  0.00    +0.000 OA
ATOM     33  H   UNL     1      -7.385  10.644  18.517  0.00  0.00    +0.000 HD
ENDBRANCH  23  32
ENDBRANCH  19  20
BRANCH  19  34
ATOM     34  O   UNL     1      -2.393  13.924  20.859  0.00  0.00    +0.000 OA
ATOM     35  H   UNL     1      -1.645  14.513  21.032  0.00  0.00    +0.000 HD
ENDBRANCH  19  34
ENDBRANCH   1  19
TORSDOF 10
ENDMDL
MODEL 7
REMARK VINA RESULT:      -7.8      0.951      1.188
REMARK  Name = 
REMARK  12 active torsions:
REMARK  status: ('A' for Active; 'I' for Inactive)
REMARK    1  A    between atoms: C_1  and  C_2
REMARK    2  A    between atoms: C_2  and  C_3
REMARK    3  A    between atoms: C_3  and  C_4
REMARK    4  A    between atoms: C_9  and  C_10
REMARK    5  A    between atoms: C_10  and  C_11
REMARK    6  A    between atoms: C_11  and  C_12
REMARK    7  A    between atoms: C_14  and  N_15
REMARK    8  A    between atoms: N_15  and  C_16
REMARK    9  A    between atoms: C_16  and  C_17
REMARK   10  A    between atoms: C_17  and  O_18
REMARK   11  A    between atoms: C_17  and  C_19
REMARK   12  A    between atoms: C_22  and  O_23
REMARK                            x       y       z     vdW  Elec       q    Type
REMARK                         _______ _______ _______ _____ _____    ______ ____
ROOT
ATOM      1  C   UNL     1       3.337   2.838  18.143  0.00  0.00    +0.000 C 
ENDROOT
BRANCH   1   2
ATOM      2  N   UNL     1       2.517   3.070  19.354  0.00  0.00    +0.000 NA
ATOM      3  H   UNL     1       1.826   2.322  19.432  0.00  0.00    +0.000 HD
BRANCH   2  11
ATOM      4  C   UNL     1       1.398   8.961  20.159  0.00  0.00    +0.000 A 
ATOM      5  C   UNL     1       1.494   7.718  20.815  0.00  0.00    +0.000 A 
ATOM      6  C   UNL     1       1.753   6.580  20.084  0.00  0.00    +0.000 A 
ATOM      7  C   UNL     1       1.889   6.623  18.704  0.00  0.00    +0.000 A 
ATOM      8  C   UNL     1       1.745   7.814  18.023  0.00  0.00    +0.000 A 
ATOM      9  C   UNL     1       1.511   9.011  18.739  0.00  0.00    +0.000 A 
ATOM     10  C   UNL     1       2.238   5.276  18.147  0.00  0.00    +0.000 C 
ATOM     11  C   UNL     1       1.814   4.362  19.319  0.00  0.00    +0.000 C 
ATOM     12  C   UNL     1       1.977   5.205  20.607  0.00  0.00    +0.000 C 
BRANCH   4  13
ATOM     13  C   UNL     1       1.198  10.168  21.052  0.00  0.00    +0.000 C 
BRANCH  13  15
ATOM     14  C   UNL     1      -0.964  11.326  20.412  0.00  0.00    +0.000 C 
ATOM     15  C   UNL     1      -0.286  10.385  21.393  0.00  0.00    +0.000 C 
ENDBRANCH  13  15
ENDBRANCH   4  13
BRANCH   9  16
ATOM     16  C   UNL     1       1.443  10.280  17.916  0.00  0.00    +0.000 C 
BRANCH  16  17
ATOM     17  C   UNL     1       2.547  11.307  18.195  0.00  0.00    +0.000 C 
ATOM     18  C   UNL     1       2.042  12.720  18.431  0.00  0.00    +0.000 C 
ENDBRANCH  16  17
ENDBRANCH   9  16
ENDBRANCH   2  11
ENDBRANCH   1   2
BRANCH   1  19
ATOM     19  C   UNL     1       4.877   2.891  18.374  0.00  0.00    +0.000 C 
BRANCH  19  20
ATOM     20  C   UNL     1       5.654   4.112  17.932  0.00  0.00    +0.000 A 
ATOM     21  C   UNL     1       5.903   5.049  18.968  0.00  0.00    +0.000 A 
ATOM     22  C   UNL     1       6.604   6.230  18.752  0.00  0.00    +0.000 A 
ATOM     23  C   UNL     1       7.110   6.478  17.489  0.00  0.00    +0.000 A 
ATOM     24  C   UNL     1       6.856   5.590  16.441  0.00  0.00    +0.000 A 
ATOM     25  N   UNL     1       7.434   5.859  15.190  0.00  0.00    +0.000 N 
ATOM     26  C   UNL     1       7.258   5.080  14.085  0.00  0.00    +0.000 A 
ATOM     27  O   UNL     1       7.841   5.269  13.027  0.00  0.00    +0.000 OA
ATOM     28  C   UNL     1       6.249   4.002  14.212  0.00  0.00    +0.000 A 
ATOM     29  C   UNL     1       5.677   3.721  15.399  0.00  0.00    +0.000 A 
ATOM     30  C   UNL     1       6.068   4.438  16.624  0.00  0.00    +0.000 A 
ATOM     31  H   UNL     1       8.065   6.648  15.121  0.00  0.00    +0.000 HD
BRANCH  23  32
ATOM     32  O   UNL     1       7.839   7.609  17.239  0.00  0.00    +0.000 OA
ATOM     33  H   UNL     1       8.048   7.637  16.291  0.00  0.00    +0.000 HD
ENDBRANCH  23  32
ENDBRANCH  19  20
BRANCH  19  34
ATOM     34  O   UNL     1       5.271   2.686  19.731  0.00  0.00    +0.000 OA
ATOM     35  H   UNL     1       4.547   2.980  20.301  0.00  0.00    +0.000 HD
ENDBRANCH  19  34
ENDBRANCH   1  19
TORSDOF 10
ENDMDL
MODEL 8
REMARK VINA RESULT:      -7.7      5.173      9.384
REMARK  Name = 
REMARK  12 active torsions:
REMARK  status: ('A' for Active; 'I' for Inactive)
REMARK    1  A    between atoms: C_1  and  C_2
REMARK    2  A    between atoms: C_2  and  C_3
REMARK    3  A    between atoms: C_3  and  C_4
REMARK    4  A    between atoms: C_9  and  C_10
REMARK    5  A    between atoms: C_10  and  C_11
REMARK    6  A    between atoms: C_11  and  C_12
REMARK    7  A    between atoms: C_14  and  N_15
REMARK    8  A    between atoms: N_15  and  C_16
REMARK    9  A    between atoms: C_16  and  C_17
REMARK   10  A    between atoms: C_17  and  O_18
REMARK   11  A    between atoms: C_17  and  C_19
REMARK   12  A    between atoms: C_22  and  O_23
REMARK                            x       y       z     vdW  Elec       q    Type
REMARK                         _______ _______ _______ _____ _____    ______ ____
ROOT
ATOM      1  C   UNL     1      -0.766  11.758  20.572  0.00  0.00    +0.000 C 
ENDROOT
BRANCH   1   2
ATOM      2  N   UNL     1       0.308  10.934  21.172  0.00  0.00    +0.000 NA
ATOM      3  H   UNL     1       1.196  11.428  21.076  0.00  0.00    +0.000 HD
BRANCH   2  11
ATOM      4  C   UNL     1       2.824   6.041  18.656  0.00  0.00    +0.000 A 
ATOM      5  C   UNL     1       2.513   7.398  18.447  0.00  0.00    +0.000 A 
ATOM      6  C   UNL     1       1.833   8.099  19.418  0.00  0.00    +0.000 A 
ATOM      7  C   UNL     1       1.413   7.487  20.590  0.00  0.00    +0.000 A 
ATOM      8  C   UNL     1       1.652   6.145  20.803  0.00  0.00    +0.000 A 
ATOM      9  C   UNL     1       2.376   5.398  19.846  0.00  0.00    +0.000 A 
ATOM     10  C   UNL     1       0.762   8.469  21.517  0.00  0.00    +0.000 C 
ATOM     11  C   UNL     1       0.429   9.614  20.534  0.00  0.00    +0.000 C 
ATOM     12  C   UNL     1       1.498   9.549  19.415  0.00  0.00    +0.000 C 
BRANCH   4  13
ATOM     13  C   UNL     1       3.649   5.375  17.574  0.00  0.00    +0.000 C 
BRANCH  13  15
ATOM     14  C   UNL     1       5.363   5.746  15.744  0.00  0.00    +0.000 C 
ATOM     15  C   UNL     1       4.656   6.352  16.944  0.00  0.00    +0.000 C 
ENDBRANCH  13  15
ENDBRANCH   4  13
BRANCH   9  16
ATOM     16  C   UNL     1       2.656   3.952  20.199  0.00  0.00    +0.000 C 
BRANCH  16  17
ATOM     17  C   UNL     1       1.420   3.049  20.310  0.00  0.00    +0.000 C 
ATOM     18  C   UNL     1       0.840   2.616  18.974  0.00  0.00    +0.000 C 
ENDBRANCH  16  17
ENDBRANCH   9  16
ENDBRANCH   2  11
ENDBRANCH   1   2
BRANCH   1  19
ATOM     19  C   UNL     1      -1.001  11.522  19.051  0.00  0.00    +0.000 C 
BRANCH  19  20
ATOM     20  C   UNL     1      -2.413  11.533  18.505  0.00  0.00    +0.000 A 
ATOM     21  C   UNL     1      -3.368  12.114  19.379  0.00  0.00    +0.000 A 
ATOM     22  C   UNL     1      -4.715  12.215  19.048  0.00  0.00    +0.000 A 
ATOM     23  C   UNL     1      -5.128  11.767  17.806  0.00  0.00    +0.000 A 
ATOM     24  C   UNL     1      -4.217  11.163  16.937  0.00  0.00    +0.000 A 
ATOM     25  N   UNL     1      -4.673  10.772  15.667  0.00  0.00    +0.000 N 
ATOM     26  C   UNL     1      -3.890  10.165  14.730  0.00  0.00    +0.000 A 
ATOM     27  O   UNL     1      -4.269   9.914  13.595  0.00  0.00    +0.000 OA
ATOM     28  C   UNL     1      -2.542   9.752  15.187  0.00  0.00    +0.000 A 
ATOM     29  C   UNL     1      -2.078  10.111  16.400  0.00  0.00    +0.000 A 
ATOM     30  C   UNL     1      -2.870  10.969  17.297  0.00  0.00    +0.000 A 
ATOM     31  H   UNL     1      -5.624  11.007  15.413  0.00  0.00    +0.000 HD
BRANCH  23  32
ATOM     32  O   UNL     1      -6.436  11.881  17.423  0.00  0.00    +0.000 OA
ATOM     33  H   UNL     1      -6.871  11.021  17.552  0.00  0.00    +0.000 HD
ENDBRANCH  23  32
ENDBRANCH  19  20
BRANCH  19  34
ATOM     34  O   UNL     1      -0.282  12.419  18.203  0.00  0.00    +0.000 OA
ATOM     35  H   UNL     1       0.095  11.905  17.475  0.00  0.00    +0.000 HD
ENDBRANCH  19  34
ENDBRANCH   1  19
TORSDOF 10
ENDMDL
MODEL 9
REMARK VINA RESULT:      -7.7      5.250      9.550
REMARK  Name = 
REMARK  12 active torsions:
REMARK  status: ('A' for Active; 'I' for Inactive)
REMARK    1  A    between atoms: C_1  and  C_2
REMARK    2  A    between atoms: C_2  and  C_3
REMARK    3  A    between atoms: C_3  and  C_4
REMARK    4  A    between atoms: C_9  and  C_10
REMARK    5  A    between atoms: C_10  and  C_11
REMARK    6  A    between atoms: C_11  and  C_12
REMARK    7  A    between atoms: C_14  and  N_15
REMARK    8  A    between atoms: N_15  and  C_16
REMARK    9  A    between atoms: C_16  and  C_17
REMARK   10  A    between atoms: C_17  and  O_18
REMARK   11  A    between atoms: C_17  and  C_19
REMARK   12  A    between atoms: C_22  and  O_23
REMARK                            x       y       z     vdW  Elec       q    Type
REMARK                         _______ _______ _______ _____ _____    ______ ____
ROOT
ATOM      1  C   UNL     1      -0.531  10.983  20.635  0.00  0.00    +0.000 C 
ENDROOT
BRANCH   1   2
ATOM      2  N   UNL     1       0.798  10.626  20.086  0.00  0.00    +0.000 NA
ATOM      3  H   UNL     1       0.989  11.215  19.274  0.00  0.00    +0.000 HD
BRANCH   2  11
ATOM      4  C   UNL     1       3.162   5.297  18.471  0.00  0.00    +0.000 A 
ATOM      5  C   UNL     1       2.908   6.611  18.034  0.00  0.00    +0.000 A 
ATOM      6  C   UNL     1       2.240   7.487  18.860  0.00  0.00    +0.000 A 
ATOM      7  C   UNL     1       1.776   7.093  20.107  0.00  0.00    +0.000 A 
ATOM      8  C   UNL     1       1.958   5.797  20.544  0.00  0.00    +0.000 A 
ATOM      9  C   UNL     1       2.668   4.876  19.740  0.00  0.00    +0.000 A 
ATOM     10  C   UNL     1       1.148   8.238  20.843  0.00  0.00    +0.000 C 
ATOM     11  C   UNL     1       0.878   9.215  19.677  0.00  0.00    +0.000 C 
ATOM     12  C   UNL     1       1.962   8.927  18.610  0.00  0.00    +0.000 C 
BRANCH   4  13
ATOM     13  C   UNL     1       3.979   4.432  17.533  0.00  0.00    +0.000 C 
BRANCH  13  15
ATOM     14  C   UNL     1       5.992   5.108  18.916  0.00  0.00    +0.000 C 
ATOM     15  C   UNL     1       5.459   4.850  17.517  0.00  0.00    +0.000 C 
ENDBRANCH  13  15
ENDBRANCH   4  13
BRANCH   9  16
ATOM     16  C   UNL     1       2.885   3.500  20.333  0.00  0.00    +0.000 C 
BRANCH  16  17
ATOM     17  C   UNL     1       1.659   2.578  20.324  0.00  0.00    +0.000 C 
ATOM     18  C   UNL     1       0.880   2.587  19.019  0.00  0.00    +0.000 C 
ENDBRANCH  16  17
ENDBRANCH   9  16
ENDBRANCH   2  11
ENDBRANCH   1   2
BRANCH   1  19
ATOM     19  C   UNL     1      -1.195  12.232  19.983  0.00  0.00    +0.000 C 
BRANCH  19  20
ATOM     20  C   UNL     1      -2.568  12.104  19.359  0.00  0.00    +0.000 A 
ATOM     21  C   UNL     1      -3.615  12.660  20.139  0.00  0.00    +0.000 A 
ATOM     22  C   UNL     1      -4.943  12.638  19.728  0.00  0.00    +0.000 A 
ATOM     23  C   UNL     1      -5.246  12.090  18.495  0.00  0.00    +0.000 A 
ATOM     24  C   UNL     1      -4.241  11.508  17.718  0.00  0.00    +0.000 A 
ATOM     25  N   UNL     1      -4.589  11.011  16.451  0.00  0.00    +0.000 N 
ATOM     26  C   UNL     1      -3.709  10.412  15.599  0.00  0.00    +0.000 A 
ATOM     27  O   UNL     1      -3.999  10.069  14.462  0.00  0.00    +0.000 OA
ATOM     28  C   UNL     1      -2.365  10.130  16.156  0.00  0.00    +0.000 A 
ATOM     29  C   UNL     1      -2.003  10.593  17.368  0.00  0.00    +0.000 A 
ATOM     30  C   UNL     1      -2.908  11.438  18.164  0.00  0.00    +0.000 A 
ATOM     31  H   UNL     1      -5.538  11.158  16.129  0.00  0.00    +0.000 HD
BRANCH  23  32
ATOM     32  O   UNL     1      -6.533  12.081  18.032  0.00  0.00    +0.000 OA
ATOM     33  H   UNL     1      -6.511  12.094  17.060  0.00  0.00    +0.000 HD
ENDBRANCH  23  32
ENDBRANCH  19  20
BRANCH  19  34
ATOM     34  O   UNL     1      -1.300  13.359  20.854  0.00  0.00    +0.000 OA
ATOM     35  H   UNL     1      -1.277  13.037  21.765  0.00  0.00    +0.000 HD
ENDBRANCH  19  34
ENDBRANCH   1  19
TORSDOF 10
ENDMDL
