MODEL 1
REMARK VINA RESULT:      -8.3      0.000      0.000
REMARK  Name = 
REMARK  8 active torsions:
REMARK  status: ('A' for Active; 'I' for Inactive)
REMARK    1  A    between atoms: C_1  and  C_2
REMARK    2  A    between atoms: C_2  and  C_3
REMARK    3  A    between atoms: C_2  and  C_4
REMARK    4  A    between atoms: C_5  and  C_6
REMARK    5  A    between atoms: C_17  and  C_18
REMARK    6  A    between atoms: C_18  and  S_19
REMARK    7  A    between atoms: S_19  and  C_20
REMARK    8  A    between atoms: C_23  and  C_24
REMARK                            x       y       z     vdW  Elec       q    Type
REMARK                         _______ _______ _______ _____ _____    ______ ____
ROOT
ATOM      1  C   UNL     1       2.091   7.823  19.434  0.00  0.00    +0.000 A 
ATOM      2  C   UNL     1       1.561   8.233  20.681  0.00  0.00    +0.000 A 
ATOM      3  N   UNL     1       1.680   7.084  21.438  0.00  0.00    +0.000 N 
ATOM      4  C   UNL     1       2.167   5.978  20.746  0.00  0.00    +0.000 A 
ATOM      5  C   UNL     1       2.380   6.342  19.398  0.00  0.00    +0.000 A 
ATOM      6  H   UNL     1       1.514   7.083  22.441  0.00  0.00    +0.000 HD
ENDROOT
BRANCH   2   7
ATOM      7  C   UNL     1       1.267   9.593  21.368  0.00  0.00    +0.000 A 
ATOM      8  C   UNL     1       0.935   9.524  22.730  0.00  0.00    +0.000 A 
ATOM      9  C   UNL     1      -0.435   9.446  22.967  0.00  0.00    +0.000 A 
ATOM     10  F   UNL     1      -1.014   8.301  22.545  0.00  0.00    +0.000 F 
ATOM     11  C   UNL     1      -1.172  10.549  22.574  0.00  0.00    +0.000 A 
ATOM     12  C   UNL     1      -0.736  11.065  21.350  0.00  0.00    +0.000 A 
ATOM     13  N   UNL     1      -1.209  12.195  20.712  0.00  0.00    +0.000 N 
ATOM     14  C   UNL     1      -0.108  12.994  20.568  0.00  0.00    +0.000 A 
ATOM     15  C   UNL     1       0.979  12.129  20.596  0.00  0.00    +0.000 A 
ATOM     16  C   UNL     1       0.536  10.725  20.789  0.00  0.00    +0.000 A 
ATOM     17  H   UNL     1      -2.153  12.547  20.819  0.00  0.00    +0.000 HD
ENDBRANCH   2   7
BRANCH   5  18
ATOM     18  C   UNL     1       3.094   5.398  18.363  0.00  0.00    +0.000 A 
ATOM     19  C   UNL     1       2.270   4.641  17.492  0.00  0.00    +0.000 A 
ATOM     20  C   UNL     1       2.655   3.458  16.846  0.00  0.00    +0.000 A 
ATOM     21  C   UNL     1       3.951   3.396  16.388  0.00  0.00    +0.000 A 
ATOM     22  C   UNL     1       4.842   3.986  17.284  0.00  0.00    +0.000 A 
ATOM     23  N   UNL     1       6.210   3.836  17.287  0.00  0.00    +0.000 N 
ATOM     24  C   UNL     1       6.728   5.088  17.367  0.00  0.00    +0.000 A 
ATOM     25  C   UNL     1       5.715   5.890  17.863  0.00  0.00    +0.000 A 
ATOM     26  C   UNL     1       4.489   5.133  18.046  0.00  0.00    +0.000 A 
ATOM     27  H   UNL     1       6.693   3.024  16.923  0.00  0.00    +0.000 HD
ENDBRANCH   5  18
BRANCH   1  29
ATOM     28  C   UNL     1       3.429   8.209  17.361  0.00  0.00    +0.000 C 
ATOM     29  C   UNL     1       2.345   8.758  18.296  0.00  0.00    +0.000 C 
ATOM     30  C   UNL     1       0.983   9.089  17.700  0.00  0.00    +0.000 C 
ENDBRANCH   1  29
BRANCH   4  31
ATOM     31  C   UNL     1       2.503   4.736  21.550  0.00  0.00    +0.000 C 
BRANCH  31  32
ATOM     32  S   UNL     1       1.562   3.291  21.068  0.00  0.00    +0.000 S 
ATOM     33  C   UNL     1       2.710   2.306  20.165  0.00  0.00    +0.000 C 
ATOM     34  O   UNL     1       1.234   2.565  22.281  0.00  0.00    +0.000 OA
ATOM     35  O   UNL     1       0.482   3.715  20.156  0.00  0.00    +0.000 OA
ENDBRANCH  31  32
ENDBRANCH   4  31
TORSDOF 5
ENDMDL
MODEL 2
REMARK VINA RESULT:      -7.7      6.390     10.938
REMARK  Name = 
REMARK  8 active torsions:
REMARK  status: ('A' for Active; 'I' for Inactive)
REMARK    1  A    between atoms: C_1  and  C_2
REMARK    2  A    between atoms: C_2  and  C_3
REMARK    3  A    between atoms: C_2  and  C_4
REMARK    4  A    between atoms: C_5  and  C_6
REMARK    5  A    between atoms: C_17  and  C_18
REMARK    6  A    between atoms: C_18  and  S_19
REMARK    7  A    between atoms: S_19  and  C_20
REMARK    8  A    between atoms: C_23  and  C_24
REMARK                            x       y       z     vdW  Elec       q    Type
REMARK                         _______ _______ _______ _____ _____    ______ ____
ROOT
ATOM      1  C   UNL     1      -3.092  12.672  21.357  0.00  0.00    +0.000 A 
ATOM      2  C   UNL     1      -2.584  12.302  20.088  0.00  0.00    +0.000 A 
ATOM      3  N   UNL     1      -3.659  12.554  19.259  0.00  0.00    +0.000 N 
ATOM      4  C   UNL     1      -4.813  12.978  19.916  0.00  0.00    +0.000 A 
ATOM      5  C   UNL     1      -4.565  12.998  21.306  0.00  0.00    +0.000 A 
ATOM      6  H   UNL     1      -3.575  12.524  18.247  0.00  0.00    +0.000 HD
ENDROOT
BRANCH   2   7
ATOM      7  C   UNL     1      -1.174  12.061  19.485  0.00  0.00    +0.000 A 
ATOM      8  C   UNL     1      -0.802  10.717  19.333  0.00  0.00    +0.000 A 
ATOM      9  C   UNL     1      -0.098  10.207  20.421  0.00  0.00    +0.000 A 
ATOM     10  F   UNL     1      -0.818  10.104  21.559  0.00  0.00    +0.000 F 
ATOM     11  C   UNL     1       1.132  10.791  20.663  0.00  0.00    +0.000 A 
ATOM     12  C   UNL     1       1.101  12.177  20.480  0.00  0.00    +0.000 A 
ATOM     13  N   UNL     1       2.168  13.050  20.574  0.00  0.00    +0.000 N 
ATOM     14  C   UNL     1       2.220  13.661  19.352  0.00  0.00    +0.000 A 
ATOM     15  C   UNL     1       0.934  13.559  18.835  0.00  0.00    +0.000 A 
ATOM     16  C   UNL     1       0.042  12.829  19.772  0.00  0.00    +0.000 A 
ATOM     17  H   UNL     1       2.978  12.884  21.159  0.00  0.00    +0.000 HD
ENDBRANCH   2   7
BRANCH   5  18
ATOM     18  C   UNL     1      -5.583  13.595  22.344  0.00  0.00    +0.000 A 
ATOM     19  C   UNL     1      -6.591  12.731  22.843  0.00  0.00    +0.000 A 
ATOM     20  C   UNL     1      -7.813  13.150  23.388  0.00  0.00    +0.000 A 
ATOM     21  C   UNL     1      -7.788  14.288  24.162  0.00  0.00    +0.000 A 
ATOM     22  C   UNL     1      -6.930  15.250  23.632  0.00  0.00    +0.000 A 
ATOM     23  N   UNL     1      -6.895  16.584  23.973  0.00  0.00    +0.000 N 
ATOM     24  C   UNL     1      -5.594  16.879  24.219  0.00  0.00    +0.000 A 
ATOM     25  C   UNL     1      -4.853  15.891  23.593  0.00  0.00    +0.000 A 
ATOM     26  C   UNL     1      -5.718  14.897  22.980  0.00  0.00    +0.000 A 
ATOM     27  H   UNL     1      -7.691  17.099  24.330  0.00  0.00    +0.000 HD
ENDBRANCH   5  18
BRANCH   1  29
ATOM     28  C   UNL     1      -1.757  14.172  22.841  0.00  0.00    +0.000 C 
ATOM     29  C   UNL     1      -2.257  12.744  22.593  0.00  0.00    +0.000 C 
ATOM     30  C   UNL     1      -3.060  12.063  23.694  0.00  0.00    +0.000 C 
ENDBRANCH   1  29
BRANCH   4  31
ATOM     31  C   UNL     1      -5.972  13.456  19.062  0.00  0.00    +0.000 C 
BRANCH  31  32
ATOM     32  S   UNL     1      -6.356  12.363  17.695  0.00  0.00    +0.000 S 
ATOM     33  C   UNL     1      -6.807  10.845  18.466  0.00  0.00    +0.000 C 
ATOM     34  O   UNL     1      -7.545  12.885  17.046  0.00  0.00    +0.000 OA
ATOM     35  O   UNL     1      -5.128  12.148  16.906  0.00  0.00    +0.000 OA
ENDBRANCH  31  32
ENDBRANCH   4  31
TORSDOF 5
ENDMDL
MODEL 3
REMARK VINA RESULT:      -7.5      4.268      6.957
REMARK  Name = 
REMARK  8 active torsions:
REMARK  status: ('A' for Active; 'I' for Inactive)
REMARK    1  A    between atoms: C_1  and  C_2
REMARK    2  A    between atoms: C_2  and  C_3
REMARK    3  A    between atoms: C_2  and  C_4
REMARK    4  A    between atoms: C_5  and  C_6
REMARK    5  A    between atoms: C_17  and  C_18
REMARK    6  A    between atoms: C_18  and  S_19
REMARK    7  A    between atoms: S_19  and  C_20
REMARK    8  A    between atoms: C_23  and  C_24
REMARK                            x       y       z     vdW  Elec       q    Type
REMARK                         _______ _______ _______ _____ _____    ______ ____
ROOT
ATOM      1  C   UNL     1       1.047  12.934  19.203  0.00  0.00    +0.000 A 
ATOM      2  C   UNL     1       0.217  14.028  18.857  0.00  0.00    +0.000 A 
ATOM      3  N   UNL     1      -1.032  13.442  18.813  0.00  0.00    +0.000 N 
ATOM      4  C   UNL     1      -1.037  12.065  19.027  0.00  0.00    +0.000 A 
ATOM      5  C   UNL     1       0.294  11.626  19.203  0.00  0.00    +0.000 A 
ATOM      6  H   UNL     1      -1.881  13.994  18.726  0.00  0.00    +0.000 HD
ENDROOT
BRANCH   2   7
ATOM      7  C   UNL     1       0.353  15.574  18.879  0.00  0.00    +0.000 A 
ATOM      8  C   UNL     1       0.807  16.124  20.087  0.00  0.00    +0.000 A 
ATOM      9  C   UNL     1      -0.220  16.500  20.949  0.00  0.00    +0.000 A 
ATOM     10  F   UNL     1      -0.947  15.472  21.439  0.00  0.00    +0.000 F 
ATOM     11  C   UNL     1      -1.042  17.515  20.493  0.00  0.00    +0.000 A 
ATOM     12  C   UNL     1      -1.328  17.386  19.130  0.00  0.00    +0.000 A 
ATOM     13  N   UNL     1      -2.060  18.263  18.351  0.00  0.00    +0.000 N 
ATOM     14  C   UNL     1      -1.203  18.631  17.352  0.00  0.00    +0.000 A 
ATOM     15  C   UNL     1      -0.280  17.595  17.260  0.00  0.00    +0.000 A 
ATOM     16  C   UNL     1      -0.563  16.541  18.266  0.00  0.00    +0.000 A 
ATOM     17  H   UNL     1      -2.794  18.858  18.715  0.00  0.00    +0.000 HD
ENDBRANCH   2   7
BRANCH   5  18
ATOM     18  C   UNL     1       0.658  10.162  19.643  0.00  0.00    +0.000 A 
ATOM     19  C   UNL     1       0.058   9.667  20.829  0.00  0.00    +0.000 A 
ATOM     20  C   UNL     1       0.567   8.622  21.613  0.00  0.00    +0.000 A 
ATOM     21  C   UNL     1       1.145   7.570  20.942  0.00  0.00    +0.000 A 
ATOM     22  C   UNL     1       1.891   8.005  19.848  0.00  0.00    +0.000 A 
ATOM     23  N   UNL     1       2.825   7.268  19.155  0.00  0.00    +0.000 N 
ATOM     24  C   UNL     1       2.519   7.407  17.840  0.00  0.00    +0.000 A 
ATOM     25  C   UNL     1       1.738   8.547  17.748  0.00  0.00    +0.000 A 
ATOM     26  C   UNL     1       1.488   9.118  19.061  0.00  0.00    +0.000 A 
ATOM     27  H   UNL     1       3.355   6.503  19.556  0.00  0.00    +0.000 HD
ENDBRANCH   5  18
BRANCH   1  29
ATOM     28  C   UNL     1       3.240  13.881  18.474  0.00  0.00    +0.000 C 
ATOM     29  C   UNL     1       2.496  13.070  19.543  0.00  0.00    +0.000 C 
ATOM     30  C   UNL     1       2.556  13.557  20.985  0.00  0.00    +0.000 C 
ENDBRANCH   1  29
BRANCH   4  31
ATOM     31  C   UNL     1      -2.383  11.382  19.182  0.00  0.00    +0.000 C 
BRANCH  31  32
ATOM     32  S   UNL     1      -3.098  10.843  17.630  0.00  0.00    +0.000 S 
ATOM     33  C   UNL     1      -4.657  11.660  17.565  0.00  0.00    +0.000 C 
ATOM     34  O   UNL     1      -2.281  11.393  16.564  0.00  0.00    +0.000 OA
ATOM     35  O   UNL     1      -3.328   9.388  17.698  0.00  0.00    +0.000 OA
ENDBRANCH  31  32
ENDBRANCH   4  31
TORSDOF 5
ENDMDL
MODEL 4
REMARK VINA RESULT:      -7.4      4.540      7.450
REMARK  Name = 
REMARK  8 active torsions:
REMARK  status: ('A' for Active; 'I' for Inactive)
REMARK    1  A    between atoms: C_1  and  C_2
REMARK    2  A    between atoms: C_2  and  C_3
REMARK    3  A    between atoms: C_2  and  C_4
REMARK    4  A    between atoms: C_5  and  C_6
REMARK    5  A    between atoms: C_17  and  C_18
REMARK    6  A    between atoms: C_18  and  S_19
REMARK    7  A    between atoms: S_19  and  C_20
REMARK    8  A    between atoms: C_23  and  C_24
REMARK                            x       y       z     vdW  Elec       q    Type
REMARK                         _______ _______ _______ _____ _____    ______ ____
ROOT
ATOM      1  C   UNL     1       0.697  13.570  19.172  0.00  0.00    +0.000 A 
ATOM      2  C   UNL     1      -0.365  14.501  19.072  0.00  0.00    +0.000 A 
ATOM      3  N   UNL     1      -1.469  13.677  18.990  0.00  0.00    +0.000 N 
ATOM      4  C   UNL     1      -1.176  12.315  18.954  0.00  0.00    +0.000 A 
ATOM      5  C   UNL     1       0.226  12.149  18.977  0.00  0.00    +0.000 A 
ATOM      6  H   UNL     1      -2.416  14.040  19.050  0.00  0.00    +0.000 HD
ENDROOT
BRANCH   2   7
ATOM      7  C   UNL     1      -0.543  16.016  19.364  0.00  0.00    +0.000 A 
ATOM      8  C   UNL     1      -0.429  16.864  18.252  0.00  0.00    +0.000 A 
ATOM      9  C   UNL     1       0.858  17.356  18.056  0.00  0.00    +0.000 A 
ATOM     10  F   UNL     1       1.771  16.423  17.709  0.00  0.00    +0.000 F 
ATOM     11  C   UNL     1       1.343  18.176  19.059  0.00  0.00    +0.000 A 
ATOM     12  C   UNL     1       0.993  17.713  20.331  0.00  0.00    +0.000 A 
ATOM     13  N   UNL     1       1.259  18.330  21.539  0.00  0.00    +0.000 N 
ATOM     14  C   UNL     1       0.030  18.514  22.108  0.00  0.00    +0.000 A 
ATOM     15  C   UNL     1      -0.791  17.554  21.528  0.00  0.00    +0.000 A 
ATOM     16  C   UNL     1      -0.041  16.746  20.533  0.00  0.00    +0.000 A 
ATOM     17  H   UNL     1       2.052  18.940  21.695  0.00  0.00    +0.000 HD
ENDBRANCH   2   7
BRANCH   5  18
ATOM     18  C   UNL     1       0.916  10.745  19.128  0.00  0.00    +0.000 A 
ATOM     19  C   UNL     1       1.653  10.256  18.020  0.00  0.00    +0.000 A 
ATOM     20  C   UNL     1       1.943   8.905  17.779  0.00  0.00    +0.000 A 
ATOM     21  C   UNL     1       2.234   8.129  18.877  0.00  0.00    +0.000 A 
ATOM     22  C   UNL     1       1.425   8.453  19.965  0.00  0.00    +0.000 A 
ATOM     23  N   UNL     1       1.243   7.691  21.097  0.00  0.00    +0.000 N 
ATOM     24  C   UNL     1       1.421   8.529  22.150  0.00  0.00    +0.000 A 
ATOM     25  C   UNL     1       1.247   9.809  21.654  0.00  0.00    +0.000 A 
ATOM     26  C   UNL     1       1.011   9.788  20.221  0.00  0.00    +0.000 A 
ATOM     27  H   UNL     1       1.342   6.683  21.126  0.00  0.00    +0.000 HD
ENDBRANCH   5  18
BRANCH   1  29
ATOM     28  C   UNL     1       2.556  13.464  20.835  0.00  0.00    +0.000 C 
ATOM     29  C   UNL     1       2.112  13.956  19.452  0.00  0.00    +0.000 C 
ATOM     30  C   UNL     1       2.925  13.520  18.240  0.00  0.00    +0.000 C 
ENDBRANCH   1  29
BRANCH   4  31
ATOM     31  C   UNL     1      -2.337  11.343  19.056  0.00  0.00    +0.000 C 
BRANCH  31  32
ATOM     32  S   UNL     1      -3.047  10.904  17.470  0.00  0.00    +0.000 S 
ATOM     33  C   UNL     1      -4.629  11.678  17.474  0.00  0.00    +0.000 C 
ATOM     34  O   UNL     1      -2.253  11.556  16.446  0.00  0.00    +0.000 OA
ATOM     35  O   UNL     1      -3.235   9.441  17.429  0.00  0.00    +0.000 OA
ENDBRANCH  31  32
ENDBRANCH   4  31
TORSDOF 5
ENDMDL
MODEL 5
REMARK VINA RESULT:      -7.4      8.225     11.106
REMARK  Name = 
REMARK  8 active torsions:
REMARK  status: ('A' for Active; 'I' for Inactive)
REMARK    1  A    between atoms: C_1  and  C_2
REMARK    2  A    between atoms: C_2  and  C_3
REMARK    3  A    between atoms: C_2  and  C_4
REMARK    4  A    between atoms: C_5  and  C_6
REMARK    5  A    between atoms: C_17  and  C_18
REMARK    6  A    between atoms: C_18  and  S_19
REMARK    7  A    between atoms: S_19  and  C_20
REMARK    8  A    between atoms: C_23  and  C_24
REMARK                            x       y       z     vdW  Elec       q    Type
REMARK                         _______ _______ _______ _____ _____    ______ ____
ROOT
ATOM      1  C   UNL     1       7.192  15.049  20.116  0.00  0.00    +0.000 A 
ATOM      2  C   UNL     1       8.436  14.534  20.553  0.00  0.00    +0.000 A 
ATOM      3  N   UNL     1       8.076  13.816  21.675  0.00  0.00    +0.000 N 
ATOM      4  C   UNL     1       6.727  13.904  22.015  0.00  0.00    +0.000 A 
ATOM      5  C   UNL     1       6.083  14.767  21.100  0.00  0.00    +0.000 A 
ATOM      6  H   UNL     1       8.729  13.199  22.150  0.00  0.00    +0.000 HD
ENDROOT
BRANCH   2   7
ATOM      7  C   UNL     1       9.839  14.337  19.918  0.00  0.00    +0.000 A 
ATOM      8  C   UNL     1      10.843  15.197  20.389  0.00  0.00    +0.000 A 
ATOM      9  C   UNL     1      10.988  16.353  19.627  0.00  0.00    +0.000 A 
ATOM     10  F   UNL     1       9.936  17.199  19.681  0.00  0.00    +0.000 F 
ATOM     11  C   UNL     1      11.403  16.160  18.322  0.00  0.00    +0.000 A 
ATOM     12  C   UNL     1      10.791  15.048  17.735  0.00  0.00    +0.000 A 
ATOM     13  N   UNL     1      11.031  14.540  16.473  0.00  0.00    +0.000 N 
ATOM     14  C   UNL     1      11.422  13.248  16.692  0.00  0.00    +0.000 A 
ATOM     15  C   UNL     1      10.878  12.904  17.924  0.00  0.00    +0.000 A 
ATOM     16  C   UNL     1      10.129  14.044  18.511  0.00  0.00    +0.000 A 
ATOM     17  H   UNL     1      11.348  15.102  15.692  0.00  0.00    +0.000 HD
ENDBRANCH   2   7
BRANCH   5  18
ATOM     18  C   UNL     1       4.524  14.962  21.068  0.00  0.00    +0.000 A 
ATOM     19  C   UNL     1       3.972  15.961  21.909  0.00  0.00    +0.000 A 
ATOM     20  C   UNL     1       2.645  15.990  22.361  0.00  0.00    +0.000 A 
ATOM     21  C   UNL     1       1.679  15.585  21.469  0.00  0.00    +0.000 A 
ATOM     22  C   UNL     1       2.102  14.491  20.714  0.00  0.00    +0.000 A 
ATOM     23  N   UNL     1       1.299  13.663  19.963  0.00  0.00    +0.000 N 
ATOM     24  C   UNL     1       1.887  13.569  18.743  0.00  0.00    +0.000 A 
ATOM     25  C   UNL     1       3.208  13.940  18.926  0.00  0.00    +0.000 A 
ATOM     26  C   UNL     1       3.453  14.344  20.299  0.00  0.00    +0.000 A 
ATOM     27  H   UNL     1       0.319  13.493  20.156  0.00  0.00    +0.000 HD
ENDBRANCH   5  18
BRANCH   1  29
ATOM     28  C   UNL     1       6.403  14.853  17.755  0.00  0.00    +0.000 C 
ATOM     29  C   UNL     1       7.005  15.774  18.824  0.00  0.00    +0.000 C 
ATOM     30  C   UNL     1       6.268  17.065  19.157  0.00  0.00    +0.000 C 
ENDBRANCH   1  29
BRANCH   4  31
ATOM     31  C   UNL     1       6.219  12.996  23.118  0.00  0.00    +0.000 C 
BRANCH  31  32
ATOM     32  S   UNL     1       7.524  12.231  24.078  0.00  0.00    +0.000 S 
ATOM     33  C   UNL     1       6.679  11.445  25.410  0.00  0.00    +0.000 C 
ATOM     34  O   UNL     1       8.104  11.182  23.259  0.00  0.00    +0.000 OA
ATOM     35  O   UNL     1       8.389  13.293  24.626  0.00  0.00    +0.000 OA
ENDBRANCH  31  32
ENDBRANCH   4  31
TORSDOF 5
ENDMDL
MODEL 6
REMARK VINA RESULT:      -7.2      6.673      9.031
REMARK  Name = 
REMARK  8 active torsions:
REMARK  status: ('A' for Active; 'I' for Inactive)
REMARK    1  A    between atoms: C_1  and  C_2
REMARK    2  A    between atoms: C_2  and  C_3
REMARK    3  A    between atoms: C_2  and  C_4
REMARK    4  A    between atoms: C_5  and  C_6
REMARK    5  A    between atoms: C_17  and  C_18
REMARK    6  A    between atoms: C_18  and  S_19
REMARK    7  A    between atoms: S_19  and  C_20
REMARK    8  A    between atoms: C_23  and  C_24
REMARK                            x       y       z     vdW  Elec       q    Type
REMARK                         _______ _______ _______ _____ _____    ______ ____
ROOT
ATOM      1  C   UNL     1      -1.946  14.131  20.608  0.00  0.00    +0.000 A 
ATOM      2  C   UNL     1      -2.764  14.886  21.484  0.00  0.00    +0.000 A 
ATOM      3  N   UNL     1      -3.977  14.235  21.383  0.00  0.00    +0.000 N 
ATOM      4  C   UNL     1      -4.001  13.189  20.463  0.00  0.00    +0.000 A 
ATOM      5  C   UNL     1      -2.737  13.103  19.838  0.00  0.00    +0.000 A 
ATOM      6  H   UNL     1      -4.753  14.448  22.003  0.00  0.00    +0.000 HD
ENDROOT
BRANCH   2   7
ATOM      7  C   UNL     1      -2.517  15.903  22.631  0.00  0.00    +0.000 A 
ATOM      8  C   UNL     1      -1.534  15.538  23.562  0.00  0.00    +0.000 A 
ATOM      9  C   UNL     1      -2.038  14.864  24.670  0.00  0.00    +0.000 A 
ATOM     10  F   UNL     1      -2.545  13.641  24.401  0.00  0.00    +0.000 F 
ATOM     11  C   UNL     1      -2.899  15.591  25.472  0.00  0.00    +0.000 A 
ATOM     12  C   UNL     1      -3.771  16.386  24.721  0.00  0.00    +0.000 A 
ATOM     13  N   UNL     1      -4.705  17.280  25.209  0.00  0.00    +0.000 N 
ATOM     14  C   UNL     1      -4.358  18.478  24.650  0.00  0.00    +0.000 A 
ATOM     15  C   UNL     1      -3.652  18.155  23.497  0.00  0.00    +0.000 A 
ATOM     16  C   UNL     1      -3.536  16.683  23.342  0.00  0.00    +0.000 A 
ATOM     17  H   UNL     1      -5.153  17.186  26.112  0.00  0.00    +0.000 HD
ENDBRANCH   2   7
BRANCH   5  18
ATOM     18  C   UNL     1      -2.343  11.926  18.873  0.00  0.00    +0.000 A 
ATOM     19  C   UNL     1      -1.394  10.984  19.344  0.00  0.00    +0.000 A 
ATOM     20  C   UNL     1      -0.595  10.169  18.529  0.00  0.00    +0.000 A 
ATOM     21  C   UNL     1      -1.183   9.668  17.390  0.00  0.00    +0.000 A 
ATOM     22  C   UNL     1      -2.012  10.610  16.782  0.00  0.00    +0.000 A 
ATOM     23  N   UNL     1      -2.504  10.551  15.498  0.00  0.00    +0.000 N 
ATOM     24  C   UNL     1      -3.837  10.788  15.591  0.00  0.00    +0.000 A 
ATOM     25  C   UNL     1      -4.029  11.420  16.807  0.00  0.00    +0.000 A 
ATOM     26  C   UNL     1      -2.780  11.534  17.541  0.00  0.00    +0.000 A 
ATOM     27  H   UNL     1      -2.047  10.063  14.736  0.00  0.00    +0.000 HD
ENDBRANCH   5  18
BRANCH   1  29
ATOM     28  C   UNL     1       0.299  13.281  21.294  0.00  0.00    +0.000 C 
ATOM     29  C   UNL     1      -0.471  14.328  20.479  0.00  0.00    +0.000 C 
ATOM     30  C   UNL     1      -0.180  14.434  18.988  0.00  0.00    +0.000 C 
ENDBRANCH   1  29
BRANCH   4  31
ATOM     31  C   UNL     1      -5.235  12.307  20.432  0.00  0.00    +0.000 C 
BRANCH  31  32
ATOM     32  S   UNL     1      -6.436  12.708  21.700  0.00  0.00    +0.000 S 
ATOM     33  C   UNL     1      -7.683  11.477  21.521  0.00  0.00    +0.000 C 
ATOM     34  O   UNL     1      -5.797  12.488  22.985  0.00  0.00    +0.000 OA
ATOM     35  O   UNL     1      -7.023  14.026  21.392  0.00  0.00    +0.000 OA
ENDBRANCH  31  32
ENDBRANCH   4  31
TORSDOF 5
ENDMDL
MODEL 7
REMARK VINA RESULT:      -7.2      9.133     10.834
REMARK  Name = 
REMARK  8 active torsions:
REMARK  status: ('A' for Active; 'I' for Inactive)
REMARK    1  A    between atoms: C_1  and  C_2
REMARK    2  A    between atoms: C_2  and  C_3
REMARK    3  A    between atoms: C_2  and  C_4
REMARK    4  A    between atoms: C_5  and  C_6
REMARK    5  A    between atoms: C_17  and  C_18
REMARK    6  A    between atoms: C_18  and  S_19
REMARK    7  A    between atoms: S_19  and  C_20
REMARK    8  A    between atoms: C_23  and  C_24
REMARK                            x       y       z     vdW  Elec       q    Type
REMARK                         _______ _______ _______ _____ _____    ______ ____
ROOT
ATOM      1  C   UNL     1       8.183  14.324  21.399  0.00  0.00    +0.000 A 
ATOM      2  C   UNL     1       6.927  14.483  22.034  0.00  0.00    +0.000 A 
ATOM      3  N   UNL     1       6.094  14.751  20.967  0.00  0.00    +0.000 N 
ATOM      4  C   UNL     1       6.738  14.845  19.734  0.00  0.00    +0.000 A 
ATOM      5  C   UNL     1       8.126  14.670  19.931  0.00  0.00    +0.000 A 
ATOM      6  H   UNL     1       5.083  14.778  21.068  0.00  0.00    +0.000 HD
ENDROOT
BRANCH   2   7
ATOM      7  C   UNL     1       6.328  14.111  23.417  0.00  0.00    +0.000 A 
ATOM      8  C   UNL     1       5.979  15.195  24.236  0.00  0.00    +0.000 A 
ATOM      9  C   UNL     1       6.991  15.581  25.111  0.00  0.00    +0.000 A 
ATOM     10  F   UNL     1       8.082  16.106  24.513  0.00  0.00    +0.000 F 
ATOM     11  C   UNL     1       7.350  14.641  26.061  0.00  0.00    +0.000 A 
ATOM     12  C   UNL     1       7.383  13.346  25.533  0.00  0.00    +0.000 A 
ATOM     13  N   UNL     1       7.636  12.177  26.224  0.00  0.00    +0.000 N 
ATOM     14  C   UNL     1       6.525  11.408  26.015  0.00  0.00    +0.000 A 
ATOM     15  C   UNL     1       5.968  11.881  24.833  0.00  0.00    +0.000 A 
ATOM     16  C   UNL     1       6.759  13.014  24.290  0.00  0.00    +0.000 A 
ATOM     17  H   UNL     1       8.208  12.130  27.059  0.00  0.00    +0.000 HD
ENDBRANCH   2   7
BRANCH   5  18
ATOM     18  C   UNL     1       9.145  14.536  18.742  0.00  0.00    +0.000 A 
ATOM     19  C   UNL     1       9.195  13.294  18.060  0.00  0.00    +0.000 A 
ATOM     20  C   UNL     1      10.288  12.827  17.317  0.00  0.00    +0.000 A 
ATOM     21  C   UNL     1      10.980  13.761  16.580  0.00  0.00    +0.000 A 
ATOM     22  C   UNL     1      11.108  14.967  17.268  0.00  0.00    +0.000 A 
ATOM     23  N   UNL     1      11.979  15.989  16.962  0.00  0.00    +0.000 N 
ATOM     24  C   UNL     1      11.240  17.127  16.953  0.00  0.00    +0.000 A 
ATOM     25  C   UNL     1      10.096  16.845  17.681  0.00  0.00    +0.000 A 
ATOM     26  C   UNL     1      10.079  15.459  18.116  0.00  0.00    +0.000 A 
ATOM     27  H   UNL     1      12.861  15.858  16.481  0.00  0.00    +0.000 HD
ENDBRANCH   5  18
BRANCH   1  29
ATOM     28  C   UNL     1       9.848  12.474  21.597  0.00  0.00    +0.000 C 
ATOM     29  C   UNL     1       9.412  13.853  22.106  0.00  0.00    +0.000 C 
ATOM     30  C   UNL     1      10.416  14.997  22.030  0.00  0.00    +0.000 C 
ENDBRANCH   1  29
BRANCH   4  31
ATOM     31  C   UNL     1       5.872  14.948  18.493  0.00  0.00    +0.000 C 
BRANCH  31  32
ATOM     32  S   UNL     1       4.321  15.802  18.768  0.00  0.00    +0.000 S 
ATOM     33  C   UNL     1       3.546  15.813  17.186  0.00  0.00    +0.000 C 
ATOM     34  O   UNL     1       3.514  14.963  19.635  0.00  0.00    +0.000 OA
ATOM     35  O   UNL     1       4.614  17.193  19.163  0.00  0.00    +0.000 OA
ENDBRANCH  31  32
ENDBRANCH   4  31
TORSDOF 5
ENDMDL
MODEL 8
REMARK VINA RESULT:      -7.2      6.625      9.001
REMARK  Name = 
REMARK  8 active torsions:
REMARK  status: ('A' for Active; 'I' for Inactive)
REMARK    1  A    between atoms: C_1  and  C_2
REMARK    2  A    between atoms: C_2  and  C_3
REMARK    3  A    between atoms: C_2  and  C_4
REMARK    4  A    between atoms: C_5  and  C_6
REMARK    5  A    between atoms: C_17  and  C_18
REMARK    6  A    between atoms: C_18  and  S_19
REMARK    7  A    between atoms: S_19  and  C_20
REMARK    8  A    between atoms: C_23  and  C_24
REMARK                            x       y       z     vdW  Elec       q    Type
REMARK                         _______ _______ _______ _____ _____    ______ ____
ROOT
ATOM      1  C   UNL     1      -2.323  13.218  21.944  0.00  0.00    +0.000 A 
ATOM      2  C   UNL     1      -1.657  14.230  22.677  0.00  0.00    +0.000 A 
ATOM      3  N   UNL     1      -0.606  14.550  21.843  0.00  0.00    +0.000 N 
ATOM      4  C   UNL     1      -0.519  13.772  20.690  0.00  0.00    +0.000 A 
ATOM      5  C   UNL     1      -1.552  12.808  20.713  0.00  0.00    +0.000 A 
ATOM      6  H   UNL     1      -0.008  15.354  22.017  0.00  0.00    +0.000 HD
ENDROOT
BRANCH   2   7
ATOM      7  C   UNL     1      -2.022  15.161  23.865  0.00  0.00    +0.000 A 
ATOM      8  C   UNL     1      -3.031  16.101  23.609  0.00  0.00    +0.000 A 
ATOM      9  C   UNL     1      -2.547  17.334  23.179  0.00  0.00    +0.000 A 
ATOM     10  F   UNL     1      -1.958  17.314  21.964  0.00  0.00    +0.000 F 
ATOM     11  C   UNL     1      -1.774  18.025  24.095  0.00  0.00    +0.000 A 
ATOM     12  C   UNL     1      -0.910  17.178  24.797  0.00  0.00    +0.000 A 
ATOM     13  N   UNL     1      -0.056  17.533  25.824  0.00  0.00    +0.000 N 
ATOM     14  C   UNL     1      -0.442  16.751  26.877  0.00  0.00    +0.000 A 
ATOM     15  C   UNL     1      -1.065  15.648  26.306  0.00  0.00    +0.000 A 
ATOM     16  C   UNL     1      -1.089  15.759  24.825  0.00  0.00    +0.000 A 
ATOM     17  H   UNL     1       0.349  18.457  25.923  0.00  0.00    +0.000 HD
ENDBRANCH   2   7
BRANCH   5  18
ATOM     18  C   UNL     1      -1.872  11.873  19.490  0.00  0.00    +0.000 A 
ATOM     19  C   UNL     1      -0.995  10.785  19.252  0.00  0.00    +0.000 A 
ATOM     20  C   UNL     1      -0.832  10.137  18.019  0.00  0.00    +0.000 A 
ATOM     21  C   UNL     1      -1.964   9.964  17.256  0.00  0.00    +0.000 A 
ATOM     22  C   UNL     1      -2.801  11.078  17.319  0.00  0.00    +0.000 A 
ATOM     23  N   UNL     1      -3.841  11.361  16.463  0.00  0.00    +0.000 N 
ATOM     24  C   UNL     1      -4.908  11.657  17.247  0.00  0.00    +0.000 A 
ATOM     25  C   UNL     1      -4.390  11.991  18.487  0.00  0.00    +0.000 A 
ATOM     26  C   UNL     1      -2.946  11.842  18.508  0.00  0.00    +0.000 A 
ATOM     27  H   UNL     1      -3.890  11.041  15.503  0.00  0.00    +0.000 HD
ENDBRANCH   5  18
BRANCH   1  29
ATOM     28  C   UNL     1      -3.676  12.322  23.842  0.00  0.00    +0.000 C 
ATOM     29  C   UNL     1      -3.641  12.640  22.342  0.00  0.00    +0.000 C 
ATOM     30  C   UNL     1      -4.707  13.573  21.780  0.00  0.00    +0.000 C 
ENDBRANCH   1  29
BRANCH   4  31
ATOM     31  C   UNL     1       0.490  14.185  19.636  0.00  0.00    +0.000 C 
BRANCH  31  32
ATOM     32  S   UNL     1       2.076  13.367  19.800  0.00  0.00    +0.000 S 
ATOM     33  C   UNL     1       3.254  14.632  19.461  0.00  0.00    +0.000 C 
ATOM     34  O   UNL     1       2.230  12.999  21.195  0.00  0.00    +0.000 OA
ATOM     35  O   UNL     1       2.180  12.330  18.755  0.00  0.00    +0.000 OA
ENDBRANCH  31  32
ENDBRANCH   4  31
TORSDOF 5
ENDMDL
MODEL 9
REMARK VINA RESULT:      -7.2      9.051     10.855
REMARK  Name = 
REMARK  8 active torsions:
REMARK  status: ('A' for Active; 'I' for Inactive)
REMARK    1  A    between atoms: C_1  and  C_2
REMARK    2  A    between atoms: C_2  and  C_3
REMARK    3  A    between atoms: C_2  and  C_4
REMARK    4  A    between atoms: C_5  and  C_6
REMARK    5  A    between atoms: C_17  and  C_18
REMARK    6  A    between atoms: C_18  and  S_19
REMARK    7  A    between atoms: S_19  and  C_20
REMARK    8  A    between atoms: C_23  and  C_24
REMARK                            x       y       z     vdW  Elec       q    Type
REMARK                         _______ _______ _______ _____ _____    ______ ____
ROOT
ATOM      1  C   UNL     1       8.017  14.760  21.417  0.00  0.00    +0.000 A 
ATOM      2  C   UNL     1       6.700  14.677  21.929  0.00  0.00    +0.000 A 
ATOM      3  N   UNL     1       5.939  15.016  20.828  0.00  0.00    +0.000 N 
ATOM      4  C   UNL     1       6.674  15.375  19.700  0.00  0.00    +0.000 A 
ATOM      5  C   UNL     1       8.050  15.325  20.018  0.00  0.00    +0.000 A 
ATOM      6  H   UNL     1       4.927  14.914  20.822  0.00  0.00    +0.000 HD
ENDROOT
BRANCH   2   7
ATOM      7  C   UNL     1       6.030  14.027  23.169  0.00  0.00    +0.000 A 
ATOM      8  C   UNL     1       5.289  14.897  23.982  0.00  0.00    +0.000 A 
ATOM      9  C   UNL     1       6.023  15.439  25.034  0.00  0.00    +0.000 A 
ATOM     10  F   UNL     1       7.008  16.283  24.655  0.00  0.00    +0.000 F 
ATOM     11  C   UNL     1       6.481  14.532  25.972  0.00  0.00    +0.000 A 
ATOM     12  C   UNL     1       6.936  13.349  25.382  0.00  0.00    +0.000 A 
ATOM     13  N   UNL     1       7.391  12.220  26.035  0.00  0.00    +0.000 N 
ATOM     14  C   UNL     1       6.570  11.217  25.600  0.00  0.00    +0.000 A 
ATOM     15  C   UNL     1       6.082  11.648  24.372  0.00  0.00    +0.000 A 
ATOM     16  C   UNL     1       6.609  12.995  24.035  0.00  0.00    +0.000 A 
ATOM     17  H   UNL     1       7.828  12.237  26.948  0.00  0.00    +0.000 HD
ENDBRANCH   2   7
BRANCH   5  18
ATOM     18  C   UNL     1       9.180  15.494  18.939  0.00  0.00    +0.000 A 
ATOM     19  C   UNL     1       9.674  16.803  18.709  0.00  0.00    +0.000 A 
ATOM     20  C   UNL     1      10.312  17.228  17.535  0.00  0.00    +0.000 A 
ATOM     21  C   UNL     1      11.159  16.327  16.930  0.00  0.00    +0.000 A 
ATOM     22  C   UNL     1      10.650  15.030  16.980  0.00  0.00    +0.000 A 
ATOM     23  N   UNL     1      11.078  13.959  16.228  0.00  0.00    +0.000 N 
ATOM     24  C   UNL     1      11.272  12.937  17.099  0.00  0.00    +0.000 A 
ATOM     25  C   UNL     1      10.541  13.255  18.231  0.00  0.00    +0.000 A 
ATOM     26  C   UNL     1       9.910  14.557  18.098  0.00  0.00    +0.000 A 
ATOM     27  H   UNL     1      11.513  14.043  15.317  0.00  0.00    +0.000 HD
ENDBRANCH   5  18
BRANCH   1  29
ATOM     28  C   UNL     1       9.753  12.980  21.653  0.00  0.00    +0.000 C 
ATOM     29  C   UNL     1       9.228  14.323  22.176  0.00  0.00    +0.000 C 
ATOM     30  C   UNL     1      10.180  15.512  22.188  0.00  0.00    +0.000 C 
ENDBRANCH   1  29
BRANCH   4  31
ATOM     31  C   UNL     1       5.917  15.575  18.401  0.00  0.00    +0.000 C 
BRANCH  31  32
ATOM     32  S   UNL     1       4.178  15.938  18.631  0.00  0.00    +0.000 S 
ATOM     33  C   UNL     1       3.537  16.045  16.994  0.00  0.00    +0.000 C 
ATOM     34  O   UNL     1       3.573  14.774  19.253  0.00  0.00    +0.000 OA
ATOM     35  O   UNL     1       4.054  17.259  19.276  0.00  0.00    +0.000 OA
ENDBRANCH  31  32
ENDBRANCH   4  31
TORSDOF 5
ENDMDL
