MODEL 1
REMARK VINA RESULT:      -9.7      0.000      0.000
REMARK  Name = 
REMARK  9 active torsions:
REMARK  status: ('A' for Active; 'I' for Inactive)
REMARK    1  A    between atoms: C_1  and  C_2
REMARK    2  A    between atoms: C_6  and  O_7
REMARK    3  A    between atoms: O_7  and  C_8
REMARK    4  A    between atoms: C_8  and  C_9
REMARK    5  A    between atoms: C_9  and  N_10
REMARK    6  A    between atoms: C_13  and  C_14
REMARK    7  A    between atoms: C_14  and  C_15
REMARK    8  A    between atoms: C_19  and  N_20
REMARK    9  A    between atoms: N_23  and  C_24
REMARK                            x       y       z     vdW  Elec       q    Type
REMARK                         _______ _______ _______ _____ _____    ______ ____
ROOT
ATOM      1  N   UNL     1       2.414   2.225  19.320  0.00  0.00    +0.000 NA
ATOM      2  C   UNL     1       2.666   2.569  20.730  0.00  0.00    +0.000 C 
ATOM      3  C   UNL     1       1.510   3.341  21.355  0.00  0.00    +0.000 C 
ATOM      4  C   UNL     1       1.209   4.626  20.585  0.00  0.00    +0.000 C 
ATOM      5  C   UNL     1       0.936   4.229  19.124  0.00  0.00    +0.000 C 
ATOM      6  C   UNL     1       2.079   3.400  18.509  0.00  0.00    +0.000 C 
ENDROOT
BRANCH   1   7
ATOM      7  C   UNL     1       3.536   1.450  18.721  0.00  0.00    +0.000 C 
BRANCH   7   8
ATOM      8  C   UNL     1       4.832   2.258  18.854  0.00  0.00    +0.000 C 
BRANCH   8   9
ATOM      9  O   UNL     1       4.721   3.647  19.080  0.00  0.00    +0.000 OA
BRANCH   9  15
ATOM     10  C   UNL     1       7.375   5.076  12.965  0.00  0.00    +0.000 C 
ATOM     11  C   UNL     1       6.885   4.853  14.361  0.00  0.00    +0.000 A 
ATOM     12  C   UNL     1       5.890   3.937  14.606  0.00  0.00    +0.000 A 
ATOM     13  C   UNL     1       5.465   3.767  15.918  0.00  0.00    +0.000 A 
ATOM     14  C   UNL     1       6.015   4.491  17.020  0.00  0.00    +0.000 A 
ATOM     15  C   UNL     1       5.678   4.424  18.433  0.00  0.00    +0.000 A 
ATOM     16  C   UNL     1       6.363   5.226  19.357  0.00  0.00    +0.000 A 
ATOM     17  C   UNL     1       7.358   6.093  18.936  0.00  0.00    +0.000 A 
ATOM     18  C   UNL     1       7.674   6.167  17.583  0.00  0.00    +0.000 A 
ATOM     19  C   UNL     1       7.034   5.394  16.626  0.00  0.00    +0.000 A 
ATOM     20  N   UNL     1       7.449   5.570  15.353  0.00  0.00    +0.000 NA
ENDBRANCH   9  15
ENDBRANCH   8   9
ENDBRANCH   7   8
ENDBRANCH   1   7
BRANCH   4  21
ATOM     21  C   UNL     1       2.335   5.684  20.669  0.00  0.00    +0.000 C 
BRANCH  21  22
ATOM     22  C   UNL     1       2.097   6.958  19.899  0.00  0.00    +0.000 A 
ATOM     23  C   UNL     1       2.340   7.033  18.525  0.00  0.00    +0.000 A 
ATOM     24  C   UNL     1       2.095   8.220  17.837  0.00  0.00    +0.000 A 
ATOM     25  C   UNL     1       1.577   9.330  18.512  0.00  0.00    +0.000 A 
ATOM     26  C   UNL     1       1.292   9.292  19.883  0.00  0.00    +0.000 A 
ATOM     27  C   UNL     1       1.581   8.093  20.555  0.00  0.00    +0.000 A 
BRANCH  26  28
ATOM     28  N   UNL     1       0.691  10.361  20.526  0.00  0.00    +0.000 N 
ATOM     29  C   UNL     1       0.653  11.707  19.953  0.00  0.00    +0.000 C 
ATOM     30  C   UNL     1      -0.763  12.260  20.133  0.00  0.00    +0.000 C 
ATOM     31  N   UNL     1      -1.136  12.280  21.545  0.00  0.00    +0.000 N 
ATOM     32  C   UNL     1      -2.103  13.249  22.009  0.00  0.00    +0.000 C 
ATOM     33  C   UNL     1      -0.952  11.119  22.298  0.00  0.00    +0.000 C 
ATOM     34  O   UNL     1      -1.643  10.858  23.285  0.00  0.00    +0.000 OA
ATOM     35  C   UNL     1       0.267  10.249  21.934  0.00  0.00    +0.000 C 
ENDBRANCH  26  28
ENDBRANCH  21  22
ENDBRANCH   4  21
TORSDOF 7
ENDMDL
MODEL 2
REMARK VINA RESULT:      -9.7      0.926      1.175
REMARK  Name = 
REMARK  9 active torsions:
REMARK  status: ('A' for Active; 'I' for Inactive)
REMARK    1  A    between atoms: C_1  and  C_2
REMARK    2  A    between atoms: C_6  and  O_7
REMARK    3  A    between atoms: O_7  and  C_8
REMARK    4  A    between atoms: C_8  and  C_9
REMARK    5  A    between atoms: C_9  and  N_10
REMARK    6  A    between atoms: C_13  and  C_14
REMARK    7  A    between atoms: C_14  and  C_15
REMARK    8  A    between atoms: C_19  and  N_20
REMARK    9  A    between atoms: N_23  and  C_24
REMARK                            x       y       z     vdW  Elec       q    Type
REMARK                         _______ _______ _______ _____ _____    ______ ____
ROOT
ATOM      1  N   UNL     1       2.421   2.338  19.346  0.00  0.00    +0.000 NA
ATOM      2  C   UNL     1       3.010   2.732  20.638  0.00  0.00    +0.000 C 
ATOM      3  C   UNL     1       2.063   3.587  21.472  0.00  0.00    +0.000 C 
ATOM      4  C   UNL     1       1.637   4.850  20.723  0.00  0.00    +0.000 C 
ATOM      5  C   UNL     1       1.014   4.402  19.389  0.00  0.00    +0.000 C 
ATOM      6  C   UNL     1       1.949   3.491  18.572  0.00  0.00    +0.000 C 
ENDROOT
BRANCH   1   7
ATOM      7  C   UNL     1       3.342   1.483  18.547  0.00  0.00    +0.000 C 
BRANCH   7   8
ATOM      8  C   UNL     1       4.545   2.320  18.100  0.00  0.00    +0.000 C 
BRANCH   8   9
ATOM      9  O   UNL     1       4.839   3.492  18.831  0.00  0.00    +0.000 OA
BRANCH   9  15
ATOM     10  C   UNL     1       7.517   5.132  12.780  0.00  0.00    +0.000 C 
ATOM     11  C   UNL     1       7.007   4.874  14.163  0.00  0.00    +0.000 A 
ATOM     12  C   UNL     1       6.128   3.844  14.395  0.00  0.00    +0.000 A 
ATOM     13  C   UNL     1       5.680   3.646  15.695  0.00  0.00    +0.000 A 
ATOM     14  C   UNL     1       6.091   4.455  16.798  0.00  0.00    +0.000 A 
ATOM     15  C   UNL     1       5.713   4.372  18.199  0.00  0.00    +0.000 A 
ATOM     16  C   UNL     1       6.256   5.272  19.128  0.00  0.00    +0.000 A 
ATOM     17  C   UNL     1       7.148   6.252  18.721  0.00  0.00    +0.000 A 
ATOM     18  C   UNL     1       7.502   6.340  17.378  0.00  0.00    +0.000 A 
ATOM     19  C   UNL     1       7.002   5.473  16.418  0.00  0.00    +0.000 A 
ATOM     20  N   UNL     1       7.439   5.676  15.157  0.00  0.00    +0.000 NA
ENDBRANCH   9  15
ENDBRANCH   8   9
ENDBRANCH   7   8
ENDBRANCH   1   7
BRANCH   4  21
ATOM     21  C   UNL     1       2.790   5.854  20.484  0.00  0.00    +0.000 C 
BRANCH  21  22
ATOM     22  C   UNL     1       2.432   7.088  19.696  0.00  0.00    +0.000 A 
ATOM     23  C   UNL     1       2.730   7.193  18.335  0.00  0.00    +0.000 A 
ATOM     24  C   UNL     1       2.371   8.340  17.630  0.00  0.00    +0.000 A 
ATOM     25  C   UNL     1       1.687   9.377  18.273  0.00  0.00    +0.000 A 
ATOM     26  C   UNL     1       1.344   9.304  19.629  0.00  0.00    +0.000 A 
ATOM     27  C   UNL     1       1.748   8.149  20.320  0.00  0.00    +0.000 A 
BRANCH  26  28
ATOM     28  N   UNL     1       0.583  10.288  20.237  0.00  0.00    +0.000 N 
ATOM     29  C   UNL     1      -0.726  10.018  20.831  0.00  0.00    +0.000 C 
ATOM     30  C   UNL     1      -0.783  10.716  22.192  0.00  0.00    +0.000 C 
ATOM     31  N   UNL     1      -0.558  12.152  22.048  0.00  0.00    +0.000 N 
ATOM     32  C   UNL     1      -1.124  13.060  23.019  0.00  0.00    +0.000 C 
ATOM     33  C   UNL     1       0.547  12.582  21.309  0.00  0.00    +0.000 C 
ATOM     34  O   UNL     1       1.100  13.663  21.521  0.00  0.00    +0.000 OA
ATOM     35  C   UNL     1       0.949  11.710  20.103  0.00  0.00    +0.000 C 
ENDBRANCH  26  28
ENDBRANCH  21  22
ENDBRANCH   4  21
TORSDOF 7
ENDMDL
MODEL 3
REMARK VINA RESULT:      -9.3      0.896      2.238
REMARK  Name = 
REMARK  9 active torsions:
REMARK  status: ('A' for Active; 'I' for Inactive)
REMARK    1  A    between atoms: C_1  and  C_2
REMARK    2  A    between atoms: C_6  and  O_7
REMARK    3  A    between atoms: O_7  and  C_8
REMARK    4  A    between atoms: C_8  and  C_9
REMARK    5  A    between atoms: C_9  and  N_10
REMARK    6  A    between atoms: C_13  and  C_14
REMARK    7  A    between atoms: C_14  and  C_15
REMARK    8  A    between atoms: C_19  and  N_20
REMARK    9  A    between atoms: N_23  and  C_24
REMARK                            x       y       z     vdW  Elec       q    Type
REMARK                         _______ _______ _______ _____ _____    ______ ____
ROOT
ATOM      1  N   UNL     1       2.463   2.563  19.305  0.00  0.00    +0.000 NA
ATOM      2  C   UNL     1       3.127   2.919  20.572  0.00  0.00    +0.000 C 
ATOM      3  C   UNL     1       2.199   3.663  21.525  0.00  0.00    +0.000 C 
ATOM      4  C   UNL     1       1.643   4.938  20.890  0.00  0.00    +0.000 C 
ATOM      5  C   UNL     1       0.945   4.528  19.581  0.00  0.00    +0.000 C 
ATOM      6  C   UNL     1       1.864   3.726  18.641  0.00  0.00    +0.000 C 
ENDROOT
BRANCH   1   7
ATOM      7  C   UNL     1       3.367   1.816  18.388  0.00  0.00    +0.000 C 
BRANCH   7   8
ATOM      8  C   UNL     1       3.849   2.757  17.279  0.00  0.00    +0.000 C 
BRANCH   8   9
ATOM      9  O   UNL     1       5.091   2.474  16.670  0.00  0.00    +0.000 OA
BRANCH   9  15
ATOM     10  C   UNL     1       8.341   8.239  18.306  0.00  0.00    +0.000 C 
ATOM     11  C   UNL     1       7.649   7.008  17.813  0.00  0.00    +0.000 A 
ATOM     12  C   UNL     1       7.082   6.129  18.705  0.00  0.00    +0.000 A 
ATOM     13  C   UNL     1       6.454   4.998  18.200  0.00  0.00    +0.000 A 
ATOM     14  C   UNL     1       6.363   4.709  16.804  0.00  0.00    +0.000 A 
ATOM     15  C   UNL     1       5.744   3.579  16.130  0.00  0.00    +0.000 A 
ATOM     16  C   UNL     1       5.760   3.500  14.730  0.00  0.00    +0.000 A 
ATOM     17  C   UNL     1       6.370   4.491  13.976  0.00  0.00    +0.000 A 
ATOM     18  C   UNL     1       6.972   5.567  14.620  0.00  0.00    +0.000 A 
ATOM     19  C   UNL     1       6.981   5.699  16.000  0.00  0.00    +0.000 A 
ATOM     20  N   UNL     1       7.599   6.798  16.482  0.00  0.00    +0.000 NA
ENDBRANCH   9  15
ENDBRANCH   8   9
ENDBRANCH   7   8
ENDBRANCH   1   7
BRANCH   4  21
ATOM     21  C   UNL     1       2.712   6.025  20.628  0.00  0.00    +0.000 C 
BRANCH  21  22
ATOM     22  C   UNL     1       2.268   7.193  19.785  0.00  0.00    +0.000 A 
ATOM     23  C   UNL     1       2.432   7.192  18.397  0.00  0.00    +0.000 A 
ATOM     24  C   UNL     1       1.996   8.279  17.643  0.00  0.00    +0.000 A 
ATOM     25  C   UNL     1       1.366   9.361  18.267  0.00  0.00    +0.000 A 
ATOM     26  C   UNL     1       1.155   9.393  19.651  0.00  0.00    +0.000 A 
ATOM     27  C   UNL     1       1.635   8.297  20.387  0.00  0.00    +0.000 A 
BRANCH  26  28
ATOM     28  N   UNL     1       0.446  10.420  20.251  0.00  0.00    +0.000 N 
ATOM     29  C   UNL     1       0.081  11.646  19.540  0.00  0.00    +0.000 C 
ATOM     30  C   UNL     1      -1.381  11.965  19.864  0.00  0.00    +0.000 C 
ATOM     31  N   UNL     1      -1.571  12.116  21.305  0.00  0.00    +0.000 N 
ATOM     32  C   UNL     1      -2.640  12.958  21.795  0.00  0.00    +0.000 C 
ATOM     33  C   UNL     1      -1.076  11.120  22.149  0.00  0.00    +0.000 C 
ATOM     34  O   UNL     1      -1.575  10.884  23.251  0.00  0.00    +0.000 OA
ATOM     35  C   UNL     1       0.231  10.433  21.709  0.00  0.00    +0.000 C 
ENDBRANCH  26  28
ENDBRANCH  21  22
ENDBRANCH   4  21
TORSDOF 7
ENDMDL
MODEL 4
REMARK VINA RESULT:      -9.3      2.458      3.781
REMARK  Name = 
REMARK  9 active torsions:
REMARK  status: ('A' for Active; 'I' for Inactive)
REMARK    1  A    between atoms: C_1  and  C_2
REMARK    2  A    between atoms: C_6  and  O_7
REMARK    3  A    between atoms: O_7  and  C_8
REMARK    4  A    between atoms: C_8  and  C_9
REMARK    5  A    between atoms: C_9  and  N_10
REMARK    6  A    between atoms: C_13  and  C_14
REMARK    7  A    between atoms: C_14  and  C_15
REMARK    8  A    between atoms: C_19  and  N_20
REMARK    9  A    between atoms: N_23  and  C_24
REMARK                            x       y       z     vdW  Elec       q    Type
REMARK                         _______ _______ _______ _____ _____    ______ ____
ROOT
ATOM      1  N   UNL     1       2.480   5.886  19.281  0.00  0.00    +0.000 NA
ATOM      2  C   UNL     1       2.537   6.591  17.989  0.00  0.00    +0.000 C 
ATOM      3  C   UNL     1       2.968   8.045  18.140  0.00  0.00    +0.000 C 
ATOM      4  C   UNL     1       2.038   8.816  19.076  0.00  0.00    +0.000 C 
ATOM      5  C   UNL     1       2.014   8.061  20.418  0.00  0.00    +0.000 C 
ATOM      6  C   UNL     1       1.634   6.577  20.260  0.00  0.00    +0.000 C 
ENDROOT
BRANCH   1   7
ATOM      7  C   UNL     1       2.081   4.460  19.126  0.00  0.00    +0.000 C 
BRANCH   7   8
ATOM      8  C   UNL     1       3.330   3.576  19.213  0.00  0.00    +0.000 C 
BRANCH   8   9
ATOM      9  O   UNL     1       3.989   3.248  18.008  0.00  0.00    +0.000 OA
BRANCH   9  15
ATOM     10  C   UNL     1       7.999   5.379  12.923  0.00  0.00    +0.000 C 
ATOM     11  C   UNL     1       7.201   4.984  14.126  0.00  0.00    +0.000 A 
ATOM     12  C   UNL     1       6.132   4.131  13.996  0.00  0.00    +0.000 A 
ATOM     13  C   UNL     1       5.420   3.796  15.141  0.00  0.00    +0.000 A 
ATOM     14  C   UNL     1       5.748   4.289  16.441  0.00  0.00    +0.000 A 
ATOM     15  C   UNL     1       5.104   4.031  17.719  0.00  0.00    +0.000 A 
ATOM     16  C   UNL     1       5.607   4.616  18.890  0.00  0.00    +0.000 A 
ATOM     17  C   UNL     1       6.713   5.450  18.841  0.00  0.00    +0.000 A 
ATOM     18  C   UNL     1       7.323   5.706  17.618  0.00  0.00    +0.000 A 
ATOM     19  C   UNL     1       6.873   5.150  16.430  0.00  0.00    +0.000 A 
ATOM     20  N   UNL     1       7.568   5.486  15.322  0.00  0.00    +0.000 NA
ENDBRANCH   9  15
ENDBRANCH   8   9
ENDBRANCH   7   8
ENDBRANCH   1   7
BRANCH   4  21
ATOM     21  C   UNL     1       0.605   9.001  18.522  0.00  0.00    +0.000 C 
BRANCH  21  22
ATOM     22  C   UNL     1       0.028  10.388  18.644  0.00  0.00    +0.000 A 
ATOM     23  C   UNL     1       0.833  11.523  18.519  0.00  0.00    +0.000 A 
ATOM     24  C   UNL     1       0.268  12.793  18.620  0.00  0.00    +0.000 A 
ATOM     25  C   UNL     1      -1.109  12.937  18.817  0.00  0.00    +0.000 A 
ATOM     26  C   UNL     1      -1.959  11.828  18.920  0.00  0.00    +0.000 A 
ATOM     27  C   UNL     1      -1.355  10.562  18.847  0.00  0.00    +0.000 A 
BRANCH  26  28
ATOM     28  N   UNL     1      -3.332  11.975  19.018  0.00  0.00    +0.000 N 
ATOM     29  C   UNL     1      -4.235  11.711  17.897  0.00  0.00    +0.000 C 
ATOM     30  C   UNL     1      -5.419  10.897  18.424  0.00  0.00    +0.000 C 
ATOM     31  N   UNL     1      -6.107  11.615  19.495  0.00  0.00    +0.000 N 
ATOM     32  C   UNL     1      -7.512  11.366  19.727  0.00  0.00    +0.000 C 
ATOM     33  C   UNL     1      -5.345  12.130  20.546  0.00  0.00    +0.000 C 
ATOM     34  O   UNL     1      -5.809  12.293  21.676  0.00  0.00    +0.000 OA
ATOM     35  C   UNL     1      -3.935  12.638  20.189  0.00  0.00    +0.000 C 
ENDBRANCH  26  28
ENDBRANCH  21  22
ENDBRANCH   4  21
TORSDOF 7
ENDMDL
MODEL 5
REMARK VINA RESULT:      -9.3      2.609      3.977
REMARK  Name = 
REMARK  9 active torsions:
REMARK  status: ('A' for Active; 'I' for Inactive)
REMARK    1  A    between atoms: C_1  and  C_2
REMARK    2  A    between atoms: C_6  and  O_7
REMARK    3  A    between atoms: O_7  and  C_8
REMARK    4  A    between atoms: C_8  and  C_9
REMARK    5  A    between atoms: C_9  and  N_10
REMARK    6  A    between atoms: C_13  and  C_14
REMARK    7  A    between atoms: C_14  and  C_15
REMARK    8  A    between atoms: C_19  and  N_20
REMARK    9  A    between atoms: N_23  and  C_24
REMARK                            x       y       z     vdW  Elec       q    Type
REMARK                         _______ _______ _______ _____ _____    ______ ____
ROOT
ATOM      1  N   UNL     1       2.556   6.156  19.316  0.00  0.00    +0.000 NA
ATOM      2  C   UNL     1       2.614   6.671  17.937  0.00  0.00    +0.000 C 
ATOM      3  C   UNL     1       2.945   8.158  17.886  0.00  0.00    +0.000 C 
ATOM      4  C   UNL     1       1.934   8.989  18.676  0.00  0.00    +0.000 C 
ATOM      5  C   UNL     1       1.911   8.435  20.111  0.00  0.00    +0.000 C 
ATOM      6  C   UNL     1       1.632   6.921  20.161  0.00  0.00    +0.000 C 
ENDROOT
BRANCH   1   7
ATOM      7  C   UNL     1       2.256   4.698  19.360  0.00  0.00    +0.000 C 
BRANCH   7   8
ATOM      8  C   UNL     1       3.552   3.925  19.626  0.00  0.00    +0.000 C 
BRANCH   8   9
ATOM      9  O   UNL     1       4.254   3.415  18.513  0.00  0.00    +0.000 OA
BRANCH   9  15
ATOM     10  C   UNL     1       7.779   5.244  12.971  0.00  0.00    +0.000 C 
ATOM     11  C   UNL     1       7.091   4.925  14.261  0.00  0.00    +0.000 A 
ATOM     12  C   UNL     1       6.050   4.029  14.286  0.00  0.00    +0.000 A 
ATOM     13  C   UNL     1       5.440   3.768  15.506  0.00  0.00    +0.000 A 
ATOM     14  C   UNL     1       5.846   4.379  16.732  0.00  0.00    +0.000 A 
ATOM     15  C   UNL     1       5.311   4.208  18.074  0.00  0.00    +0.000 A 
ATOM     16  C   UNL     1       5.878   4.906  19.150  0.00  0.00    +0.000 A 
ATOM     17  C   UNL     1       6.943   5.769  18.947  0.00  0.00    +0.000 A 
ATOM     18  C   UNL     1       7.449   5.942  17.662  0.00  0.00    +0.000 A 
ATOM     19  C   UNL     1       6.932   5.273  16.563  0.00  0.00    +0.000 A 
ATOM     20  N   UNL     1       7.527   5.538  15.380  0.00  0.00    +0.000 NA
ENDBRANCH   9  15
ENDBRANCH   8   9
ENDBRANCH   7   8
ENDBRANCH   1   7
BRANCH   4  21
ATOM     21  C   UNL     1       0.513   8.993  18.063  0.00  0.00    +0.000 C 
BRANCH  21  22
ATOM     22  C   UNL     1      -0.312  10.226  18.329  0.00  0.00    +0.000 A 
ATOM     23  C   UNL     1      -1.708  10.191  18.277  0.00  0.00    +0.000 A 
ATOM     24  C   UNL     1      -2.444  11.344  18.544  0.00  0.00    +0.000 A 
ATOM     25  C   UNL     1      -1.792  12.531  18.894  0.00  0.00    +0.000 A 
ATOM     26  C   UNL     1      -0.396  12.605  18.986  0.00  0.00    +0.000 A 
ATOM     27  C   UNL     1       0.319  11.435  18.678  0.00  0.00    +0.000 A 
BRANCH  26  28
ATOM     28  N   UNL     1       0.240  13.753  19.426  0.00  0.00    +0.000 N 
ATOM     29  C   UNL     1       1.164  13.757  20.561  0.00  0.00    +0.000 C 
ATOM     30  C   UNL     1       2.392  14.583  20.171  0.00  0.00    +0.000 C 
ATOM     31  N   UNL     1       2.007  15.943  19.802  0.00  0.00    +0.000 N 
ATOM     32  C   UNL     1       2.956  17.020  19.972  0.00  0.00    +0.000 C 
ATOM     33  C   UNL     1       0.973  16.114  18.879  0.00  0.00    +0.000 C 
ATOM     34  O   UNL     1       0.898  17.107  18.152  0.00  0.00    +0.000 OA
ATOM     35  C   UNL     1      -0.166  15.078  18.922  0.00  0.00    +0.000 C 
ENDBRANCH  26  28
ENDBRANCH  21  22
ENDBRANCH   4  21
TORSDOF 7
ENDMDL
MODEL 6
REMARK VINA RESULT:      -9.2      2.324      3.619
REMARK  Name = 
REMARK  9 active torsions:
REMARK  status: ('A' for Active; 'I' for Inactive)
REMARK    1  A    between atoms: C_1  and  C_2
REMARK    2  A    between atoms: C_6  and  O_7
REMARK    3  A    between atoms: O_7  and  C_8
REMARK    4  A    between atoms: C_8  and  C_9
REMARK    5  A    between atoms: C_9  and  N_10
REMARK    6  A    between atoms: C_13  and  C_14
REMARK    7  A    between atoms: C_14  and  C_15
REMARK    8  A    between atoms: C_19  and  N_20
REMARK    9  A    between atoms: N_23  and  C_24
REMARK                            x       y       z     vdW  Elec       q    Type
REMARK                         _______ _______ _______ _____ _____    ______ ____
ROOT
ATOM      1  N   UNL     1       2.508   5.969  19.169  0.00  0.00    +0.000 NA
ATOM      2  C   UNL     1       2.629   6.586  17.836  0.00  0.00    +0.000 C 
ATOM      3  C   UNL     1       3.014   8.059  17.910  0.00  0.00    +0.000 C 
ATOM      4  C   UNL     1       2.007   8.864  18.732  0.00  0.00    +0.000 C 
ATOM      5  C   UNL     1       1.917   8.203  20.119  0.00  0.00    +0.000 C 
ATOM      6  C   UNL     1       1.585   6.701  20.042  0.00  0.00    +0.000 C 
ENDROOT
BRANCH   1   7
ATOM      7  C   UNL     1       2.155   4.525  19.090  0.00  0.00    +0.000 C 
BRANCH   7   8
ATOM      8  C   UNL     1       3.434   3.688  19.198  0.00  0.00    +0.000 C 
BRANCH   8   9
ATOM      9  O   UNL     1       4.087   3.326  17.999  0.00  0.00    +0.000 OA
BRANCH   9  15
ATOM     10  C   UNL     1       8.013   5.343  12.803  0.00  0.00    +0.000 C 
ATOM     11  C   UNL     1       7.234   4.976  14.027  0.00  0.00    +0.000 A 
ATOM     12  C   UNL     1       6.171   4.110  13.936  0.00  0.00    +0.000 A 
ATOM     13  C   UNL     1       5.477   3.802  15.099  0.00  0.00    +0.000 A 
ATOM     14  C   UNL     1       5.816   4.336  16.380  0.00  0.00    +0.000 A 
ATOM     15  C   UNL     1       5.190   4.110  17.673  0.00  0.00    +0.000 A 
ATOM     16  C   UNL     1       5.702   4.734  18.820  0.00  0.00    +0.000 A 
ATOM     17  C   UNL     1       6.800   5.576  18.733  0.00  0.00    +0.000 A 
ATOM     18  C   UNL     1       7.393   5.802  17.495  0.00  0.00    +0.000 A 
ATOM     19  C   UNL     1       6.933   5.207  16.330  0.00  0.00    +0.000 A 
ATOM     20  N   UNL     1       7.611   5.517  15.204  0.00  0.00    +0.000 NA
ENDBRANCH   9  15
ENDBRANCH   8   9
ENDBRANCH   7   8
ENDBRANCH   1   7
BRANCH   4  21
ATOM     21  C   UNL     1       0.608   8.969  18.079  0.00  0.00    +0.000 C 
BRANCH  21  22
ATOM     22  C   UNL     1      -0.162  10.230  18.375  0.00  0.00    +0.000 A 
ATOM     23  C   UNL     1      -1.559  10.251  18.355  0.00  0.00    +0.000 A 
ATOM     24  C   UNL     1      -2.242  11.430  18.650  0.00  0.00    +0.000 A 
ATOM     25  C   UNL     1      -1.534  12.587  18.994  0.00  0.00    +0.000 A 
ATOM     26  C   UNL     1      -0.136  12.604  19.054  0.00  0.00    +0.000 A 
ATOM     27  C   UNL     1       0.526  11.411  18.719  0.00  0.00    +0.000 A 
BRANCH  26  28
ATOM     28  N   UNL     1       0.556  13.723  19.488  0.00  0.00    +0.000 N 
ATOM     29  C   UNL     1       0.379  15.043  18.881  0.00  0.00    +0.000 C 
ATOM     30  C   UNL     1       0.262  16.071  20.009  0.00  0.00    +0.000 C 
ATOM     31  N   UNL     1       1.445  16.040  20.865  0.00  0.00    +0.000 N 
ATOM     32  C   UNL     1       1.835  17.234  21.581  0.00  0.00    +0.000 C 
ATOM     33  C   UNL     1       1.879  14.806  21.355  0.00  0.00    +0.000 C 
ATOM     34  O   UNL     1       2.502  14.701  22.413  0.00  0.00    +0.000 OA
ATOM     35  C   UNL     1       1.684  13.591  20.428  0.00  0.00    +0.000 C 
ENDBRANCH  26  28
ENDBRANCH  21  22
ENDBRANCH   4  21
TORSDOF 7
ENDMDL
MODEL 7
REMARK VINA RESULT:      -9.1      1.246      1.489
REMARK  Name = 
REMARK  9 active torsions:
REMARK  status: ('A' for Active; 'I' for Inactive)
REMARK    1  A    between atoms: C_1  and  C_2
REMARK    2  A    between atoms: C_6  and  O_7
REMARK    3  A    between atoms: O_7  and  C_8
REMARK    4  A    between atoms: C_8  and  C_9
REMARK    5  A    between atoms: C_9  and  N_10
REMARK    6  A    between atoms: C_13  and  C_14
REMARK    7  A    between atoms: C_14  and  C_15
REMARK    8  A    between atoms: C_19  and  N_20
REMARK    9  A    between atoms: N_23  and  C_24
REMARK                            x       y       z     vdW  Elec       q    Type
REMARK                         _______ _______ _______ _____ _____    ______ ____
ROOT
ATOM      1  N   UNL     1       2.866   2.412  19.803  0.00  0.00    +0.000 NA
ATOM      2  C   UNL     1       2.643   2.873  21.185  0.00  0.00    +0.000 C 
ATOM      3  C   UNL     1       1.293   3.560  21.357  0.00  0.00    +0.000 C 
ATOM      4  C   UNL     1       1.143   4.754  20.413  0.00  0.00    +0.000 C 
ATOM      5  C   UNL     1       1.367   4.234  18.982  0.00  0.00    +0.000 C 
ATOM      6  C   UNL     1       2.705   3.489  18.820  0.00  0.00    +0.000 C 
ENDROOT
BRANCH   1   7
ATOM      7  C   UNL     1       4.175   1.720  19.646  0.00  0.00    +0.000 C 
BRANCH   7   8
ATOM      8  C   UNL     1       5.124   2.615  18.842  0.00  0.00    +0.000 C 
BRANCH   8   9
ATOM      9  O   UNL     1       5.419   3.894  19.362  0.00  0.00    +0.000 OA
BRANCH   9  15
ATOM     10  C   UNL     1       7.185   4.880  12.852  0.00  0.00    +0.000 C 
ATOM     11  C   UNL     1       6.880   4.773  14.313  0.00  0.00    +0.000 A 
ATOM     12  C   UNL     1       6.068   3.765  14.776  0.00  0.00    +0.000 A 
ATOM     13  C   UNL     1       5.810   3.709  16.140  0.00  0.00    +0.000 A 
ATOM     14  C   UNL     1       6.351   4.639  17.080  0.00  0.00    +0.000 A 
ATOM     15  C   UNL     1       6.175   4.708  18.522  0.00  0.00    +0.000 A 
ATOM     16  C   UNL     1       6.818   5.710  19.261  0.00  0.00    +0.000 A 
ATOM     17  C   UNL     1       7.620   6.648  18.629  0.00  0.00    +0.000 A 
ATOM     18  C   UNL     1       7.781   6.590  17.248  0.00  0.00    +0.000 A 
ATOM     19  C   UNL     1       7.174   5.617  16.468  0.00  0.00    +0.000 A 
ATOM     20  N   UNL     1       7.425   5.684  15.143  0.00  0.00    +0.000 NA
ENDBRANCH   9  15
ENDBRANCH   8   9
ENDBRANCH   7   8
ENDBRANCH   1   7
BRANCH   4  21
ATOM     21  C   UNL     1       2.102   5.926  20.730  0.00  0.00    +0.000 C 
BRANCH  21  22
ATOM     22  C   UNL     1       2.021   7.110  19.800  0.00  0.00    +0.000 A 
ATOM     23  C   UNL     1       2.605   7.078  18.531  0.00  0.00    +0.000 A 
ATOM     24  C   UNL     1       2.498   8.182  17.688  0.00  0.00    +0.000 A 
ATOM     25  C   UNL     1       1.783   9.313  18.095  0.00  0.00    +0.000 A 
ATOM     26  C   UNL     1       1.158   9.379  19.346  0.00  0.00    +0.000 A 
ATOM     27  C   UNL     1       1.311   8.263  20.187  0.00  0.00    +0.000 A 
BRANCH  26  28
ATOM     28  N   UNL     1       0.372  10.460  19.707  0.00  0.00    +0.000 N 
ATOM     29  C   UNL     1      -0.186  10.615  21.051  0.00  0.00    +0.000 C 
ATOM     30  C   UNL     1       0.028  12.066  21.488  0.00  0.00    +0.000 C 
ATOM     31  N   UNL     1      -0.602  12.990  20.548  0.00  0.00    +0.000 N 
ATOM     32  C   UNL     1      -1.044  14.285  21.013  0.00  0.00    +0.000 C 
ATOM     33  C   UNL     1      -0.341  12.833  19.185  0.00  0.00    +0.000 C 
ATOM     34  O   UNL     1      -0.390  13.776  18.393  0.00  0.00    +0.000 OA
ATOM     35  C   UNL     1      -0.143  11.389  18.685  0.00  0.00    +0.000 C 
ENDBRANCH  26  28
ENDBRANCH  21  22
ENDBRANCH   4  21
TORSDOF 7
ENDMDL
MODEL 8
REMARK VINA RESULT:      -9.0      2.539      3.723
REMARK  Name = 
REMARK  9 active torsions:
REMARK  status: ('A' for Active; 'I' for Inactive)
REMARK    1  A    between atoms: C_1  and  C_2
REMARK    2  A    between atoms: C_6  and  O_7
REMARK    3  A    between atoms: O_7  and  C_8
REMARK    4  A    between atoms: C_8  and  C_9
REMARK    5  A    between atoms: C_9  and  N_10
REMARK    6  A    between atoms: C_13  and  C_14
REMARK    7  A    between atoms: C_14  and  C_15
REMARK    8  A    between atoms: C_19  and  N_20
REMARK    9  A    between atoms: N_23  and  C_24
REMARK                            x       y       z     vdW  Elec       q    Type
REMARK                         _______ _______ _______ _____ _____    ______ ____
ROOT
ATOM      1  N   UNL     1       2.709   5.508  18.894  0.00  0.00    +0.000 NA
ATOM      2  C   UNL     1       2.926   6.231  17.627  0.00  0.00    +0.000 C 
ATOM      3  C   UNL     1       3.325   7.685  17.850  0.00  0.00    +0.000 C 
ATOM      4  C   UNL     1       2.278   8.438  18.669  0.00  0.00    +0.000 C 
ATOM      5  C   UNL     1       2.088   7.667  19.987  0.00  0.00    +0.000 C 
ATOM      6  C   UNL     1       1.741   6.183  19.764  0.00  0.00    +0.000 C 
ENDROOT
BRANCH   1   7
ATOM      7  C   UNL     1       2.343   4.082  18.671  0.00  0.00    +0.000 C 
BRANCH   7   8
ATOM      8  C   UNL     1       3.559   3.331  18.119  0.00  0.00    +0.000 C 
BRANCH   8   9
ATOM      9  O   UNL     1       4.784   3.465  18.809  0.00  0.00    +0.000 OA
BRANCH   9  15
ATOM     10  C   UNL     1       7.611   5.157  12.840  0.00  0.00    +0.000 C 
ATOM     11  C   UNL     1       7.071   4.884  14.209  0.00  0.00    +0.000 A 
ATOM     12  C   UNL     1       6.151   3.882  14.401  0.00  0.00    +0.000 A 
ATOM     13  C   UNL     1       5.677   3.668  15.689  0.00  0.00    +0.000 A 
ATOM     14  C   UNL     1       6.101   4.433  16.819  0.00  0.00    +0.000 A 
ATOM     15  C   UNL     1       5.700   4.328  18.212  0.00  0.00    +0.000 A 
ATOM     16  C   UNL     1       6.261   5.183  19.171  0.00  0.00    +0.000 A 
ATOM     17  C   UNL     1       7.195   6.139  18.802  0.00  0.00    +0.000 A 
ATOM     18  C   UNL     1       7.573   6.247  17.468  0.00  0.00    +0.000 A 
ATOM     19  C   UNL     1       7.055   5.425  16.479  0.00  0.00    +0.000 A 
ATOM     20  N   UNL     1       7.518   5.644  15.229  0.00  0.00    +0.000 NA
ENDBRANCH   9  15
ENDBRANCH   8   9
ENDBRANCH   7   8
ENDBRANCH   1   7
BRANCH   4  21
ATOM     21  C   UNL     1       0.926   8.623  17.938  0.00  0.00    +0.000 C 
BRANCH  21  22
ATOM     22  C   UNL     1       0.244   9.951  18.146  0.00  0.00    +0.000 A 
ATOM     23  C   UNL     1      -1.138  10.090  17.999  0.00  0.00    +0.000 A 
ATOM     24  C   UNL     1      -1.741  11.328  18.214  0.00  0.00    +0.000 A 
ATOM     25  C   UNL     1      -0.971  12.428  18.605  0.00  0.00    +0.000 A 
ATOM     26  C   UNL     1       0.414  12.329  18.791  0.00  0.00    +0.000 A 
ATOM     27  C   UNL     1       0.997  11.077  18.535  0.00  0.00    +0.000 A 
BRANCH  26  28
ATOM     28  N   UNL     1       1.157  13.394  19.271  0.00  0.00    +0.000 N 
ATOM     29  C   UNL     1       0.723  14.210  20.406  0.00  0.00    +0.000 C 
ATOM     30  C   UNL     1       1.926  14.418  21.329  0.00  0.00    +0.000 C 
ATOM     31  N   UNL     1       3.026  15.057  20.611  0.00  0.00    +0.000 N 
ATOM     32  C   UNL     1       3.978  15.861  21.344  0.00  0.00    +0.000 C 
ATOM     33  C   UNL     1       3.422  14.521  19.385  0.00  0.00    +0.000 C 
ATOM     34  O   UNL     1       4.571  14.636  18.956  0.00  0.00    +0.000 OA
ATOM     35  C   UNL     1       2.309  13.910  18.510  0.00  0.00    +0.000 C 
ENDBRANCH  26  28
ENDBRANCH  21  22
ENDBRANCH   4  21
TORSDOF 7
ENDMDL
MODEL 9
REMARK VINA RESULT:      -8.8      3.878      5.565
REMARK  Name = 
REMARK  9 active torsions:
REMARK  status: ('A' for Active; 'I' for Inactive)
REMARK    1  A    between atoms: C_1  and  C_2
REMARK    2  A    between atoms: C_6  and  O_7
REMARK    3  A    between atoms: O_7  and  C_8
REMARK    4  A    between atoms: C_8  and  C_9
REMARK    5  A    between atoms: C_9  and  N_10
REMARK    6  A    between atoms: C_13  and  C_14
REMARK    7  A    between atoms: C_14  and  C_15
REMARK    8  A    between atoms: C_19  and  N_20
REMARK    9  A    between atoms: N_23  and  C_24
REMARK                            x       y       z     vdW  Elec       q    Type
REMARK                         _______ _______ _______ _____ _____    ______ ____
ROOT
ATOM      1  N   UNL     1       1.832   7.885  18.869  0.00  0.00    +0.000 NA
ATOM      2  C   UNL     1       1.629   8.116  20.311  0.00  0.00    +0.000 C 
ATOM      3  C   UNL     1       0.341   8.876  20.601  0.00  0.00    +0.000 C 
ATOM      4  C   UNL     1       0.307  10.224  19.880  0.00  0.00    +0.000 C 
ATOM      5  C   UNL     1       0.506   9.944  18.380  0.00  0.00    +0.000 C 
ATOM      6  C   UNL     1       1.778   9.127  18.090  0.00  0.00    +0.000 C 
ENDROOT
BRANCH   1   7
ATOM      7  C   UNL     1       3.080   7.121  18.593  0.00  0.00    +0.000 C 
BRANCH   7   8
ATOM      8  C   UNL     1       3.028   5.785  19.342  0.00  0.00    +0.000 C 
BRANCH   8   9
ATOM      9  O   UNL     1       3.694   4.682  18.766  0.00  0.00    +0.000 OA
BRANCH   9  15
ATOM     10  C   UNL     1       7.542   4.888  13.142  0.00  0.00    +0.000 C 
ATOM     11  C   UNL     1       6.812   4.880  14.448  0.00  0.00    +0.000 A 
ATOM     12  C   UNL     1       5.488   4.515  14.497  0.00  0.00    +0.000 A 
ATOM     13  C   UNL     1       4.852   4.527  15.732  0.00  0.00    +0.000 A 
ATOM     14  C   UNL     1       5.507   4.891  16.948  0.00  0.00    +0.000 A 
ATOM     15  C   UNL     1       4.980   4.950  18.302  0.00  0.00    +0.000 A 
ATOM     16  C   UNL     1       5.814   5.326  19.365  0.00  0.00    +0.000 A 
ATOM     17  C   UNL     1       7.142   5.652  19.137  0.00  0.00    +0.000 A 
ATOM     18  C   UNL     1       7.644   5.606  17.840  0.00  0.00    +0.000 A 
ATOM     19  C   UNL     1       6.868   5.236  16.753  0.00  0.00    +0.000 A 
ATOM     20  N   UNL     1       7.493   5.234  15.557  0.00  0.00    +0.000 NA
ENDBRANCH   9  15
ENDBRANCH   8   9
ENDBRANCH   7   8
ENDBRANCH   1   7
BRANCH   4  21
ATOM     21  C   UNL     1       1.357  11.237  20.397  0.00  0.00    +0.000 C 
BRANCH  21  22
ATOM     22  C   UNL     1       1.262  12.629  19.826  0.00  0.00    +0.000 A 
ATOM     23  C   UNL     1       0.037  13.295  19.735  0.00  0.00    +0.000 A 
ATOM     24  C   UNL     1      -0.015  14.588  19.218  0.00  0.00    +0.000 A 
ATOM     25  C   UNL     1       1.158  15.234  18.816  0.00  0.00    +0.000 A 
ATOM     26  C   UNL     1       2.411  14.616  18.915  0.00  0.00    +0.000 A 
ATOM     27  C   UNL     1       2.428  13.301  19.409  0.00  0.00    +0.000 A 
BRANCH  26  28
ATOM     28  N   UNL     1       3.578  15.293  18.607  0.00  0.00    +0.000 N 
ATOM     29  C   UNL     1       3.720  16.739  18.782  0.00  0.00    +0.000 C 
ATOM     30  C   UNL     1       5.074  17.007  19.444  0.00  0.00    +0.000 C 
ATOM     31  N   UNL     1       6.163  16.466  18.634  0.00  0.00    +0.000 N 
ATOM     32  C   UNL     1       7.474  17.070  18.714  0.00  0.00    +0.000 C 
ATOM     33  C   UNL     1       6.072  15.143  18.196  0.00  0.00    +0.000 C 
ATOM     34  O   UNL     1       7.070  14.458  17.962  0.00  0.00    +0.000 OA
ATOM     35  C   UNL     1       4.660  14.625  17.861  0.00  0.00    +0.000 C 
ENDBRANCH  26  28
ENDBRANCH  21  22
ENDBRANCH   4  21
TORSDOF 7
ENDMDL
