MODEL 1
REMARK VINA RESULT:      -7.7      0.000      0.000
REMARK  Name = 
REMARK  2 active torsions:
REMARK  status: ('A' for Active; 'I' for Inactive)
REMARK    1  A    between atoms: C_1  and  C_2
REMARK    2  A    between atoms: N_15  and  C_16
REMARK                            x       y       z     vdW  Elec       q    Type
REMARK                         _______ _______ _______ _____ _____    ______ ____
ROOT
ATOM      1  C   UNL     1       0.836   3.958  20.386  0.00  0.00    +0.000 C 
ATOM      2  C   UNL     1       2.052   4.785  19.892  0.00  0.00    +0.000 C 
ATOM      3  C   UNL     1       2.167   4.486  18.414  0.00  0.00    +0.000 C 
ATOM      4  C   UNL     1       2.807   5.751  17.843  0.00  0.00    +0.000 C 
ATOM      5  N   UNL     1       4.195   5.751  18.221  0.00  0.00    +0.000 N 
ATOM      6  C   UNL     1       4.616   5.083  19.366  0.00  0.00    +0.000 A 
ATOM      7  N   UNL     1       5.885   4.715  19.186  0.00  0.00    +0.000 NA
ATOM      8  C   UNL     1       6.167   4.936  17.827  0.00  0.00    +0.000 A 
ATOM      9  C   UNL     1       7.179   4.443  16.978  0.00  0.00    +0.000 A 
ATOM     10  C   UNL     1       7.107   4.695  15.589  0.00  0.00    +0.000 A 
ATOM     11  C   UNL     1       6.085   5.479  15.050  0.00  0.00    +0.000 A 
ATOM     12  C   UNL     1       5.118   6.031  15.877  0.00  0.00    +0.000 A 
ATOM     13  C   UNL     1       5.169   5.695  17.240  0.00  0.00    +0.000 A 
ATOM     14  C   UNL     1       3.515   4.385  20.271  0.00  0.00    +0.000 C 
ATOM     15  N   UNL     1       3.349   3.011  19.807  0.00  0.00    +0.000 NA
ATOM     16  C   UNL     1       4.555   2.207  19.979  0.00  0.00    +0.000 C 
ATOM     17  O   UNL     1       2.987   3.253  18.383  0.00  0.00    +0.000 OA
ENDROOT
TORSDOF 0
ENDMDL
MODEL 2
REMARK VINA RESULT:      -7.6      1.187      1.442
REMARK  Name = 
REMARK  2 active torsions:
REMARK  status: ('A' for Active; 'I' for Inactive)
REMARK    1  A    between atoms: C_1  and  C_2
REMARK    2  A    between atoms: N_15  and  C_16
REMARK                            x       y       z     vdW  Elec       q    Type
REMARK                         _______ _______ _______ _____ _____    ______ ____
ROOT
ATOM      1  C   UNL     1       1.120   2.894  21.347  0.00  0.00    +0.000 C 
ATOM      2  C   UNL     1       2.379   3.675  20.888  0.00  0.00    +0.000 C 
ATOM      3  C   UNL     1       1.967   4.396  19.624  0.00  0.00    +0.000 C 
ATOM      4  C   UNL     1       2.867   5.631  19.607  0.00  0.00    +0.000 C 
ATOM      5  N   UNL     1       4.192   5.203  19.246  0.00  0.00    +0.000 N 
ATOM      6  C   UNL     1       4.613   3.905  19.511  0.00  0.00    +0.000 A 
ATOM      7  N   UNL     1       5.540   3.580  18.610  0.00  0.00    +0.000 NA
ATOM      8  C   UNL     1       5.508   4.591  17.634  0.00  0.00    +0.000 A 
ATOM      9  C   UNL     1       5.981   4.641  16.306  0.00  0.00    +0.000 A 
ATOM     10  C   UNL     1       5.641   5.741  15.486  0.00  0.00    +0.000 A 
ATOM     11  C   UNL     1       4.898   6.812  15.988  0.00  0.00    +0.000 A 
ATOM     12  C   UNL     1       4.483   6.815  17.311  0.00  0.00    +0.000 A 
ATOM     13  C   UNL     1       4.765   5.671  18.077  0.00  0.00    +0.000 A 
ATOM     14  C   UNL     1       3.616   2.939  20.279  0.00  0.00    +0.000 C 
ATOM     15  N   UNL     1       2.812   2.232  19.286  0.00  0.00    +0.000 NA
ATOM     16  C   UNL     1       3.610   1.360  18.430  0.00  0.00    +0.000 C 
ATOM     17  O   UNL     1       2.203   3.386  18.568  0.00  0.00    +0.000 OA
ENDROOT
TORSDOF 0
ENDMDL
MODEL 3
REMARK VINA RESULT:      -7.2      1.991      5.064
REMARK  Name = 
REMARK  2 active torsions:
REMARK  status: ('A' for Active; 'I' for Inactive)
REMARK    1  A    between atoms: C_1  and  C_2
REMARK    2  A    between atoms: N_15  and  C_16
REMARK                            x       y       z     vdW  Elec       q    Type
REMARK                         _______ _______ _______ _____ _____    ______ ____
ROOT
ATOM      1  C   UNL     1       7.801   5.320  13.732  0.00  0.00    +0.000 C 
ATOM      2  C   UNL     1       7.054   4.581  14.873  0.00  0.00    +0.000 C 
ATOM      3  C   UNL     1       5.657   5.161  14.881  0.00  0.00    +0.000 C 
ATOM      4  C   UNL     1       4.800   4.020  15.426  0.00  0.00    +0.000 C 
ATOM      5  N   UNL     1       5.051   3.917  16.839  0.00  0.00    +0.000 N 
ATOM      6  C   UNL     1       6.263   4.337  17.374  0.00  0.00    +0.000 A 
ATOM      7  N   UNL     1       6.051   4.707  18.637  0.00  0.00    +0.000 NA
ATOM      8  C   UNL     1       4.656   4.751  18.802  0.00  0.00    +0.000 A 
ATOM      9  C   UNL     1       3.835   5.379  19.761  0.00  0.00    +0.000 A 
ATOM     10  C   UNL     1       2.435   5.407  19.570  0.00  0.00    +0.000 A 
ATOM     11  C   UNL     1       1.844   4.765  18.480  0.00  0.00    +0.000 A 
ATOM     12  C   UNL     1       2.627   4.082  17.562  0.00  0.00    +0.000 A 
ATOM     13  C   UNL     1       4.020   4.143  17.733  0.00  0.00    +0.000 A 
ATOM     14  C   UNL     1       7.377   4.868  16.375  0.00  0.00    +0.000 C 
ATOM     15  N   UNL     1       7.204   6.309  16.225  0.00  0.00    +0.000 NA
ATOM     16  C   UNL     1       7.425   7.038  17.469  0.00  0.00    +0.000 C 
ATOM     17  O   UNL     1       5.796   6.359  15.741  0.00  0.00    +0.000 OA
ENDROOT
TORSDOF 0
ENDMDL
MODEL 4
REMARK VINA RESULT:      -7.1      1.710      3.014
REMARK  Name = 
REMARK  2 active torsions:
REMARK  status: ('A' for Active; 'I' for Inactive)
REMARK    1  A    between atoms: C_1  and  C_2
REMARK    2  A    between atoms: N_15  and  C_16
REMARK                            x       y       z     vdW  Elec       q    Type
REMARK                         _______ _______ _______ _____ _____    ______ ____
ROOT
ATOM      1  C   UNL     1       1.052   3.630  19.767  0.00  0.00    +0.000 C 
ATOM      2  C   UNL     1       2.339   3.747  18.909  0.00  0.00    +0.000 C 
ATOM      3  C   UNL     1       3.407   4.253  19.853  0.00  0.00    +0.000 C 
ATOM      4  C   UNL     1       4.700   3.693  19.262  0.00  0.00    +0.000 C 
ATOM      5  N   UNL     1       5.010   4.453  18.082  0.00  0.00    +0.000 N 
ATOM      6  C   UNL     1       4.001   5.078  17.358  0.00  0.00    +0.000 A 
ATOM      7  N   UNL     1       4.527   6.139  16.745  0.00  0.00    +0.000 NA
ATOM      8  C   UNL     1       5.810   6.311  17.297  0.00  0.00    +0.000 A 
ATOM      9  C   UNL     1       6.690   7.412  17.318  0.00  0.00    +0.000 A 
ATOM     10  C   UNL     1       7.855   7.357  18.117  0.00  0.00    +0.000 A 
ATOM     11  C   UNL     1       8.183   6.204  18.835  0.00  0.00    +0.000 A 
ATOM     12  C   UNL     1       7.366   5.086  18.773  0.00  0.00    +0.000 A 
ATOM     13  C   UNL     1       6.174   5.200  18.037  0.00  0.00    +0.000 A 
ATOM     14  C   UNL     1       2.501   4.870  17.835  0.00  0.00    +0.000 C 
ATOM     15  N   UNL     1       2.172   5.936  18.777  0.00  0.00    +0.000 NA
ATOM     16  C   UNL     1       2.201   7.260  18.165  0.00  0.00    +0.000 C 
ATOM     17  O   UNL     1       3.233   5.723  19.800  0.00  0.00    +0.000 OA
ENDROOT
TORSDOF 0
ENDMDL
MODEL 5
REMARK VINA RESULT:      -6.9      1.627      2.684
REMARK  Name = 
REMARK  2 active torsions:
REMARK  status: ('A' for Active; 'I' for Inactive)
REMARK    1  A    between atoms: C_1  and  C_2
REMARK    2  A    between atoms: N_15  and  C_16
REMARK                            x       y       z     vdW  Elec       q    Type
REMARK                         _______ _______ _______ _____ _____    ______ ____
ROOT
ATOM      1  C   UNL     1       1.054   3.001  20.686  0.00  0.00    +0.000 C 
ATOM      2  C   UNL     1       1.929   3.335  19.451  0.00  0.00    +0.000 C 
ATOM      3  C   UNL     1       3.344   3.440  19.977  0.00  0.00    +0.000 C 
ATOM      4  C   UNL     1       4.202   3.047  18.775  0.00  0.00    +0.000 C 
ATOM      5  N   UNL     1       4.184   4.144  17.845  0.00  0.00    +0.000 N 
ATOM      6  C   UNL     1       3.110   5.026  17.812  0.00  0.00    +0.000 A 
ATOM      7  N   UNL     1       3.555   6.203  17.372  0.00  0.00    +0.000 NA
ATOM      8  C   UNL     1       4.959   6.116  17.374  0.00  0.00    +0.000 A 
ATOM      9  C   UNL     1       5.968   7.099  17.350  0.00  0.00    +0.000 A 
ATOM     10  C   UNL     1       7.315   6.720  17.549  0.00  0.00    +0.000 A 
ATOM     11  C   UNL     1       7.671   5.378  17.704  0.00  0.00    +0.000 A 
ATOM     12  C   UNL     1       6.701   4.389  17.661  0.00  0.00    +0.000 A 
ATOM     13  C   UNL     1       5.363   4.803  17.545  0.00  0.00    +0.000 A 
ATOM     14  C   UNL     1       1.883   4.745  18.779  0.00  0.00    +0.000 C 
ATOM     15  N   UNL     1       2.125   5.446  20.036  0.00  0.00    +0.000 NA
ATOM     16  C   UNL     1       2.165   6.896  19.877  0.00  0.00    +0.000 C 
ATOM     17  O   UNL     1       3.432   4.848  20.426  0.00  0.00    +0.000 OA
ENDROOT
TORSDOF 0
ENDMDL
MODEL 6
REMARK VINA RESULT:      -6.8      1.608      4.766
REMARK  Name = 
REMARK  2 active torsions:
REMARK  status: ('A' for Active; 'I' for Inactive)
REMARK    1  A    between atoms: C_1  and  C_2
REMARK    2  A    between atoms: N_15  and  C_16
REMARK                            x       y       z     vdW  Elec       q    Type
REMARK                         _______ _______ _______ _____ _____    ______ ____
ROOT
ATOM      1  C   UNL     1       5.286   6.601  15.870  0.00  0.00    +0.000 C 
ATOM      2  C   UNL     1       4.693   5.287  16.442  0.00  0.00    +0.000 C 
ATOM      3  C   UNL     1       3.569   5.718  17.357  0.00  0.00    +0.000 C 
ATOM      4  C   UNL     1       2.603   4.534  17.318  0.00  0.00    +0.000 C 
ATOM      5  N   UNL     1       3.180   3.469  18.093  0.00  0.00    +0.000 N 
ATOM      6  C   UNL     1       4.558   3.377  18.252  0.00  0.00    +0.000 A 
ATOM      7  N   UNL     1       4.801   2.762  19.409  0.00  0.00    +0.000 NA
ATOM      8  C   UNL     1       3.569   2.700  20.085  0.00  0.00    +0.000 A 
ATOM      9  C   UNL     1       3.242   2.492  21.440  0.00  0.00    +0.000 A 
ATOM     10  C   UNL     1       1.907   2.667  21.870  0.00  0.00    +0.000 A 
ATOM     11  C   UNL     1       0.892   2.980  20.962  0.00  0.00    +0.000 A 
ATOM     12  C   UNL     1       1.181   3.121  19.613  0.00  0.00    +0.000 A 
ATOM     13  C   UNL     1       2.529   3.022  19.230  0.00  0.00    +0.000 A 
ATOM     14  C   UNL     1       5.469   4.437  17.499  0.00  0.00    +0.000 C 
ATOM     15  N   UNL     1       5.673   5.575  18.390  0.00  0.00    +0.000 NA
ATOM     16  C   UNL     1       6.411   5.223  19.598  0.00  0.00    +0.000 C 
ATOM     17  O   UNL     1       4.259   5.970  18.643  0.00  0.00    +0.000 OA
ENDROOT
TORSDOF 0
ENDMDL
MODEL 7
REMARK VINA RESULT:      -6.8      1.290      1.399
REMARK  Name = 
REMARK  2 active torsions:
REMARK  status: ('A' for Active; 'I' for Inactive)
REMARK    1  A    between atoms: C_1  and  C_2
REMARK    2  A    between atoms: N_15  and  C_16
REMARK                            x       y       z     vdW  Elec       q    Type
REMARK                         _______ _______ _______ _____ _____    ______ ____
ROOT
ATOM      1  C   UNL     1       0.526   2.260  18.932  0.00  0.00    +0.000 C 
ATOM      2  C   UNL     1       1.486   3.451  19.186  0.00  0.00    +0.000 C 
ATOM      3  C   UNL     1       2.093   3.773  17.839  0.00  0.00    +0.000 C 
ATOM      4  C   UNL     1       2.410   5.265  17.937  0.00  0.00    +0.000 C 
ATOM      5  N   UNL     1       3.560   5.416  18.787  0.00  0.00    +0.000 N 
ATOM      6  C   UNL     1       3.847   4.467  19.762  0.00  0.00    +0.000 A 
ATOM      7  N   UNL     1       5.164   4.475  19.970  0.00  0.00    +0.000 NA
ATOM      8  C   UNL     1       5.718   5.254  18.939  0.00  0.00    +0.000 A 
ATOM      9  C   UNL     1       7.028   5.351  18.425  0.00  0.00    +0.000 A 
ATOM     10  C   UNL     1       7.260   6.094  17.245  0.00  0.00    +0.000 A 
ATOM     11  C   UNL     1       6.224   6.788  16.615  0.00  0.00    +0.000 A 
ATOM     12  C   UNL     1       4.943   6.762  17.142  0.00  0.00    +0.000 A 
ATOM     13  C   UNL     1       4.727   5.948  18.268  0.00  0.00    +0.000 A 
ATOM     14  C   UNL     1       2.836   3.259  19.949  0.00  0.00    +0.000 C 
ATOM     15  N   UNL     1       3.268   2.166  19.083  0.00  0.00    +0.000 NA
ATOM     16  C   UNL     1       4.575   1.634  19.453  0.00  0.00    +0.000 C 
ATOM     17  O   UNL     1       3.250   2.852  17.762  0.00  0.00    +0.000 OA
ENDROOT
TORSDOF 0
ENDMDL
MODEL 8
REMARK VINA RESULT:      -6.8      1.550      4.976
REMARK  Name = 
REMARK  2 active torsions:
REMARK  status: ('A' for Active; 'I' for Inactive)
REMARK    1  A    between atoms: C_1  and  C_2
REMARK    2  A    between atoms: N_15  and  C_16
REMARK                            x       y       z     vdW  Elec       q    Type
REMARK                         _______ _______ _______ _____ _____    ______ ____
ROOT
ATOM      1  C   UNL     1       6.748   4.708  15.167  0.00  0.00    +0.000 C 
ATOM      2  C   UNL     1       6.260   4.337  16.592  0.00  0.00    +0.000 C 
ATOM      3  C   UNL     1       4.864   3.787  16.409  0.00  0.00    +0.000 C 
ATOM      4  C   UNL     1       4.705   2.819  17.580  0.00  0.00    +0.000 C 
ATOM      5  N   UNL     1       4.526   3.599  18.775  0.00  0.00    +0.000 N 
ATOM      6  C   UNL     1       5.041   4.887  18.862  0.00  0.00    +0.000 A 
ATOM      7  N   UNL     1       4.284   5.579  19.714  0.00  0.00    +0.000 NA
ATOM      8  C   UNL     1       3.149   4.786  19.960  0.00  0.00    +0.000 A 
ATOM      9  C   UNL     1       1.874   5.093  20.476  0.00  0.00    +0.000 A 
ATOM     10  C   UNL     1       0.853   4.116  20.439  0.00  0.00    +0.000 A 
ATOM     11  C   UNL     1       1.105   2.828  19.959  0.00  0.00    +0.000 A 
ATOM     12  C   UNL     1       2.371   2.485  19.512  0.00  0.00    +0.000 A 
ATOM     13  C   UNL     1       3.342   3.501  19.484  0.00  0.00    +0.000 A 
ATOM     14  C   UNL     1       5.884   5.439  17.635  0.00  0.00    +0.000 C 
ATOM     15  N   UNL     1       4.968   6.112  16.720  0.00  0.00    +0.000 NA
ATOM     16  C   UNL     1       4.339   7.287  17.313  0.00  0.00    +0.000 C 
ATOM     17  O   UNL     1       4.018   5.003  16.431  0.00  0.00    +0.000 OA
ENDROOT
TORSDOF 0
ENDMDL
MODEL 9
REMARK VINA RESULT:      -6.6      2.069      4.881
REMARK  Name = 
REMARK  2 active torsions:
REMARK  status: ('A' for Active; 'I' for Inactive)
REMARK    1  A    between atoms: C_1  and  C_2
REMARK    2  A    between atoms: N_15  and  C_16
REMARK                            x       y       z     vdW  Elec       q    Type
REMARK                         _______ _______ _______ _____ _____    ______ ____
ROOT
ATOM      1  C   UNL     1       8.044   7.813  17.299  0.00  0.00    +0.000 C 
ATOM      2  C   UNL     1       6.770   7.173  17.909  0.00  0.00    +0.000 C 
ATOM      3  C   UNL     1       7.159   5.752  18.253  0.00  0.00    +0.000 C 
ATOM      4  C   UNL     1       6.242   5.405  19.425  0.00  0.00    +0.000 C 
ATOM      5  N   UNL     1       4.918   5.197  18.902  0.00  0.00    +0.000 N 
ATOM      6  C   UNL     1       4.517   5.819  17.725  0.00  0.00    +0.000 A 
ATOM      7  N   UNL     1       3.584   5.058  17.153  0.00  0.00    +0.000 NA
ATOM      8  C   UNL     1       3.592   3.838  17.852  0.00  0.00    +0.000 A 
ATOM      9  C   UNL     1       3.104   2.557  17.526  0.00  0.00    +0.000 A 
ATOM     10  C   UNL     1       3.420   1.458  18.356  0.00  0.00    +0.000 A 
ATOM     11  C   UNL     1       4.154   1.631  19.532  0.00  0.00    +0.000 A 
ATOM     12  C   UNL     1       4.585   2.894  19.908  0.00  0.00    +0.000 A 
ATOM     13  C   UNL     1       4.326   3.952  19.020  0.00  0.00    +0.000 A 
ATOM     14  C   UNL     1       5.536   6.811  17.020  0.00  0.00    +0.000 C 
ATOM     15  N   UNL     1       6.337   6.043  16.073  0.00  0.00    +0.000 NA
ATOM     16  C   UNL     1       5.542   5.475  14.989  0.00  0.00    +0.000 C 
ATOM     17  O   UNL     1       6.923   5.023  16.986  0.00  0.00    +0.000 OA
ENDROOT
TORSDOF 0
ENDMDL
