MODEL 1
REMARK VINA RESULT:      -7.0      0.000      0.000
REMARK  Name = 
REMARK  12 active torsions:
REMARK  status: ('A' for Active; 'I' for Inactive)
REMARK    1  A    between atoms: C_1  and  C_2
REMARK    2  A    between atoms: C_2  and  C_3
REMARK    3  A    between atoms: C_3  and  C_4
REMARK    4  A    between atoms: C_4  and  N_5
REMARK    5  A    between atoms: N_5  and  C_15
REMARK    6  A    between atoms: C_6  and  C_8
REMARK    7  A    between atoms: C_8  and  C_9
REMARK    8  A    between atoms: C_16  and  N_17
REMARK    9  A    between atoms: N_18  and  C_19
REMARK   10  A    between atoms: C_19  and  C_20
REMARK   11  A    between atoms: C_20  and  C_21
REMARK   12  A    between atoms: C_21  and  C_22
REMARK                            x       y       z     vdW  Elec       q    Type
REMARK                         _______ _______ _______ _____ _____    ______ ____
ROOT
ATOM      1  C   UNL     1       4.892   4.190  17.595  0.00  0.00    +0.000 A 
ATOM      2  C   UNL     1       3.792   3.415  17.740  0.00  0.00    +0.000 A 
ATOM      3  N   UNL     1       3.610   2.663  18.898  0.00  0.00    +0.000 N 
ATOM      4  C   UNL     1       4.547   2.642  19.929  0.00  0.00    +0.000 A 
ATOM      5  O   UNL     1       4.410   2.038  20.991  0.00  0.00    +0.000 OA
ATOM      6  N   UNL     1       5.685   3.368  19.724  0.00  0.00    +0.000 N 
ATOM      7  C   UNL     1       5.926   4.201  18.670  0.00  0.00    +0.000 A 
ATOM      8  O   UNL     1       6.924   4.912  18.627  0.00  0.00    +0.000 OA
ATOM      9  H   UNL     1       6.358   3.377  20.477  0.00  0.00    +0.000 HD
ENDROOT
BRANCH   1  10
ATOM     10  N   UNL     1       5.100   4.990  16.467  0.00  0.00    +0.000 N 
ATOM     11  C   UNL     1       4.975   6.393  16.553  0.00  0.00    +0.000 C 
ATOM     12  O   UNL     1       5.496   7.145  15.729  0.00  0.00    +0.000 OA
BRANCH  10  13
ATOM     13  C   UNL     1       5.921   4.412  15.381  0.00  0.00    +0.000 C 
BRANCH  13  14
ATOM     14  C   UNL     1       5.275   4.416  13.994  0.00  0.00    +0.000 C 
BRANCH  14  16
ATOM     15  C   UNL     1       6.907   4.163  12.116  0.00  0.00    +0.000 C 
ATOM     16  C   UNL     1       5.907   3.438  13.009  0.00  0.00    +0.000 C 
ENDBRANCH  14  16
ENDBRANCH  13  14
ENDBRANCH  10  13
BRANCH  11  17
ATOM     17  C   UNL     1       4.155   6.936  17.735  0.00  0.00    +0.000 C 
BRANCH  17  18
ATOM     18  C   UNL     1       2.617   6.957  17.571  0.00  0.00    +0.000 C 
ATOM     19  C   UNL     1       1.942   6.238  18.759  0.00  0.00    +0.000 C 
ATOM     20  C   UNL     1       2.055   7.010  20.076  0.00  0.00    +0.000 C 
ATOM     21  C   UNL     1       1.617   8.469  19.965  0.00  0.00    +0.000 C 
ATOM     22  C   UNL     1       2.146   9.186  18.725  0.00  0.00    +0.000 C 
ATOM     23  C   UNL     1       1.995   8.357  17.454  0.00  0.00    +0.000 C 
ENDBRANCH  17  18
ENDBRANCH  11  17
ENDBRANCH   1  10
BRANCH   2  24
ATOM     24  N   UNL     1       2.854   3.357  16.715  0.00  0.00    +0.000 N 
ATOM     25  H   UNL     1       2.324   4.216  16.592  0.00  0.00    +0.000 HD
ATOM     26  H   UNL     1       2.243   2.550  16.795  0.00  0.00    +0.000 HD
ENDBRANCH   2  24
BRANCH   3  27
ATOM     27  C   UNL     1       2.352   1.930  19.123  0.00  0.00    +0.000 C 
BRANCH  27  28
ATOM     28  C   UNL     1       1.075   2.767  19.291  0.00  0.00    +0.000 C 
BRANCH  28  29
ATOM     29  C   UNL     1       0.978   3.498  20.626  0.00  0.00    +0.000 C 
ATOM     30  C   UNL     1       1.315   2.550  21.771  0.00  0.00    +0.000 C 
ENDBRANCH  28  29
ENDBRANCH  27  28
ENDBRANCH   3  27
TORSDOF 10
ENDMDL
MODEL 2
REMARK VINA RESULT:      -6.8      2.778      5.580
REMARK  Name = 
REMARK  12 active torsions:
REMARK  status: ('A' for Active; 'I' for Inactive)
REMARK    1  A    between atoms: C_1  and  C_2
REMARK    2  A    between atoms: C_2  and  C_3
REMARK    3  A    between atoms: C_3  and  C_4
REMARK    4  A    between atoms: C_4  and  N_5
REMARK    5  A    between atoms: N_5  and  C_15
REMARK    6  A    between atoms: C_6  and  C_8
REMARK    7  A    between atoms: C_8  and  C_9
REMARK    8  A    between atoms: C_16  and  N_17
REMARK    9  A    between atoms: N_18  and  C_19
REMARK   10  A    between atoms: C_19  and  C_20
REMARK   11  A    between atoms: C_20  and  C_21
REMARK   12  A    between atoms: C_21  and  C_22
REMARK                            x       y       z     vdW  Elec       q    Type
REMARK                         _______ _______ _______ _____ _____    ______ ____
ROOT
ATOM      1  C   UNL     1       3.248   6.779  18.464  0.00  0.00    +0.000 A 
ATOM      2  C   UNL     1       2.631   6.861  19.665  0.00  0.00    +0.000 A 
ATOM      3  N   UNL     1       1.750   7.906  19.932  0.00  0.00    +0.000 N 
ATOM      4  C   UNL     1       1.492   8.918  19.010  0.00  0.00    +0.000 A 
ATOM      5  O   UNL     1       0.686   9.831  19.177  0.00  0.00    +0.000 OA
ATOM      6  N   UNL     1       2.188   8.857  17.837  0.00  0.00    +0.000 N 
ATOM      7  C   UNL     1       3.007   7.839  17.443  0.00  0.00    +0.000 A 
ATOM      8  O   UNL     1       3.496   7.805  16.319  0.00  0.00    +0.000 OA
ATOM      9  H   UNL     1       1.988   9.574  17.154  0.00  0.00    +0.000 HD
ENDROOT
BRANCH   1  10
ATOM     10  N   UNL     1       4.113   5.729  18.137  0.00  0.00    +0.000 N 
ATOM     11  C   UNL     1       3.612   4.549  17.546  0.00  0.00    +0.000 C 
ATOM     12  O   UNL     1       4.336   3.780  16.913  0.00  0.00    +0.000 OA
BRANCH  10  13
ATOM     13  C   UNL     1       5.539   6.072  17.948  0.00  0.00    +0.000 C 
BRANCH  13  14
ATOM     14  C   UNL     1       6.502   5.475  18.977  0.00  0.00    +0.000 C 
BRANCH  14  16
ATOM     15  C   UNL     1       7.901   7.333  18.056  0.00  0.00    +0.000 C 
ATOM     16  C   UNL     1       7.875   6.139  19.003  0.00  0.00    +0.000 C 
ENDBRANCH  14  16
ENDBRANCH  13  14
ENDBRANCH  10  13
BRANCH  11  17
ATOM     17  C   UNL     1       2.111   4.275  17.732  0.00  0.00    +0.000 C 
BRANCH  17  18
ATOM     18  C   UNL     1       1.697   2.818  18.047  0.00  0.00    +0.000 C 
ATOM     19  C   UNL     1       2.860   2.068  18.734  0.00  0.00    +0.000 C 
ATOM     20  C   UNL     1       3.134   2.556  20.159  0.00  0.00    +0.000 C 
ATOM     21  C   UNL     1       1.885   2.604  21.036  0.00  0.00    +0.000 C 
ATOM     22  C   UNL     1       0.664   3.210  20.350  0.00  0.00    +0.000 C 
ATOM     23  C   UNL     1       0.453   2.673  18.938  0.00  0.00    +0.000 C 
ENDBRANCH  17  18
ENDBRANCH  11  17
ENDBRANCH   1  10
BRANCH   2  24
ATOM     24  N   UNL     1       2.899   5.907  20.641  0.00  0.00    +0.000 N 
ATOM     25  H   UNL     1       2.079   5.386  20.943  0.00  0.00    +0.000 HD
ATOM     26  H   UNL     1       3.408   6.292  21.430  0.00  0.00    +0.000 HD
ENDBRANCH   2  24
BRANCH   3  27
ATOM     27  C   UNL     1       0.969   7.924  21.181  0.00  0.00    +0.000 C 
BRANCH  27  28
ATOM     28  C   UNL     1       1.292   9.033  22.193  0.00  0.00    +0.000 C 
BRANCH  28  29
ATOM     29  C   UNL     1       0.131   9.395  23.114  0.00  0.00    +0.000 C 
ATOM     30  C   UNL     1      -0.607  10.615  22.577  0.00  0.00    +0.000 C 
ENDBRANCH  28  29
ENDBRANCH  27  28
ENDBRANCH   3  27
TORSDOF 10
ENDMDL
MODEL 3
REMARK VINA RESULT:      -6.4      2.616      5.878
REMARK  Name = 
REMARK  12 active torsions:
REMARK  status: ('A' for Active; 'I' for Inactive)
REMARK    1  A    between atoms: C_1  and  C_2
REMARK    2  A    between atoms: C_2  and  C_3
REMARK    3  A    between atoms: C_3  and  C_4
REMARK    4  A    between atoms: C_4  and  N_5
REMARK    5  A    between atoms: N_5  and  C_15
REMARK    6  A    between atoms: C_6  and  C_8
REMARK    7  A    between atoms: C_8  and  C_9
REMARK    8  A    between atoms: C_16  and  N_17
REMARK    9  A    between atoms: N_18  and  C_19
REMARK   10  A    between atoms: C_19  and  C_20
REMARK   11  A    between atoms: C_20  and  C_21
REMARK   12  A    between atoms: C_21  and  C_22
REMARK                            x       y       z     vdW  Elec       q    Type
REMARK                         _______ _______ _______ _____ _____    ______ ____
ROOT
ATOM      1  C   UNL     1       3.243   5.833  18.866  0.00  0.00    +0.000 A 
ATOM      2  C   UNL     1       2.523   6.228  19.941  0.00  0.00    +0.000 A 
ATOM      3  N   UNL     1       1.903   7.475  19.952  0.00  0.00    +0.000 N 
ATOM      4  C   UNL     1       2.020   8.376  18.894  0.00  0.00    +0.000 A 
ATOM      5  O   UNL     1       1.452   9.464  18.833  0.00  0.00    +0.000 OA
ATOM      6  N   UNL     1       2.819   7.987  17.857  0.00  0.00    +0.000 N 
ATOM      7  C   UNL     1       3.401   6.761  17.709  0.00  0.00    +0.000 A 
ATOM      8  O   UNL     1       4.001   6.454  16.685  0.00  0.00    +0.000 OA
ATOM      9  H   UNL     1       2.889   8.625  17.077  0.00  0.00    +0.000 HD
ENDROOT
BRANCH   1  10
ATOM     10  N   UNL     1       3.853   4.577  18.795  0.00  0.00    +0.000 N 
ATOM     11  C   UNL     1       5.155   4.384  19.306  0.00  0.00    +0.000 C 
ATOM     12  O   UNL     1       5.579   3.268  19.606  0.00  0.00    +0.000 OA
BRANCH  10  13
ATOM     13  C   UNL     1       2.959   3.406  18.663  0.00  0.00    +0.000 C 
BRANCH  13  14
ATOM     14  C   UNL     1       1.653   3.658  17.906  0.00  0.00    +0.000 C 
BRANCH  14  16
ATOM     15  C   UNL     1       0.743   2.627  19.995  0.00  0.00    +0.000 C 
ATOM     16  C   UNL     1       0.423   3.039  18.563  0.00  0.00    +0.000 C 
ENDBRANCH  14  16
ENDBRANCH  13  14
ENDBRANCH  10  13
BRANCH  11  17
ATOM     17  C   UNL     1       6.019   5.646  19.472  0.00  0.00    +0.000 C 
BRANCH  17  18
ATOM     18  C   UNL     1       7.489   5.557  18.999  0.00  0.00    +0.000 C 
ATOM     19  C   UNL     1       7.599   4.636  17.765  0.00  0.00    +0.000 C 
ATOM     20  C   UNL     1       6.976   5.239  16.503  0.00  0.00    +0.000 C 
ATOM     21  C   UNL     1       7.458   6.657  16.205  0.00  0.00    +0.000 C 
ATOM     22  C   UNL     1       7.501   7.571  17.428  0.00  0.00    +0.000 C 
ATOM     23  C   UNL     1       8.139   6.903  18.642  0.00  0.00    +0.000 C 
ENDBRANCH  17  18
ENDBRANCH  11  17
ENDBRANCH   1  10
BRANCH   2  24
ATOM     24  N   UNL     1       2.422   5.389  21.045  0.00  0.00    +0.000 N 
ATOM     25  H   UNL     1       2.429   5.879  21.937  0.00  0.00    +0.000 HD
ATOM     26  H   UNL     1       3.106   4.639  21.027  0.00  0.00    +0.000 HD
ENDBRANCH   2  24
BRANCH   3  27
ATOM     27  C   UNL     1       1.003   7.853  21.055  0.00  0.00    +0.000 C 
BRANCH  27  28
ATOM     28  C   UNL     1       1.464   8.990  21.978  0.00  0.00    +0.000 C 
BRANCH  28  29
ATOM     29  C   UNL     1       0.462  10.131  22.113  0.00  0.00    +0.000 C 
ATOM     30  C   UNL     1      -0.548   9.818  23.209  0.00  0.00    +0.000 C 
ENDBRANCH  28  29
ENDBRANCH  27  28
ENDBRANCH   3  27
TORSDOF 10
ENDMDL
MODEL 4
REMARK VINA RESULT:      -6.3      2.948      5.644
REMARK  Name = 
REMARK  12 active torsions:
REMARK  status: ('A' for Active; 'I' for Inactive)
REMARK    1  A    between atoms: C_1  and  C_2
REMARK    2  A    between atoms: C_2  and  C_3
REMARK    3  A    between atoms: C_3  and  C_4
REMARK    4  A    between atoms: C_4  and  N_5
REMARK    5  A    between atoms: N_5  and  C_15
REMARK    6  A    between atoms: C_6  and  C_8
REMARK    7  A    between atoms: C_8  and  C_9
REMARK    8  A    between atoms: C_16  and  N_17
REMARK    9  A    between atoms: N_18  and  C_19
REMARK   10  A    between atoms: C_19  and  C_20
REMARK   11  A    between atoms: C_20  and  C_21
REMARK   12  A    between atoms: C_21  and  C_22
REMARK                            x       y       z     vdW  Elec       q    Type
REMARK                         _______ _______ _______ _____ _____    ______ ____
ROOT
ATOM      1  C   UNL     1       3.103   6.508  18.935  0.00  0.00    +0.000 A 
ATOM      2  C   UNL     1       2.609   7.645  18.394  0.00  0.00    +0.000 A 
ATOM      3  N   UNL     1       1.767   8.469  19.138  0.00  0.00    +0.000 N 
ATOM      4  C   UNL     1       1.372   8.153  20.437  0.00  0.00    +0.000 A 
ATOM      5  O   UNL     1       0.675   8.870  21.153  0.00  0.00    +0.000 OA
ATOM      6  N   UNL     1       1.819   6.961  20.930  0.00  0.00    +0.000 N 
ATOM      7  C   UNL     1       2.708   6.124  20.321  0.00  0.00    +0.000 A 
ATOM      8  O   UNL     1       3.152   5.133  20.890  0.00  0.00    +0.000 OA
ATOM      9  H   UNL     1       1.556   6.737  21.879  0.00  0.00    +0.000 HD
ENDROOT
BRANCH   1  10
ATOM     10  N   UNL     1       3.979   5.668  18.239  0.00  0.00    +0.000 N 
ATOM     11  C   UNL     1       3.478   4.641  17.411  0.00  0.00    +0.000 C 
ATOM     12  O   UNL     1       4.156   4.138  16.515  0.00  0.00    +0.000 OA
BRANCH  10  13
ATOM     13  C   UNL     1       5.342   6.185  17.989  0.00  0.00    +0.000 C 
BRANCH  13  14
ATOM     14  C   UNL     1       6.446   5.575  18.856  0.00  0.00    +0.000 C 
BRANCH  14  16
ATOM     15  C   UNL     1       7.695   7.442  17.755  0.00  0.00    +0.000 C 
ATOM     16  C   UNL     1       7.804   6.253  18.702  0.00  0.00    +0.000 C 
ENDBRANCH  14  16
ENDBRANCH  13  14
ENDBRANCH  10  13
BRANCH  11  17
ATOM     17  C   UNL     1       2.035   4.184  17.684  0.00  0.00    +0.000 C 
BRANCH  17  18
ATOM     18  C   UNL     1       1.806   2.667  17.884  0.00  0.00    +0.000 C 
ATOM     19  C   UNL     1       3.072   2.008  18.473  0.00  0.00    +0.000 C 
ATOM     20  C   UNL     1       3.340   2.406  19.927  0.00  0.00    +0.000 C 
ATOM     21  C   UNL     1       2.127   2.232  20.838  0.00  0.00    +0.000 C 
ATOM     22  C   UNL     1       0.819   2.744  20.239  0.00  0.00    +0.000 C 
ATOM     23  C   UNL     1       0.620   2.304  18.792  0.00  0.00    +0.000 C 
ENDBRANCH  17  18
ENDBRANCH  11  17
ENDBRANCH   1  10
BRANCH   2  24
ATOM     24  N   UNL     1       2.927   7.977  17.082  0.00  0.00    +0.000 N 
ATOM     25  H   UNL     1       2.163   7.840  16.425  0.00  0.00    +0.000 HD
ATOM     26  H   UNL     1       3.778   7.524  16.763  0.00  0.00    +0.000 HD
ENDBRANCH   2  24
BRANCH   3  27
ATOM     27  C   UNL     1       1.340   9.775  18.608  0.00  0.00    +0.000 C 
BRANCH  27  28
ATOM     28  C   UNL     1       0.019   9.816  17.826  0.00  0.00    +0.000 C 
BRANCH  28  29
ATOM     29  C   UNL     1      -1.152  10.404  18.607  0.00  0.00    +0.000 C 
ATOM     30  C   UNL     1      -2.459  10.145  17.870  0.00  0.00    +0.000 C 
ENDBRANCH  28  29
ENDBRANCH  27  28
ENDBRANCH   3  27
TORSDOF 10
ENDMDL
MODEL 5
REMARK VINA RESULT:      -6.2      1.970      5.809
REMARK  Name = 
REMARK  12 active torsions:
REMARK  status: ('A' for Active; 'I' for Inactive)
REMARK    1  A    between atoms: C_1  and  C_2
REMARK    2  A    between atoms: C_2  and  C_3
REMARK    3  A    between atoms: C_3  and  C_4
REMARK    4  A    between atoms: C_4  and  N_5
REMARK    5  A    between atoms: N_5  and  C_15
REMARK    6  A    between atoms: C_6  and  C_8
REMARK    7  A    between atoms: C_8  and  C_9
REMARK    8  A    between atoms: C_16  and  N_17
REMARK    9  A    between atoms: N_18  and  C_19
REMARK   10  A    between atoms: C_19  and  C_20
REMARK   11  A    between atoms: C_20  and  C_21
REMARK   12  A    between atoms: C_21  and  C_22
REMARK                            x       y       z     vdW  Elec       q    Type
REMARK                         _______ _______ _______ _____ _____    ______ ____
ROOT
ATOM      1  C   UNL     1       4.740   5.961  17.646  0.00  0.00    +0.000 A 
ATOM      2  C   UNL     1       5.318   5.835  16.430  0.00  0.00    +0.000 A 
ATOM      3  N   UNL     1       6.547   5.193  16.298  0.00  0.00    +0.000 N 
ATOM      4  C   UNL     1       7.246   4.689  17.394  0.00  0.00    +0.000 A 
ATOM      5  O   UNL     1       8.306   4.070  17.326  0.00  0.00    +0.000 OA
ATOM      6  N   UNL     1       6.681   4.899  18.618  0.00  0.00    +0.000 N 
ATOM      7  C   UNL     1       5.448   5.440  18.851  0.00  0.00    +0.000 A 
ATOM      8  O   UNL     1       4.965   5.477  19.977  0.00  0.00    +0.000 OA
ATOM      9  H   UNL     1       7.170   4.516  19.415  0.00  0.00    +0.000 HD
ENDROOT
BRANCH   1  10
ATOM     10  N   UNL     1       3.491   6.565  17.822  0.00  0.00    +0.000 N 
ATOM     11  C   UNL     1       2.378   5.799  18.230  0.00  0.00    +0.000 C 
ATOM     12  O   UNL     1       1.388   6.314  18.749  0.00  0.00    +0.000 OA
BRANCH  10  13
ATOM     13  C   UNL     1       3.483   8.023  18.071  0.00  0.00    +0.000 C 
BRANCH  13  14
ATOM     14  C   UNL     1       2.324   8.793  17.434  0.00  0.00    +0.000 C 
BRANCH  14  16
ATOM     15  C   UNL     1       0.284   9.947  18.308  0.00  0.00    +0.000 C 
ATOM     16  C   UNL     1       1.808   9.953  18.279  0.00  0.00    +0.000 C 
ENDBRANCH  14  16
ENDBRANCH  13  14
ENDBRANCH  10  13
BRANCH  11  17
ATOM     17  C   UNL     1       2.468   4.282  17.995  0.00  0.00    +0.000 C 
BRANCH  17  18
ATOM     18  C   UNL     1       1.433   3.395  18.727  0.00  0.00    +0.000 C 
ATOM     19  C   UNL     1       2.008   1.981  18.959  0.00  0.00    +0.000 C 
ATOM     20  C   UNL     1       3.133   1.949  19.998  0.00  0.00    +0.000 C 
ATOM     21  C   UNL     1       2.769   2.641  21.309  0.00  0.00    +0.000 C 
ATOM     22  C   UNL     1       2.066   3.985  21.131  0.00  0.00    +0.000 C 
ATOM     23  C   UNL     1       0.957   3.938  20.085  0.00  0.00    +0.000 C 
ENDBRANCH  17  18
ENDBRANCH  11  17
ENDBRANCH   1  10
BRANCH   2  24
ATOM     24  N   UNL     1       4.688   6.372  15.312  0.00  0.00    +0.000 N 
ATOM     25  H   UNL     1       5.150   7.196  14.934  0.00  0.00    +0.000 HD
ATOM     26  H   UNL     1       3.699   6.537  15.466  0.00  0.00    +0.000 HD
ENDBRANCH   2  24
BRANCH   3  27
ATOM     27  C   UNL     1       7.114   4.929  14.965  0.00  0.00    +0.000 C 
BRANCH  27  28
ATOM     28  C   UNL     1       6.458   3.816  14.134  0.00  0.00    +0.000 C 
BRANCH  28  29
ATOM     29  C   UNL     1       6.571   4.014  12.625  0.00  0.00    +0.000 C 
ATOM     30  C   UNL     1       5.782   2.937  11.893  0.00  0.00    +0.000 C 
ENDBRANCH  28  29
ENDBRANCH  27  28
ENDBRANCH   3  27
TORSDOF 10
ENDMDL
MODEL 6
REMARK VINA RESULT:      -6.1      2.295      5.690
REMARK  Name = 
REMARK  12 active torsions:
REMARK  status: ('A' for Active; 'I' for Inactive)
REMARK    1  A    between atoms: C_1  and  C_2
REMARK    2  A    between atoms: C_2  and  C_3
REMARK    3  A    between atoms: C_3  and  C_4
REMARK    4  A    between atoms: C_4  and  N_5
REMARK    5  A    between atoms: N_5  and  C_15
REMARK    6  A    between atoms: C_6  and  C_8
REMARK    7  A    between atoms: C_8  and  C_9
REMARK    8  A    between atoms: C_16  and  N_17
REMARK    9  A    between atoms: N_18  and  C_19
REMARK   10  A    between atoms: C_19  and  C_20
REMARK   11  A    between atoms: C_20  and  C_21
REMARK   12  A    between atoms: C_21  and  C_22
REMARK                            x       y       z     vdW  Elec       q    Type
REMARK                         _______ _______ _______ _____ _____    ______ ____
ROOT
ATOM      1  C   UNL     1       4.461   4.354  17.782  0.00  0.00    +0.000 A 
ATOM      2  C   UNL     1       5.530   5.014  18.281  0.00  0.00    +0.000 A 
ATOM      3  N   UNL     1       6.588   5.370  17.447  0.00  0.00    +0.000 N 
ATOM      4  C   UNL     1       6.613   5.041  16.092  0.00  0.00    +0.000 A 
ATOM      5  O   UNL     1       7.496   5.376  15.305  0.00  0.00    +0.000 OA
ATOM      6  N   UNL     1       5.560   4.305  15.631  0.00  0.00    +0.000 N 
ATOM      7  C   UNL     1       4.440   3.976  16.340  0.00  0.00    +0.000 A 
ATOM      8  O   UNL     1       3.485   3.418  15.810  0.00  0.00    +0.000 OA
ATOM      9  H   UNL     1       5.560   4.083  14.646  0.00  0.00    +0.000 HD
ENDROOT
BRANCH   1  10
ATOM     10  N   UNL     1       3.360   4.008  18.573  0.00  0.00    +0.000 N 
ATOM     11  C   UNL     1       2.138   4.703  18.441  0.00  0.00    +0.000 C 
ATOM     12  O   UNL     1       1.071   4.220  18.817  0.00  0.00    +0.000 OA
BRANCH  10  13
ATOM     13  C   UNL     1       3.345   2.640  19.136  0.00  0.00    +0.000 C 
BRANCH  13  14
ATOM     14  C   UNL     1       3.696   2.536  20.621  0.00  0.00    +0.000 C 
BRANCH  14  16
ATOM     15  C   UNL     1       1.419   2.466  21.653  0.00  0.00    +0.000 C 
ATOM     16  C   UNL     1       2.718   3.256  21.544  0.00  0.00    +0.000 C 
ENDBRANCH  14  16
ENDBRANCH  13  14
ENDBRANCH  10  13
BRANCH  11  17
ATOM     17  C   UNL     1       2.211   6.098  17.800  0.00  0.00    +0.000 C 
BRANCH  17  18
ATOM     18  C   UNL     1       2.957   7.197  18.592  0.00  0.00    +0.000 C 
ATOM     19  C   UNL     1       2.905   8.538  17.827  0.00  0.00    +0.000 C 
ATOM     20  C   UNL     1       1.508   9.165  17.801  0.00  0.00    +0.000 C 
ATOM     21  C   UNL     1       0.862   9.266  19.181  0.00  0.00    +0.000 C 
ATOM     22  C   UNL     1       1.011   8.008  20.034  0.00  0.00    +0.000 C 
ATOM     23  C   UNL     1       2.428   7.446  20.014  0.00  0.00    +0.000 C 
ENDBRANCH  17  18
ENDBRANCH  11  17
ENDBRANCH   1  10
BRANCH   2  24
ATOM     24  N   UNL     1       5.580   5.317  19.637  0.00  0.00    +0.000 N 
ATOM     25  H   UNL     1       6.506   5.578  19.968  0.00  0.00    +0.000 HD
ATOM     26  H   UNL     1       5.171   4.587  20.212  0.00  0.00    +0.000 HD
ENDBRANCH   2  24
BRANCH   3  27
ATOM     27  C   UNL     1       7.688   6.211  17.951  0.00  0.00    +0.000 C 
BRANCH  27  28
ATOM     28  C   UNL     1       7.602   7.718  17.671  0.00  0.00    +0.000 C 
BRANCH  28  29
ATOM     29  C   UNL     1       8.554   8.565  18.510  0.00  0.00    +0.000 C 
ATOM     30  C   UNL     1       8.506  10.018  18.056  0.00  0.00    +0.000 C 
ENDBRANCH  28  29
ENDBRANCH  27  28
ENDBRANCH   3  27
TORSDOF 10
ENDMDL
MODEL 7
REMARK VINA RESULT:      -5.9      2.896      5.970
REMARK  Name = 
REMARK  12 active torsions:
REMARK  status: ('A' for Active; 'I' for Inactive)
REMARK    1  A    between atoms: C_1  and  C_2
REMARK    2  A    between atoms: C_2  and  C_3
REMARK    3  A    between atoms: C_3  and  C_4
REMARK    4  A    between atoms: C_4  and  N_5
REMARK    5  A    between atoms: N_5  and  C_15
REMARK    6  A    between atoms: C_6  and  C_8
REMARK    7  A    between atoms: C_8  and  C_9
REMARK    8  A    between atoms: C_16  and  N_17
REMARK    9  A    between atoms: N_18  and  C_19
REMARK   10  A    between atoms: C_19  and  C_20
REMARK   11  A    between atoms: C_20  and  C_21
REMARK   12  A    between atoms: C_21  and  C_22
REMARK                            x       y       z     vdW  Elec       q    Type
REMARK                         _______ _______ _______ _____ _____    ______ ____
ROOT
ATOM      1  C   UNL     1       3.050   6.618  18.838  0.00  0.00    +0.000 A 
ATOM      2  C   UNL     1       2.582   7.704  18.183  0.00  0.00    +0.000 A 
ATOM      3  N   UNL     1       1.719   8.592  18.821  0.00  0.00    +0.000 N 
ATOM      4  C   UNL     1       1.276   8.392  20.127  0.00  0.00    +0.000 A 
ATOM      5  O   UNL     1       0.558   9.171  20.752  0.00  0.00    +0.000 OA
ATOM      6  N   UNL     1       1.698   7.247  20.739  0.00  0.00    +0.000 N 
ATOM      7  C   UNL     1       2.605   6.358  20.238  0.00  0.00    +0.000 A 
ATOM      8  O   UNL     1       3.022   5.420  20.907  0.00  0.00    +0.000 OA
ATOM      9  H   UNL     1       1.400   7.108  21.694  0.00  0.00    +0.000 HD
ENDROOT
BRANCH   1  10
ATOM     10  N   UNL     1       3.946   5.718  18.251  0.00  0.00    +0.000 N 
ATOM     11  C   UNL     1       3.470   4.636  17.480  0.00  0.00    +0.000 C 
ATOM     12  O   UNL     1       4.182   4.059  16.659  0.00  0.00    +0.000 OA
BRANCH  10  13
ATOM     13  C   UNL     1       5.327   6.200  18.028  0.00  0.00    +0.000 C 
BRANCH  13  14
ATOM     14  C   UNL     1       6.415   5.464  18.813  0.00  0.00    +0.000 C 
BRANCH  14  16
ATOM     15  C   UNL     1       7.748   7.343  17.838  0.00  0.00    +0.000 C 
ATOM     16  C   UNL     1       7.770   6.165  18.805  0.00  0.00    +0.000 C 
ENDBRANCH  14  16
ENDBRANCH  13  14
ENDBRANCH  10  13
BRANCH  11  17
ATOM     17  C   UNL     1       2.010   4.216  17.718  0.00  0.00    +0.000 C 
BRANCH  17  18
ATOM     18  C   UNL     1       1.746   2.717  17.990  0.00  0.00    +0.000 C 
ATOM     19  C   UNL     1       3.008   2.051  18.583  0.00  0.00    +0.000 C 
ATOM     20  C   UNL     1       3.316   2.505  20.012  0.00  0.00    +0.000 C 
ATOM     21  C   UNL     1       2.119   2.405  20.953  0.00  0.00    +0.000 C 
ATOM     22  C   UNL     1       0.812   2.923  20.359  0.00  0.00    +0.000 C 
ATOM     23  C   UNL     1       0.572   2.425  18.937  0.00  0.00    +0.000 C 
ENDBRANCH  17  18
ENDBRANCH  11  17
ENDBRANCH   1  10
BRANCH   2  24
ATOM     24  N   UNL     1       2.949   7.918  16.859  0.00  0.00    +0.000 N 
ATOM     25  H   UNL     1       3.301   8.855  16.675  0.00  0.00    +0.000 HD
ATOM     26  H   UNL     1       2.215   7.662  16.206  0.00  0.00    +0.000 HD
ENDBRANCH   2  24
BRANCH   3  27
ATOM     27  C   UNL     1       1.318   9.848  18.164  0.00  0.00    +0.000 C 
BRANCH  27  28
ATOM     28  C   UNL     1       2.321  11.010  18.204  0.00  0.00    +0.000 C 
BRANCH  28  29
ATOM     29  C   UNL     1       1.723  12.335  18.668  0.00  0.00    +0.000 C 
ATOM     30  C   UNL     1       2.640  13.489  18.283  0.00  0.00    +0.000 C 
ENDBRANCH  28  29
ENDBRANCH  27  28
ENDBRANCH   3  27
TORSDOF 10
ENDMDL
MODEL 8
REMARK VINA RESULT:      -5.8      2.006      5.759
REMARK  Name = 
REMARK  12 active torsions:
REMARK  status: ('A' for Active; 'I' for Inactive)
REMARK    1  A    between atoms: C_1  and  C_2
REMARK    2  A    between atoms: C_2  and  C_3
REMARK    3  A    between atoms: C_3  and  C_4
REMARK    4  A    between atoms: C_4  and  N_5
REMARK    5  A    between atoms: N_5  and  C_15
REMARK    6  A    between atoms: C_6  and  C_8
REMARK    7  A    between atoms: C_8  and  C_9
REMARK    8  A    between atoms: C_16  and  N_17
REMARK    9  A    between atoms: N_18  and  C_19
REMARK   10  A    between atoms: C_19  and  C_20
REMARK   11  A    between atoms: C_20  and  C_21
REMARK   12  A    between atoms: C_21  and  C_22
REMARK                            x       y       z     vdW  Elec       q    Type
REMARK                         _______ _______ _______ _____ _____    ______ ____
ROOT
ATOM      1  C   UNL     1       5.410   5.496  17.614  0.00  0.00    +0.000 A 
ATOM      2  C   UNL     1       5.968   4.916  16.527  0.00  0.00    +0.000 A 
ATOM      3  N   UNL     1       5.814   5.490  15.267  0.00  0.00    +0.000 N 
ATOM      4  C   UNL     1       5.064   6.647  15.061  0.00  0.00    +0.000 A 
ATOM      5  O   UNL     1       4.940   7.220  13.981  0.00  0.00    +0.000 OA
ATOM      6  N   UNL     1       4.445   7.167  16.161  0.00  0.00    +0.000 N 
ATOM      7  C   UNL     1       4.596   6.734  17.447  0.00  0.00    +0.000 A 
ATOM      8  O   UNL     1       4.100   7.338  18.391  0.00  0.00    +0.000 OA
ATOM      9  H   UNL     1       3.919   8.018  16.024  0.00  0.00    +0.000 HD
ENDROOT
BRANCH   1  10
ATOM     10  N   UNL     1       5.568   4.976  18.903  0.00  0.00    +0.000 N 
ATOM     11  C   UNL     1       4.875   3.809  19.293  0.00  0.00    +0.000 C 
ATOM     12  O   UNL     1       5.248   3.117  20.240  0.00  0.00    +0.000 OA
BRANCH  10  13
ATOM     13  C   UNL     1       6.804   5.347  19.626  0.00  0.00    +0.000 C 
BRANCH  13  14
ATOM     14  C   UNL     1       7.955   5.846  18.750  0.00  0.00    +0.000 C 
BRANCH  14  16
ATOM     15  C   UNL     1       7.915   8.070  17.606  0.00  0.00    +0.000 C 
ATOM     16  C   UNL     1       8.250   7.335  18.899  0.00  0.00    +0.000 C 
ENDBRANCH  14  16
ENDBRANCH  13  14
ENDBRANCH  10  13
BRANCH  11  17
ATOM     17  C   UNL     1       3.630   3.446  18.468  0.00  0.00    +0.000 C 
BRANCH  17  18
ATOM     18  C   UNL     1       2.350   4.275  18.727  0.00  0.00    +0.000 C 
ATOM     19  C   UNL     1       1.094   3.407  18.495  0.00  0.00    +0.000 C 
ATOM     20  C   UNL     1       0.901   2.325  19.562  0.00  0.00    +0.000 C 
ATOM     21  C   UNL     1       0.973   2.860  20.990  0.00  0.00    +0.000 C 
ATOM     22  C   UNL     1       2.120   3.838  21.234  0.00  0.00    +0.000 C 
ATOM     23  C   UNL     1       2.246   4.887  20.133  0.00  0.00    +0.000 C 
ENDBRANCH  17  18
ENDBRANCH  11  17
ENDBRANCH   1  10
BRANCH   2  24
ATOM     24  N   UNL     1       6.679   3.729  16.670  0.00  0.00    +0.000 N 
ATOM     25  H   UNL     1       7.485   3.803  17.287  0.00  0.00    +0.000 HD
ATOM     26  H   UNL     1       6.930   3.317  15.777  0.00  0.00    +0.000 HD
ENDBRANCH   2  24
BRANCH   3  27
ATOM     27  C   UNL     1       6.534   4.944  14.104  0.00  0.00    +0.000 C 
BRANCH  27  28
ATOM     28  C   UNL     1       6.033   3.609  13.533  0.00  0.00    +0.000 C 
BRANCH  28  29
ATOM     29  C   UNL     1       5.959   3.569  12.010  0.00  0.00    +0.000 C 
ATOM     30  C   UNL     1       4.551   3.200  11.560  0.00  0.00    +0.000 C 
ENDBRANCH  28  29
ENDBRANCH  27  28
ENDBRANCH   3  27
TORSDOF 10
ENDMDL
MODEL 9
REMARK VINA RESULT:      -5.7      2.911      6.049
REMARK  Name = 
REMARK  12 active torsions:
REMARK  status: ('A' for Active; 'I' for Inactive)
REMARK    1  A    between atoms: C_1  and  C_2
REMARK    2  A    between atoms: C_2  and  C_3
REMARK    3  A    between atoms: C_3  and  C_4
REMARK    4  A    between atoms: C_4  and  N_5
REMARK    5  A    between atoms: N_5  and  C_15
REMARK    6  A    between atoms: C_6  and  C_8
REMARK    7  A    between atoms: C_8  and  C_9
REMARK    8  A    between atoms: C_16  and  N_17
REMARK    9  A    between atoms: N_18  and  C_19
REMARK   10  A    between atoms: C_19  and  C_20
REMARK   11  A    between atoms: C_20  and  C_21
REMARK   12  A    between atoms: C_21  and  C_22
REMARK                            x       y       z     vdW  Elec       q    Type
REMARK                         _______ _______ _______ _____ _____    ______ ____
ROOT
ATOM      1  C   UNL     1       2.332   6.230  19.072  0.00  0.00    +0.000 A 
ATOM      2  C   UNL     1       2.108   7.484  18.617  0.00  0.00    +0.000 A 
ATOM      3  N   UNL     1       1.746   8.498  19.501  0.00  0.00    +0.000 N 
ATOM      4  C   UNL     1       1.565   8.270  20.864  0.00  0.00    +0.000 A 
ATOM      5  O   UNL     1       1.298   9.139  21.691  0.00  0.00    +0.000 OA
ATOM      6  N   UNL     1       1.718   6.981  21.285  0.00  0.00    +0.000 N 
ATOM      7  C   UNL     1       2.150   5.934  20.522  0.00  0.00    +0.000 A 
ATOM      8  O   UNL     1       2.378   4.833  21.012  0.00  0.00    +0.000 OA
ATOM      9  H   UNL     1       1.612   6.812  22.275  0.00  0.00    +0.000 HD
ENDROOT
BRANCH   1  10
ATOM     10  N   UNL     1       2.732   5.188  18.228  0.00  0.00    +0.000 N 
ATOM     11  C   UNL     1       4.031   4.645  18.331  0.00  0.00    +0.000 C 
ATOM     12  O   UNL     1       4.303   3.525  17.900  0.00  0.00    +0.000 OA
BRANCH  10  13
ATOM     13  C   UNL     1       1.659   4.366  17.627  0.00  0.00    +0.000 C 
BRANCH  13  14
ATOM     14  C   UNL     1       0.859   3.508  18.610  0.00  0.00    +0.000 C 
BRANCH  14  16
ATOM     15  C   UNL     1       2.113   1.795  19.932  0.00  0.00    +0.000 C 
ATOM     16  C   UNL     1       1.301   2.050  18.667  0.00  0.00    +0.000 C 
ENDBRANCH  14  16
ENDBRANCH  13  14
ENDBRANCH  10  13
BRANCH  11  17
ATOM     17  C   UNL     1       5.089   5.526  19.014  0.00  0.00    +0.000 C 
BRANCH  17  18
ATOM     18  C   UNL     1       5.943   6.434  18.098  0.00  0.00    +0.000 C 
ATOM     19  C   UNL     1       7.414   5.963  18.099  0.00  0.00    +0.000 C 
ATOM     20  C   UNL     1       7.621   4.629  17.377  0.00  0.00    +0.000 C 
ATOM     21  C   UNL     1       7.008   4.592  15.979  0.00  0.00    +0.000 C 
ATOM     22  C   UNL     1       5.600   5.180  15.900  0.00  0.00    +0.000 C 
ATOM     23  C   UNL     1       5.473   6.509  16.637  0.00  0.00    +0.000 C 
ENDBRANCH  17  18
ENDBRANCH  11  17
ENDBRANCH   1  10
BRANCH   2  24
ATOM     24  N   UNL     1       2.220   7.751  17.257  0.00  0.00    +0.000 N 
ATOM     25  H   UNL     1       1.326   7.870  16.785  0.00  0.00    +0.000 HD
ATOM     26  H   UNL     1       2.808   7.077  16.776  0.00  0.00    +0.000 HD
ENDBRANCH   2  24
BRANCH   3  27
ATOM     27  C   UNL     1       1.639   9.892  19.036  0.00  0.00    +0.000 C 
BRANCH  27  28
ATOM     28  C   UNL     1       0.230  10.496  18.951  0.00  0.00    +0.000 C 
BRANCH  28  29
ATOM     29  C   UNL     1      -0.632   9.916  17.835  0.00  0.00    +0.000 C 
ATOM     30  C   UNL     1      -1.942  10.687  17.726  0.00  0.00    +0.000 C 
ENDBRANCH  28  29
ENDBRANCH  27  28
ENDBRANCH   3  27
TORSDOF 10
ENDMDL
