MODEL 1
REMARK VINA RESULT:      -6.9      0.000      0.000
REMARK  Name = 
REMARK  13 active torsions:
REMARK  status: ('A' for Active; 'I' for Inactive)
REMARK    1  A    between atoms: C_1  and  C_2
REMARK    2  A    between atoms: C_2  and  C_3
REMARK    3  A    between atoms: C_2  and  C_4
REMARK    4  A    between atoms: C_4  and  C_5
REMARK    5  A    between atoms: C_4  and  C_6
REMARK    6  A    between atoms: C_6  and  C_7
REMARK    7  A    between atoms: C_9  and  C_10
REMARK    8  A    between atoms: C_10  and  C_11
REMARK    9  A    between atoms: C_10  and  C_12
REMARK   10  A    between atoms: N_19  and  O_20
REMARK   11  A    between atoms: C_23  and  O_24
REMARK   12  A    between atoms: C_27  and  C_28
REMARK   13  A    between atoms: C_32  and  C_33
REMARK                            x       y       z     vdW  Elec       q    Type
REMARK                         _______ _______ _______ _____ _____    ______ ____
ROOT
ATOM      1  C   UNL     1      -0.557  15.495  21.550  0.00  0.00    +0.000 C 
ATOM      2  C   UNL     1       0.576  14.891  22.434  0.00  0.00    +0.000 C 
ATOM      3  C   UNL     1       1.594  14.421  21.481  0.00  0.00    +0.000 C 
ATOM      4  C   UNL     1       0.738  13.765  20.439  0.00  0.00    +0.000 C 
ATOM      5  C   UNL     1       0.482  12.297  20.377  0.00  0.00    +0.000 C 
ATOM      6  C   UNL     1       1.182  11.476  21.425  0.00  0.00    +0.000 C 
ATOM      7  C   UNL     1       0.383  10.216  21.355  0.00  0.00    +0.000 C 
ATOM      8  N   UNL     1      -0.387   9.732  22.276  0.00  0.00    +0.000 NA
ATOM      9  C   UNL     1       0.621   9.519  20.066  0.00  0.00    +0.000 C 
ATOM     10  C   UNL     1       1.326   8.430  20.383  0.00  0.00    +0.000 C 
ATOM     11  C   UNL     1       2.266   7.772  19.436  0.00  0.00    +0.000 C 
ATOM     12  C   UNL     1       1.952   8.181  18.005  0.00  0.00    +0.000 C 
ATOM     13  C   UNL     1       1.791   9.718  17.877  0.00  0.00    +0.000 C 
ATOM     14  C   UNL     1       0.598  10.305  18.722  0.00  0.00    +0.000 C 
ATOM     15  C   UNL     1      -0.701   9.967  17.941  0.00  0.00    +0.000 C 
ATOM     16  C   UNL     1       0.713  11.915  18.903  0.00  0.00    +0.000 C 
ATOM     17  C   UNL     1      -0.177  13.001  18.036  0.00  0.00    +0.000 C 
ATOM     18  C   UNL     1      -0.534  14.535  18.719  0.00  0.00    +0.000 C 
ATOM     19  C   UNL     1      -0.660  14.452  20.308  0.00  0.00    +0.000 C 
ATOM     20  C   UNL     1      -2.045  13.776  20.465  0.00  0.00    +0.000 C 
ENDROOT
BRANCH   1  21
ATOM     21  C   UNL     1      -1.727  15.862  22.621  0.00  0.00    +0.000 C 
ATOM     22  C   UNL     1      -0.994  16.504  23.853  0.00  0.00    +0.000 C 
BRANCH  21  26
ATOM     23  C   UNL     1      -4.185  14.596  23.317  0.00  0.00    +0.000 C 
ATOM     24  C   UNL     1      -4.981  15.679  22.627  0.00  0.00    +0.000 C 
ATOM     25  C   UNL     1      -3.365  14.996  24.507  0.00  0.00    +0.000 C 
ATOM     26  C   UNL     1      -2.619  14.695  23.210  0.00  0.00    +0.000 C 
BRANCH  23  27
ATOM     27  C   UNL     1      -4.946  13.215  23.401  0.00  0.00    +0.000 C 
ATOM     28  C   UNL     1      -4.784  12.461  24.730  0.00  0.00    +0.000 C 
BRANCH  27  30
ATOM     29  C   UNL     1      -7.455  13.065  24.136  0.00  0.00    +0.000 C 
ATOM     30  C   UNL     1      -6.467  13.299  22.988  0.00  0.00    +0.000 C 
ATOM     31  C   UNL     1      -6.835  12.339  21.840  0.00  0.00    +0.000 C 
ENDBRANCH  27  30
ENDBRANCH  23  27
ENDBRANCH  21  26
ENDBRANCH   1  21
BRANCH   8  32
ATOM     32  O   UNL     1      -0.409  10.575  23.396  0.00  0.00    +0.000 OA
ATOM     33  H   UNL     1       0.184  11.299  23.129  0.00  0.00    +0.000 HD
ENDBRANCH   8  32
BRANCH  11  34
ATOM     34  O   UNL     1       2.212   6.367  19.584  0.00  0.00    +0.000 OA
ATOM     35  H   UNL     1       1.545   6.009  18.972  0.00  0.00    +0.000 HD
ENDBRANCH  11  34
TORSDOF 6
ENDMDL
MODEL 2
REMARK VINA RESULT:      -6.8      3.149      5.401
REMARK  Name = 
REMARK  13 active torsions:
REMARK  status: ('A' for Active; 'I' for Inactive)
REMARK    1  A    between atoms: C_1  and  C_2
REMARK    2  A    between atoms: C_2  and  C_3
REMARK    3  A    between atoms: C_2  and  C_4
REMARK    4  A    between atoms: C_4  and  C_5
REMARK    5  A    between atoms: C_4  and  C_6
REMARK    6  A    between atoms: C_6  and  C_7
REMARK    7  A    between atoms: C_9  and  C_10
REMARK    8  A    between atoms: C_10  and  C_11
REMARK    9  A    between atoms: C_10  and  C_12
REMARK   10  A    between atoms: N_19  and  O_20
REMARK   11  A    between atoms: C_23  and  O_24
REMARK   12  A    between atoms: C_27  and  C_28
REMARK   13  A    between atoms: C_32  and  C_33
REMARK                            x       y       z     vdW  Elec       q    Type
REMARK                         _______ _______ _______ _____ _____    ______ ____
ROOT
ATOM      1  C   UNL     1      -3.240  13.629  23.113  0.00  0.00    +0.000 C 
ATOM      2  C   UNL     1      -2.609  12.321  22.549  0.00  0.00    +0.000 C 
ATOM      3  C   UNL     1      -1.196  12.369  22.961  0.00  0.00    +0.000 C 
ATOM      4  C   UNL     1      -0.857  13.801  22.672  0.00  0.00    +0.000 C 
ATOM      5  C   UNL     1      -0.164  14.256  21.432  0.00  0.00    +0.000 C 
ATOM      6  C   UNL     1       0.225  13.165  20.473  0.00  0.00    +0.000 C 
ATOM      7  C   UNL     1       0.450  13.966  19.233  0.00  0.00    +0.000 C 
ATOM      8  N   UNL     1      -0.245  13.922  18.142  0.00  0.00    +0.000 NA
ATOM      9  C   UNL     1       1.652  14.826  19.379  0.00  0.00    +0.000 C 
ATOM     10  C   UNL     1       2.565  14.291  18.566  0.00  0.00    +0.000 C 
ATOM     11  C   UNL     1       4.029  14.420  18.799  0.00  0.00    +0.000 C 
ATOM     12  C   UNL     1       4.319  15.582  19.736  0.00  0.00    +0.000 C 
ATOM     13  C   UNL     1       3.411  15.537  20.991  0.00  0.00    +0.000 C 
ATOM     14  C   UNL     1       1.874  15.667  20.672  0.00  0.00    +0.000 C 
ATOM     15  C   UNL     1       1.614  17.167  20.370  0.00  0.00    +0.000 C 
ATOM     16  C   UNL     1       0.949  15.201  21.922  0.00  0.00    +0.000 C 
ATOM     17  C   UNL     1       0.195  16.253  22.946  0.00  0.00    +0.000 C 
ATOM     18  C   UNL     1      -1.250  15.770  23.738  0.00  0.00    +0.000 C 
ATOM     19  C   UNL     1      -2.090  14.746  22.848  0.00  0.00    +0.000 C 
ATOM     20  C   UNL     1      -2.691  15.696  21.782  0.00  0.00    +0.000 C 
ENDROOT
BRANCH   1  21
ATOM     21  C   UNL     1      -4.753  13.618  22.509  0.00  0.00    +0.000 C 
ATOM     22  C   UNL     1      -5.708  13.527  23.752  0.00  0.00    +0.000 C 
BRANCH  21  26
ATOM     23  C   UNL     1      -5.781  12.510  20.093  0.00  0.00    +0.000 C 
ATOM     24  C   UNL     1      -5.812  13.871  19.438  0.00  0.00    +0.000 C 
ATOM     25  C   UNL     1      -6.678  12.293  21.274  0.00  0.00    +0.000 C 
ATOM     26  C   UNL     1      -5.184  12.440  21.546  0.00  0.00    +0.000 C 
BRANCH  23  27
ATOM     27  C   UNL     1      -5.652  11.321  19.062  0.00  0.00    +0.000 C 
ATOM     28  C   UNL     1      -6.956  10.934  18.347  0.00  0.00    +0.000 C 
BRANCH  27  30
ATOM     29  C   UNL     1      -4.928  11.887  16.610  0.00  0.00    +0.000 C 
ATOM     30  C   UNL     1      -4.477  11.501  18.023  0.00  0.00    +0.000 C 
ATOM     31  C   UNL     1      -3.574  10.258  17.912  0.00  0.00    +0.000 C 
ENDBRANCH  27  30
ENDBRANCH  23  27
ENDBRANCH  21  26
ENDBRANCH   1  21
BRANCH   8  32
ATOM     32  O   UNL     1      -1.302  13.010  18.266  0.00  0.00    +0.000 OA
ATOM     33  H   UNL     1      -1.195  12.451  17.476  0.00  0.00    +0.000 HD
ENDBRANCH   8  32
BRANCH  11  34
ATOM     34  O   UNL     1       4.712  14.577  17.570  0.00  0.00    +0.000 OA
ATOM     35  H   UNL     1       4.078  14.480  16.840  0.00  0.00    +0.000 HD
ENDBRANCH  11  34
TORSDOF 6
ENDMDL
MODEL 3
REMARK VINA RESULT:      -6.1      0.645      1.174
REMARK  Name = 
REMARK  13 active torsions:
REMARK  status: ('A' for Active; 'I' for Inactive)
REMARK    1  A    between atoms: C_1  and  C_2
REMARK    2  A    between atoms: C_2  and  C_3
REMARK    3  A    between atoms: C_2  and  C_4
REMARK    4  A    between atoms: C_4  and  C_5
REMARK    5  A    between atoms: C_4  and  C_6
REMARK    6  A    between atoms: C_6  and  C_7
REMARK    7  A    between atoms: C_9  and  C_10
REMARK    8  A    between atoms: C_10  and  C_11
REMARK    9  A    between atoms: C_10  and  C_12
REMARK   10  A    between atoms: N_19  and  O_20
REMARK   11  A    between atoms: C_23  and  O_24
REMARK   12  A    between atoms: C_27  and  C_28
REMARK   13  A    between atoms: C_32  and  C_33
REMARK                            x       y       z     vdW  Elec       q    Type
REMARK                         _______ _______ _______ _____ _____    ______ ____
ROOT
ATOM      1  C   UNL     1      -0.760  15.460  21.704  0.00  0.00    +0.000 C 
ATOM      2  C   UNL     1       0.414  14.874  22.546  0.00  0.00    +0.000 C 
ATOM      3  C   UNL     1       1.419  14.450  21.557  0.00  0.00    +0.000 C 
ATOM      4  C   UNL     1       0.554  13.790  20.526  0.00  0.00    +0.000 C 
ATOM      5  C   UNL     1       0.338  12.317  20.442  0.00  0.00    +0.000 C 
ATOM      6  C   UNL     1       1.089  11.496  21.455  0.00  0.00    +0.000 C 
ATOM      7  C   UNL     1       0.324  10.216  21.382  0.00  0.00    +0.000 C 
ATOM      8  N   UNL     1      -0.406   9.692  22.314  0.00  0.00    +0.000 NA
ATOM      9  C   UNL     1       0.547   9.549  20.073  0.00  0.00    +0.000 C 
ATOM     10  C   UNL     1       1.291   8.476  20.351  0.00  0.00    +0.000 C 
ATOM     11  C   UNL     1       2.224   7.863  19.366  0.00  0.00    +0.000 C 
ATOM     12  C   UNL     1       1.860   8.290  17.952  0.00  0.00    +0.000 C 
ATOM     13  C   UNL     1       1.651   9.823  17.859  0.00  0.00    +0.000 C 
ATOM     14  C   UNL     1       0.466  10.360  18.746  0.00  0.00    +0.000 C 
ATOM     15  C   UNL     1      -0.843   9.999  17.993  0.00  0.00    +0.000 C 
ATOM     16  C   UNL     1       0.540  11.969  18.956  0.00  0.00    +0.000 C 
ATOM     17  C   UNL     1      -0.404  13.044  18.133  0.00  0.00    +0.000 C 
ATOM     18  C   UNL     1      -0.786  14.555  18.856  0.00  0.00    +0.000 C 
ATOM     19  C   UNL     1      -0.866  14.438  20.445  0.00  0.00    +0.000 C 
ATOM     20  C   UNL     1      -2.226  13.719  20.626  0.00  0.00    +0.000 C 
ENDROOT
BRANCH   1  21
ATOM     21  C   UNL     1      -1.910  15.773  22.813  0.00  0.00    +0.000 C 
ATOM     22  C   UNL     1      -1.259  15.454  24.206  0.00  0.00    +0.000 C 
BRANCH  21  26
ATOM     23  C   UNL     1      -4.685  15.344  23.305  0.00  0.00    +0.000 C 
ATOM     24  C   UNL     1      -4.856  16.764  23.793  0.00  0.00    +0.000 C 
ATOM     25  C   UNL     1      -3.794  14.443  24.105  0.00  0.00    +0.000 C 
ATOM     26  C   UNL     1      -3.260  14.950  22.769  0.00  0.00    +0.000 C 
BRANCH  23  27
ATOM     27  C   UNL     1      -6.014  14.714  22.731  0.00  0.00    +0.000 C 
ATOM     28  C   UNL     1      -6.414  15.204  21.330  0.00  0.00    +0.000 C 
BRANCH  27  30
ATOM     29  C   UNL     1      -6.264  12.440  21.457  0.00  0.00    +0.000 C 
ATOM     30  C   UNL     1      -6.059  13.138  22.806  0.00  0.00    +0.000 C 
ATOM     31  C   UNL     1      -7.127  12.611  23.782  0.00  0.00    +0.000 C 
ENDBRANCH  27  30
ENDBRANCH  23  27
ENDBRANCH  21  26
ENDBRANCH   1  21
BRANCH   8  32
ATOM     32  O   UNL     1      -0.422  10.513  23.449  0.00  0.00    +0.000 OA
ATOM     33  H   UNL     1      -1.361  10.505  23.705  0.00  0.00    +0.000 HD
ENDBRANCH   8  32
BRANCH  11  34
ATOM     34  O   UNL     1       2.213   6.454  19.488  0.00  0.00    +0.000 OA
ATOM     35  H   UNL     1       3.052   6.164  19.887  0.00  0.00    +0.000 HD
ENDBRANCH  11  34
TORSDOF 6
ENDMDL
MODEL 4
REMARK VINA RESULT:      -5.9      2.655      5.436
REMARK  Name = 
REMARK  13 active torsions:
REMARK  status: ('A' for Active; 'I' for Inactive)
REMARK    1  A    between atoms: C_1  and  C_2
REMARK    2  A    between atoms: C_2  and  C_3
REMARK    3  A    between atoms: C_2  and  C_4
REMARK    4  A    between atoms: C_4  and  C_5
REMARK    5  A    between atoms: C_4  and  C_6
REMARK    6  A    between atoms: C_6  and  C_7
REMARK    7  A    between atoms: C_9  and  C_10
REMARK    8  A    between atoms: C_10  and  C_11
REMARK    9  A    between atoms: C_10  and  C_12
REMARK   10  A    between atoms: N_19  and  O_20
REMARK   11  A    between atoms: C_23  and  O_24
REMARK   12  A    between atoms: C_27  and  C_28
REMARK   13  A    between atoms: C_32  and  C_33
REMARK                            x       y       z     vdW  Elec       q    Type
REMARK                         _______ _______ _______ _____ _____    ______ ____
ROOT
ATOM      1  C   UNL     1      -2.740  14.024  21.418  0.00  0.00    +0.000 C 
ATOM      2  C   UNL     1      -2.938  13.555  19.944  0.00  0.00    +0.000 C 
ATOM      3  C   UNL     1      -3.136  12.098  20.030  0.00  0.00    +0.000 C 
ATOM      4  C   UNL     1      -2.079  11.719  21.024  0.00  0.00    +0.000 C 
ATOM      5  C   UNL     1      -0.741  11.179  20.648  0.00  0.00    +0.000 C 
ATOM      6  C   UNL     1      -0.512  10.992  19.173  0.00  0.00    +0.000 C 
ATOM      7  C   UNL     1       0.978  10.895  19.145  0.00  0.00    +0.000 C 
ATOM      8  N   UNL     1       1.802  11.736  18.607  0.00  0.00    +0.000 NA
ATOM      9  C   UNL     1       1.431   9.635  19.789  0.00  0.00    +0.000 C 
ATOM     10  C   UNL     1       1.889   8.877  18.790  0.00  0.00    +0.000 C 
ATOM     11  C   UNL     1       1.889   7.390  18.839  0.00  0.00    +0.000 C 
ATOM     12  C   UNL     1       1.774   6.905  20.276  0.00  0.00    +0.000 C 
ATOM     13  C   UNL     1       0.630   7.631  21.029  0.00  0.00    +0.000 C 
ATOM     14  C   UNL     1       0.838   9.187  21.158  0.00  0.00    +0.000 C 
ATOM     15  C   UNL     1       1.892   9.397  22.278  0.00  0.00    +0.000 C 
ATOM     16  C   UNL     1      -0.535   9.955  21.559  0.00  0.00    +0.000 C 
ATOM     17  C   UNL     1      -0.870  10.496  23.082  0.00  0.00    +0.000 C 
ATOM     18  C   UNL     1      -1.916  11.843  23.288  0.00  0.00    +0.000 C 
ATOM     19  C   UNL     1      -1.809  12.857  22.060  0.00  0.00    +0.000 C 
ATOM     20  C   UNL     1      -0.452  13.543  22.353  0.00  0.00    +0.000 C 
ENDROOT
BRANCH   1  21
ATOM     21  C   UNL     1      -2.372  15.603  21.273  0.00  0.00    +0.000 C 
ATOM     22  C   UNL     1      -3.689  16.383  21.626  0.00  0.00    +0.000 C 
BRANCH  21  26
ATOM     23  C   UNL     1      -0.709  17.110  19.517  0.00  0.00    +0.000 C 
ATOM     24  C   UNL     1       0.247  17.436  20.641  0.00  0.00    +0.000 C 
ATOM     25  C   UNL     1      -2.103  17.648  19.620  0.00  0.00    +0.000 C 
ATOM     26  C   UNL     1      -1.908  16.155  19.865  0.00  0.00    +0.000 C 
BRANCH  23  27
ATOM     27  C   UNL     1      -0.031  17.140  18.090  0.00  0.00    +0.000 C 
ATOM     28  C   UNL     1      -0.573  18.214  17.134  0.00  0.00    +0.000 C 
BRANCH  27  30
ATOM     29  C   UNL     1       2.207  17.762  16.882  0.00  0.00    +0.000 C 
ATOM     30  C   UNL     1       1.546  17.174  18.133  0.00  0.00    +0.000 C 
ATOM     31  C   UNL     1       2.173  15.791  18.397  0.00  0.00    +0.000 C 
ENDBRANCH  27  30
ENDBRANCH  23  27
ENDBRANCH  21  26
ENDBRANCH   1  21
BRANCH   8  32
ATOM     32  O   UNL     1       1.109  12.817  18.046  0.00  0.00    +0.000 OA
ATOM     33  H   UNL     1       1.244  12.685  17.092  0.00  0.00    +0.000 HD
ENDBRANCH   8  32
BRANCH  11  34
ATOM     34  O   UNL     1       3.054   6.876  18.223  0.00  0.00    +0.000 OA
ATOM     35  H   UNL     1       3.169   7.304  17.356  0.00  0.00    +0.000 HD
ENDBRANCH  11  34
TORSDOF 6
ENDMDL
MODEL 5
REMARK VINA RESULT:      -5.9      6.714      8.898
REMARK  Name = 
REMARK  13 active torsions:
REMARK  status: ('A' for Active; 'I' for Inactive)
REMARK    1  A    between atoms: C_1  and  C_2
REMARK    2  A    between atoms: C_2  and  C_3
REMARK    3  A    between atoms: C_2  and  C_4
REMARK    4  A    between atoms: C_4  and  C_5
REMARK    5  A    between atoms: C_4  and  C_6
REMARK    6  A    between atoms: C_6  and  C_7
REMARK    7  A    between atoms: C_9  and  C_10
REMARK    8  A    between atoms: C_10  and  C_11
REMARK    9  A    between atoms: C_10  and  C_12
REMARK   10  A    between atoms: N_19  and  O_20
REMARK   11  A    between atoms: C_23  and  O_24
REMARK   12  A    between atoms: C_27  and  C_28
REMARK   13  A    between atoms: C_32  and  C_33
REMARK                            x       y       z     vdW  Elec       q    Type
REMARK                         _______ _______ _______ _____ _____    ______ ____
ROOT
ATOM      1  C   UNL     1       4.729  16.387  22.025  0.00  0.00    +0.000 C 
ATOM      2  C   UNL     1       4.720  14.850  21.770  0.00  0.00    +0.000 C 
ATOM      3  C   UNL     1       6.019  14.371  22.269  0.00  0.00    +0.000 C 
ATOM      4  C   UNL     1       6.942  15.426  21.736  0.00  0.00    +0.000 C 
ATOM      5  C   UNL     1       7.743  15.276  20.487  0.00  0.00    +0.000 C 
ATOM      6  C   UNL     1       7.602  13.952  19.786  0.00  0.00    +0.000 C 
ATOM      7  C   UNL     1       8.132  14.308  18.436  0.00  0.00    +0.000 C 
ATOM      8  N   UNL     1       7.469  14.343  17.325  0.00  0.00    +0.000 NA
ATOM      9  C   UNL     1       9.591  14.579  18.503  0.00  0.00    +0.000 C 
ATOM     10  C   UNL     1      10.166  13.550  17.877  0.00  0.00    +0.000 C 
ATOM     11  C   UNL     1      11.545  13.083  18.188  0.00  0.00    +0.000 C 
ATOM     12  C   UNL     1      12.327  14.173  18.904  0.00  0.00    +0.000 C 
ATOM     13  C   UNL     1      11.511  14.780  20.075  0.00  0.00    +0.000 C 
ATOM     14  C   UNL     1      10.178  15.487  19.624  0.00  0.00    +0.000 C 
ATOM     15  C   UNL     1      10.591  16.858  19.022  0.00  0.00    +0.000 C 
ATOM     16  C   UNL     1       9.164  15.730  20.869  0.00  0.00    +0.000 C 
ATOM     17  C   UNL     1       8.961  17.189  21.613  0.00  0.00    +0.000 C 
ATOM     18  C   UNL     1       7.463  17.545  22.375  0.00  0.00    +0.000 C 
ATOM     19  C   UNL     1       6.247  16.822  21.637  0.00  0.00    +0.000 C 
ATOM     20  C   UNL     1       6.100  17.697  20.367  0.00  0.00    +0.000 C 
ENDROOT
BRANCH   1  21
ATOM     21  C   UNL     1       3.353  16.902  21.325  0.00  0.00    +0.000 C 
ATOM     22  C   UNL     1       2.494  17.529  22.480  0.00  0.00    +0.000 C 
BRANCH  21  26
ATOM     23  C   UNL     1       2.241  15.541  19.081  0.00  0.00    +0.000 C 
ATOM     24  C   UNL     1       3.207  16.224  18.141  0.00  0.00    +0.000 C 
ATOM     25  C   UNL     1       1.251  16.407  19.800  0.00  0.00    +0.000 C 
ATOM     26  C   UNL     1       2.413  15.846  20.613  0.00  0.00    +0.000 C 
BRANCH  23  27
ATOM     27  C   UNL     1       1.721  14.150  18.544  0.00  0.00    +0.000 C 
ATOM     28  C   UNL     1       2.815  13.102  18.285  0.00  0.00    +0.000 C 
BRANCH  27  30
ATOM     29  C   UNL     1       0.966  12.379  20.319  0.00  0.00    +0.000 C 
ATOM     30  C   UNL     1       0.548  13.533  19.400  0.00  0.00    +0.000 C 
ATOM     31  C   UNL     1      -0.638  13.052  18.542  0.00  0.00    +0.000 C 
ENDBRANCH  27  30
ENDBRANCH  23  27
ENDBRANCH  21  26
ENDBRANCH   1  21
BRANCH   8  32
ATOM     32  O   UNL     1       6.123  14.019  17.543  0.00  0.00    +0.000 OA
ATOM     33  H   UNL     1       6.145  13.594  18.418  0.00  0.00    +0.000 HD
ENDBRANCH   8  32
BRANCH  11  34
ATOM     34  O   UNL     1      12.207  12.677  17.006  0.00  0.00    +0.000 OA
ATOM     35  H   UNL     1      12.820  11.953  17.219  0.00  0.00    +0.000 HD
ENDBRANCH  11  34
TORSDOF 6
ENDMDL
MODEL 6
REMARK VINA RESULT:      -5.8      1.283      2.105
REMARK  Name = 
REMARK  13 active torsions:
REMARK  status: ('A' for Active; 'I' for Inactive)
REMARK    1  A    between atoms: C_1  and  C_2
REMARK    2  A    between atoms: C_2  and  C_3
REMARK    3  A    between atoms: C_2  and  C_4
REMARK    4  A    between atoms: C_4  and  C_5
REMARK    5  A    between atoms: C_4  and  C_6
REMARK    6  A    between atoms: C_6  and  C_7
REMARK    7  A    between atoms: C_9  and  C_10
REMARK    8  A    between atoms: C_10  and  C_11
REMARK    9  A    between atoms: C_10  and  C_12
REMARK   10  A    between atoms: N_19  and  O_20
REMARK   11  A    between atoms: C_23  and  O_24
REMARK   12  A    between atoms: C_27  and  C_28
REMARK   13  A    between atoms: C_32  and  C_33
REMARK                            x       y       z     vdW  Elec       q    Type
REMARK                         _______ _______ _______ _____ _____    ______ ____
ROOT
ATOM      1  C   UNL     1      -2.058  14.471  21.928  0.00  0.00    +0.000 C 
ATOM      2  C   UNL     1      -0.904  14.010  22.868  0.00  0.00    +0.000 C 
ATOM      3  C   UNL     1       0.273  13.880  21.993  0.00  0.00    +0.000 C 
ATOM      4  C   UNL     1      -0.324  13.196  20.800  0.00  0.00    +0.000 C 
ATOM      5  C   UNL     1      -0.248  11.726  20.560  0.00  0.00    +0.000 C 
ATOM      6  C   UNL     1       0.518  10.944  21.591  0.00  0.00    +0.000 C 
ATOM      7  C   UNL     1       0.021   9.565  21.304  0.00  0.00    +0.000 C 
ATOM      8  N   UNL     1      -0.704   8.822  22.078  0.00  0.00    +0.000 NA
ATOM      9  C   UNL     1       0.519   9.096  19.985  0.00  0.00    +0.000 C 
ATOM     10  C   UNL     1       1.413   8.145  20.268  0.00  0.00    +0.000 C 
ATOM     11  C   UNL     1       2.553   7.817  19.371  0.00  0.00    +0.000 C 
ATOM     12  C   UNL     1       2.287   8.327  17.963  0.00  0.00    +0.000 C 
ATOM     13  C   UNL     1       1.807   9.801  17.975  0.00  0.00    +0.000 C 
ATOM     14  C   UNL     1       0.445  10.021  18.735  0.00  0.00    +0.000 C 
ATOM     15  C   UNL     1      -0.675   9.522  17.781  0.00  0.00    +0.000 C 
ATOM     16  C   UNL     1       0.191  11.585  19.091  0.00  0.00    +0.000 C 
ATOM     17  C   UNL     1      -0.834  12.563  18.244  0.00  0.00    +0.000 C 
ATOM     18  C   UNL     1      -1.576  13.895  19.035  0.00  0.00    +0.000 C 
ATOM     19  C   UNL     1      -1.821  13.591  20.582  0.00  0.00    +0.000 C 
ATOM     20  C   UNL     1      -3.034  12.630  20.513  0.00  0.00    +0.000 C 
ENDROOT
BRANCH   1  21
ATOM     21  C   UNL     1      -3.370  14.454  22.892  0.00  0.00    +0.000 C 
ATOM     22  C   UNL     1      -2.956  13.630  24.163  0.00  0.00    +0.000 C 
BRANCH  21  26
ATOM     23  C   UNL     1      -6.139  14.408  22.218  0.00  0.00    +0.000 C 
ATOM     24  C   UNL     1      -6.262  15.893  22.466  0.00  0.00    +0.000 C 
ATOM     25  C   UNL     1      -5.800  13.539  23.391  0.00  0.00    +0.000 C 
ATOM     26  C   UNL     1      -4.702  13.786  22.361  0.00  0.00    +0.000 C 
BRANCH  23  27
ATOM     27  C   UNL     1      -7.210  13.852  21.199  0.00  0.00    +0.000 C 
ATOM     28  C   UNL     1      -7.838  14.907  20.275  0.00  0.00    +0.000 C 
BRANCH  27  30
ATOM     29  C   UNL     1      -6.886  12.739  18.851  0.00  0.00    +0.000 C 
ATOM     30  C   UNL     1      -6.712  12.606  20.368  0.00  0.00    +0.000 C 
ATOM     31  C   UNL     1      -7.372  11.285  20.807  0.00  0.00    +0.000 C 
ENDBRANCH  27  30
ENDBRANCH  23  27
ENDBRANCH  21  26
ENDBRANCH   1  21
BRANCH   8  32
ATOM     32  O   UNL     1      -1.007   9.498  23.268  0.00  0.00    +0.000 OA
ATOM     33  H   UNL     1      -1.686  10.135  22.984  0.00  0.00    +0.000 HD
ENDBRANCH   8  32
BRANCH  11  34
ATOM     34  O   UNL     1       2.794   6.423  19.368  0.00  0.00    +0.000 OA
ATOM     35  H   UNL     1       3.406   6.209  18.643  0.00  0.00    +0.000 HD
ENDBRANCH  11  34
TORSDOF 6
ENDMDL
MODEL 7
REMARK VINA RESULT:      -5.8      2.990      5.922
REMARK  Name = 
REMARK  13 active torsions:
REMARK  status: ('A' for Active; 'I' for Inactive)
REMARK    1  A    between atoms: C_1  and  C_2
REMARK    2  A    between atoms: C_2  and  C_3
REMARK    3  A    between atoms: C_2  and  C_4
REMARK    4  A    between atoms: C_4  and  C_5
REMARK    5  A    between atoms: C_4  and  C_6
REMARK    6  A    between atoms: C_6  and  C_7
REMARK    7  A    between atoms: C_9  and  C_10
REMARK    8  A    between atoms: C_10  and  C_11
REMARK    9  A    between atoms: C_10  and  C_12
REMARK   10  A    between atoms: N_19  and  O_20
REMARK   11  A    between atoms: C_23  and  O_24
REMARK   12  A    between atoms: C_27  and  C_28
REMARK   13  A    between atoms: C_32  and  C_33
REMARK                            x       y       z     vdW  Elec       q    Type
REMARK                         _______ _______ _______ _____ _____    ______ ____
ROOT
ATOM      1  C   UNL     1      -1.871  13.798  20.688  0.00  0.00    +0.000 C 
ATOM      2  C   UNL     1      -2.047  13.247  19.242  0.00  0.00    +0.000 C 
ATOM      3  C   UNL     1      -2.438  11.838  19.414  0.00  0.00    +0.000 C 
ATOM      4  C   UNL     1      -1.497  11.405  20.498  0.00  0.00    +0.000 C 
ATOM      5  C   UNL     1      -0.222  10.673  20.248  0.00  0.00    +0.000 C 
ATOM      6  C   UNL     1       0.061  10.346  18.807  0.00  0.00    +0.000 C 
ATOM      7  C   UNL     1       1.525  10.058  18.881  0.00  0.00    +0.000 C 
ATOM      8  N   UNL     1       2.480  10.745  18.340  0.00  0.00    +0.000 NA
ATOM      9  C   UNL     1       1.772   8.805  19.638  0.00  0.00    +0.000 C 
ATOM     10  C   UNL     1       2.182   7.921  18.725  0.00  0.00    +0.000 C 
ATOM     11  C   UNL     1       1.984   6.454  18.877  0.00  0.00    +0.000 C 
ATOM     12  C   UNL     1       1.728   6.099  20.334  0.00  0.00    +0.000 C 
ATOM     13  C   UNL     1       0.649   7.019  20.960  0.00  0.00    +0.000 C 
ATOM     14  C   UNL     1       1.051   8.542  20.994  0.00  0.00    +0.000 C 
ATOM     15  C   UNL     1       2.061   8.702  22.162  0.00  0.00    +0.000 C 
ATOM     16  C   UNL     1      -0.229   9.506  21.252  0.00  0.00    +0.000 C 
ATOM     17  C   UNL     1      -0.573  10.200  22.710  0.00  0.00    +0.000 C 
ATOM     18  C   UNL     1      -1.443  11.681  22.754  0.00  0.00    +0.000 C 
ATOM     19  C   UNL     1      -1.137  12.576  21.469  0.00  0.00    +0.000 C 
ATOM     20  C   UNL     1       0.281  13.105  21.800  0.00  0.00    +0.000 C 
ENDROOT
BRANCH   1  21
ATOM     21  C   UNL     1      -1.291  15.303  20.459  0.00  0.00    +0.000 C 
ATOM     22  C   UNL     1      -2.544  16.205  20.172  0.00  0.00    +0.000 C 
BRANCH  21  26
ATOM     23  C   UNL     1       1.044  16.397  19.244  0.00  0.00    +0.000 C 
ATOM     24  C   UNL     1       1.547  16.899  20.578  0.00  0.00    +0.000 C 
ATOM     25  C   UNL     1      -0.230  16.988  18.721  0.00  0.00    +0.000 C 
ATOM     26  C   UNL     1      -0.289  15.563  19.263  0.00  0.00    +0.000 C 
BRANCH  23  27
ATOM     27  C   UNL     1       2.197  16.134  18.198  0.00  0.00    +0.000 C 
ATOM     28  C   UNL     1       2.395  17.246  17.155  0.00  0.00    +0.000 C 
BRANCH  27  30
ATOM     29  C   UNL     1       4.648  16.823  18.808  0.00  0.00    +0.000 C 
ATOM     30  C   UNL     1       3.574  15.730  18.854  0.00  0.00    +0.000 C 
ATOM     31  C   UNL     1       4.176  14.446  18.252  0.00  0.00    +0.000 C 
ENDBRANCH  27  30
ENDBRANCH  23  27
ENDBRANCH  21  26
ENDBRANCH   1  21
BRANCH   8  32
ATOM     32  O   UNL     1       1.967  11.859  17.663  0.00  0.00    +0.000 OA
ATOM     33  H   UNL     1       2.565  12.573  17.944  0.00  0.00    +0.000 HD
ENDBRANCH   8  32
BRANCH  11  34
ATOM     34  O   UNL     1       3.103   5.751  18.374  0.00  0.00    +0.000 OA
ATOM     35  H   UNL     1       3.639   6.354  17.831  0.00  0.00    +0.000 HD
ENDBRANCH  11  34
TORSDOF 6
ENDMDL
MODEL 8
REMARK VINA RESULT:      -5.8      7.117      9.340
REMARK  Name = 
REMARK  13 active torsions:
REMARK  status: ('A' for Active; 'I' for Inactive)
REMARK    1  A    between atoms: C_1  and  C_2
REMARK    2  A    between atoms: C_2  and  C_3
REMARK    3  A    between atoms: C_2  and  C_4
REMARK    4  A    between atoms: C_4  and  C_5
REMARK    5  A    between atoms: C_4  and  C_6
REMARK    6  A    between atoms: C_6  and  C_7
REMARK    7  A    between atoms: C_9  and  C_10
REMARK    8  A    between atoms: C_10  and  C_11
REMARK    9  A    between atoms: C_10  and  C_12
REMARK   10  A    between atoms: N_19  and  O_20
REMARK   11  A    between atoms: C_23  and  O_24
REMARK   12  A    between atoms: C_27  and  C_28
REMARK   13  A    between atoms: C_32  and  C_33
REMARK                            x       y       z     vdW  Elec       q    Type
REMARK                         _______ _______ _______ _____ _____    ______ ____
ROOT
ATOM      1  C   UNL     1       5.840  15.415  23.419  0.00  0.00    +0.000 C 
ATOM      2  C   UNL     1       5.375  14.284  22.453  0.00  0.00    +0.000 C 
ATOM      3  C   UNL     1       6.500  13.336  22.404  0.00  0.00    +0.000 C 
ATOM      4  C   UNL     1       7.666  14.272  22.294  0.00  0.00    +0.000 C 
ATOM      5  C   UNL     1       8.336  14.617  21.007  0.00  0.00    +0.000 C 
ATOM      6  C   UNL     1       7.789  13.925  19.789  0.00  0.00    +0.000 C 
ATOM      7  C   UNL     1       8.342  14.799  18.713  0.00  0.00    +0.000 C 
ATOM      8  N   UNL     1       7.672  15.558  17.906  0.00  0.00    +0.000 NA
ATOM      9  C   UNL     1       9.818  14.657  18.633  0.00  0.00    +0.000 C 
ATOM     10  C   UNL     1      10.044  14.005  17.489  0.00  0.00    +0.000 C 
ATOM     11  C   UNL     1      11.239  13.146  17.272  0.00  0.00    +0.000 C 
ATOM     12  C   UNL     1      12.333  13.493  18.270  0.00  0.00    +0.000 C 
ATOM     13  C   UNL     1      11.778  13.568  19.716  0.00  0.00    +0.000 C 
ATOM     14  C   UNL     1      10.690  14.688  19.923  0.00  0.00    +0.000 C 
ATOM     15  C   UNL     1      11.457  16.036  20.003  0.00  0.00    +0.000 C 
ATOM     16  C   UNL     1       9.842  14.470  21.291  0.00  0.00    +0.000 C 
ATOM     17  C   UNL     1      10.101  15.329  22.676  0.00  0.00    +0.000 C 
ATOM     18  C   UNL     1       8.804  15.566  23.777  0.00  0.00    +0.000 C 
ATOM     19  C   UNL     1       7.401  15.631  23.020  0.00  0.00    +0.000 C 
ATOM     20  C   UNL     1       7.462  17.045  22.392  0.00  0.00    +0.000 C 
ENDROOT
BRANCH   1  21
ATOM     21  C   UNL     1       4.644  16.516  23.329  0.00  0.00    +0.000 C 
ATOM     22  C   UNL     1       4.126  16.707  24.799  0.00  0.00    +0.000 C 
BRANCH  21  26
ATOM     23  C   UNL     1       3.015  16.632  20.993  0.00  0.00    +0.000 C 
ATOM     24  C   UNL     1       4.104  17.343  20.224  0.00  0.00    +0.000 C 
ATOM     25  C   UNL     1       2.420  17.348  22.168  0.00  0.00    +0.000 C 
ATOM     26  C   UNL     1       3.364  16.186  22.460  0.00  0.00    +0.000 C 
BRANCH  23  27
ATOM     27  C   UNL     1       2.023  15.820  20.070  0.00  0.00    +0.000 C 
ATOM     28  C   UNL     1       2.252  15.991  18.560  0.00  0.00    +0.000 C 
BRANCH  27  30
ATOM     29  C   UNL     1       2.631  13.340  19.491  0.00  0.00    +0.000 C 
ATOM     30  C   UNL     1       1.906  14.292  20.449  0.00  0.00    +0.000 C 
ATOM     31  C   UNL     1       0.448  13.813  20.582  0.00  0.00    +0.000 C 
ENDBRANCH  27  30
ENDBRANCH  23  27
ENDBRANCH  21  26
ENDBRANCH   1  21
BRANCH   8  32
ATOM     32  O   UNL     1       6.300  15.483  18.183  0.00  0.00    +0.000 OA
ATOM     33  H   UNL     1       6.279  15.479  19.156  0.00  0.00    +0.000 HD
ENDBRANCH   8  32
BRANCH  11  34
ATOM     34  O   UNL     1      11.706  13.277  15.943  0.00  0.00    +0.000 OA
ATOM     35  H   UNL     1      11.851  14.220  15.750  0.00  0.00    +0.000 HD
ENDBRANCH  11  34
TORSDOF 6
ENDMDL
MODEL 9
REMARK VINA RESULT:      -5.7      8.594     10.041
REMARK  Name = 
REMARK  13 active torsions:
REMARK  status: ('A' for Active; 'I' for Inactive)
REMARK    1  A    between atoms: C_1  and  C_2
REMARK    2  A    between atoms: C_2  and  C_3
REMARK    3  A    between atoms: C_2  and  C_4
REMARK    4  A    between atoms: C_4  and  C_5
REMARK    5  A    between atoms: C_4  and  C_6
REMARK    6  A    between atoms: C_6  and  C_7
REMARK    7  A    between atoms: C_9  and  C_10
REMARK    8  A    between atoms: C_10  and  C_11
REMARK    9  A    between atoms: C_10  and  C_12
REMARK   10  A    between atoms: N_19  and  O_20
REMARK   11  A    between atoms: C_23  and  O_24
REMARK   12  A    between atoms: C_27  and  C_28
REMARK   13  A    between atoms: C_32  and  C_33
REMARK                            x       y       z     vdW  Elec       q    Type
REMARK                         _______ _______ _______ _____ _____    ______ ____
ROOT
ATOM      1  C   UNL     1       7.753  16.560  24.617  0.00  0.00    +0.000 C 
ATOM      2  C   UNL     1       9.143  15.889  24.835  0.00  0.00    +0.000 C 
ATOM      3  C   UNL     1       9.978  16.366  23.720  0.00  0.00    +0.000 C 
ATOM      4  C   UNL     1       9.024  16.244  22.569  0.00  0.00    +0.000 C 
ATOM      5  C   UNL     1       9.005  15.090  21.624  0.00  0.00    +0.000 C 
ATOM      6  C   UNL     1      10.054  14.040  21.869  0.00  0.00    +0.000 C 
ATOM      7  C   UNL     1       9.479  12.902  21.091  0.00  0.00    +0.000 C 
ATOM      8  N   UNL     1       9.033  11.782  21.565  0.00  0.00    +0.000 NA
ATOM      9  C   UNL     1       9.524  13.190  19.635  0.00  0.00    +0.000 C 
ATOM     10  C   UNL     1      10.453  12.365  19.145  0.00  0.00    +0.000 C 
ATOM     11  C   UNL     1      11.244  12.674  17.923  0.00  0.00    +0.000 C 
ATOM     12  C   UNL     1      10.545  13.740  17.092  0.00  0.00    +0.000 C 
ATOM     13  C   UNL     1      10.108  14.943  17.967  0.00  0.00    +0.000 C 
ATOM     14  C   UNL     1       9.063  14.572  19.085  0.00  0.00    +0.000 C 
ATOM     15  C   UNL     1       7.693  14.418  18.370  0.00  0.00    +0.000 C 
ATOM     16  C   UNL     1       8.950  15.725  20.223  0.00  0.00    +0.000 C 
ATOM     17  C   UNL     1       7.717  16.820  20.298  0.00  0.00    +0.000 C 
ATOM     18  C   UNL     1       7.280  17.493  21.817  0.00  0.00    +0.000 C 
ATOM     19  C   UNL     1       7.540  16.464  23.008  0.00  0.00    +0.000 C 
ATOM     20  C   UNL     1       6.360  15.478  22.819  0.00  0.00    +0.000 C 
ENDROOT
BRANCH   1  21
ATOM     21  C   UNL     1       6.819  15.893  25.771  0.00  0.00    +0.000 C 
ATOM     22  C   UNL     1       7.437  16.352  27.140  0.00  0.00    +0.000 C 
BRANCH  21  26
ATOM     23  C   UNL     1       5.731  13.430  26.705  0.00  0.00    +0.000 C 
ATOM     24  C   UNL     1       4.624  14.153  27.436  0.00  0.00    +0.000 C 
ATOM     25  C   UNL     1       7.135  13.672  27.168  0.00  0.00    +0.000 C 
ATOM     26  C   UNL     1       6.710  14.317  25.853  0.00  0.00    +0.000 C 
BRANCH  23  27
ATOM     27  C   UNL     1       5.353  11.951  26.300  0.00  0.00    +0.000 C 
ATOM     28  C   UNL     1       6.372  11.243  25.393  0.00  0.00    +0.000 C 
BRANCH  27  30
ATOM     29  C   UNL     1       6.128  10.235  28.121  0.00  0.00    +0.000 C 
ATOM     30  C   UNL     1       4.963  11.034  27.525  0.00  0.00    +0.000 C 
ATOM     31  C   UNL     1       3.825  10.046  27.201  0.00  0.00    +0.000 C 
ENDBRANCH  27  30
ENDBRANCH  23  27
ENDBRANCH  21  26
ENDBRANCH   1  21
BRANCH   8  32
ATOM     32  O   UNL     1       9.132  11.763  22.963  0.00  0.00    +0.000 OA
ATOM     33  H   UNL     1       9.094  12.709  23.192  0.00  0.00    +0.000 HD
ENDBRANCH   8  32
BRANCH  11  34
ATOM     34  O   UNL     1      11.458  11.500  17.164  0.00  0.00    +0.000 OA
ATOM     35  H   UNL     1      10.870  11.512  16.388  0.00  0.00    +0.000 HD
ENDBRANCH  11  34
TORSDOF 6
ENDMDL
