MODEL 1
REMARK VINA RESULT:      -7.4      0.000      0.000
REMARK  Name = 
REMARK  7 active torsions:
REMARK  status: ('A' for Active; 'I' for Inactive)
REMARK    1  A    between atoms: C_1  and  C_2
REMARK    2  A    between atoms: C_2  and  C_3
REMARK    3  A    between atoms: C_3  and  C_4
REMARK    4  A    between atoms: C_6  and  O_7
REMARK    5  A    between atoms: C_10  and  C_11
REMARK    6  A    between atoms: C_14  and  O_15
REMARK    7  A    between atoms: O_15  and  C_16
REMARK                            x       y       z     vdW  Elec       q    Type
REMARK                         _______ _______ _______ _____ _____    ______ ____
ROOT
ATOM      1  C   UNL     1       6.732   5.364  16.727  0.00  0.00    +0.000 A 
ATOM      2  C   UNL     1       7.229   4.777  18.016  0.00  0.00    +0.000 A 
ATOM      3  C   UNL     1       7.876   5.617  18.834  0.00  0.00    +0.000 A 
ATOM      4  N   UNL     1       8.021   6.960  18.458  0.00  0.00    +0.000 N 
ATOM      5  N   UNL     1       8.638   7.968  19.116  0.00  0.00    +0.000 NA
ATOM      6  C   UNL     1       8.430   9.018  18.313  0.00  0.00    +0.000 A 
ATOM      7  N   UNL     1       7.723   8.729  17.170  0.00  0.00    +0.000 NA
ATOM      8  C   UNL     1       7.483   7.440  17.261  0.00  0.00    +0.000 A 
ATOM      9  N   UNL     1       6.834   6.613  16.384  0.00  0.00    +0.000 NA
ENDROOT
BRANCH   6  10
ATOM     10  C   UNL     1       8.947  10.350  18.609  0.00  0.00    +0.000 A 
ATOM     11  C   UNL     1       8.653  11.435  17.771  0.00  0.00    +0.000 A 
ATOM     12  C   UNL     1       9.094  12.723  18.094  0.00  0.00    +0.000 A 
ATOM     13  C   UNL     1       9.833  12.946  19.251  0.00  0.00    +0.000 A 
ATOM     14  C   UNL     1      10.165  11.868  20.073  0.00  0.00    +0.000 A 
ATOM     15  C   UNL     1       9.721  10.579  19.754  0.00  0.00    +0.000 A 
BRANCH  13  16
ATOM     16  O   UNL     1      10.220  14.243  19.455  0.00  0.00    +0.000 OA
ATOM     17  C   UNL     1      11.594  14.441  19.771  0.00  0.00    +0.000 C 
ENDBRANCH  13  16
ENDBRANCH   6  10
BRANCH   3  18
ATOM     18  O   UNL     1       8.397   5.201  20.049  0.00  0.00    +0.000 OA
ATOM     19  H   UNL     1       7.681   5.083  20.694  0.00  0.00    +0.000 HD
ENDBRANCH   3  18
BRANCH   1  20
ATOM     20  C   UNL     1       6.076   4.386  15.762  0.00  0.00    +0.000 C 
BRANCH  20  22
ATOM     21  C   UNL     1       5.845   3.726  13.328  0.00  0.00    +0.000 C 
ATOM     22  C   UNL     1       6.671   4.484  14.359  0.00  0.00    +0.000 C 
ENDBRANCH  20  22
ENDBRANCH   1  20
TORSDOF 5
ENDMDL
MODEL 2
REMARK VINA RESULT:      -7.4      0.411      1.128
REMARK  Name = 
REMARK  7 active torsions:
REMARK  status: ('A' for Active; 'I' for Inactive)
REMARK    1  A    between atoms: C_1  and  C_2
REMARK    2  A    between atoms: C_2  and  C_3
REMARK    3  A    between atoms: C_3  and  C_4
REMARK    4  A    between atoms: C_6  and  O_7
REMARK    5  A    between atoms: C_10  and  C_11
REMARK    6  A    between atoms: C_14  and  O_15
REMARK    7  A    between atoms: O_15  and  C_16
REMARK                            x       y       z     vdW  Elec       q    Type
REMARK                         _______ _______ _______ _____ _____    ______ ____
ROOT
ATOM      1  C   UNL     1       6.878   5.295  16.778  0.00  0.00    +0.000 A 
ATOM      2  C   UNL     1       7.336   4.744  18.097  0.00  0.00    +0.000 A 
ATOM      3  C   UNL     1       7.939   5.610  18.920  0.00  0.00    +0.000 A 
ATOM      4  N   UNL     1       8.078   6.948  18.522  0.00  0.00    +0.000 N 
ATOM      5  N   UNL     1       8.654   7.978  19.180  0.00  0.00    +0.000 NA
ATOM      6  C   UNL     1       8.460   9.009  18.349  0.00  0.00    +0.000 A 
ATOM      7  N   UNL     1       7.801   8.685  17.187  0.00  0.00    +0.000 NA
ATOM      8  C   UNL     1       7.576   7.394  17.296  0.00  0.00    +0.000 A 
ATOM      9  N   UNL     1       6.973   6.539  16.413  0.00  0.00    +0.000 NA
ENDROOT
BRANCH   6  10
ATOM     10  C   UNL     1       8.945  10.355  18.635  0.00  0.00    +0.000 A 
ATOM     11  C   UNL     1       9.692  10.615  19.793  0.00  0.00    +0.000 A 
ATOM     12  C   UNL     1      10.213  11.892  20.031  0.00  0.00    +0.000 A 
ATOM     13  C   UNL     1       9.994  12.923  19.123  0.00  0.00    +0.000 A 
ATOM     14  C   UNL     1       9.220  12.686  17.986  0.00  0.00    +0.000 A 
ATOM     15  C   UNL     1       8.702  11.407  17.744  0.00  0.00    +0.000 A 
BRANCH  13  16
ATOM     16  O   UNL     1      10.540  14.130  19.468  0.00  0.00    +0.000 OA
ATOM     17  C   UNL     1      10.748  15.048  18.402  0.00  0.00    +0.000 C 
ENDBRANCH  13  16
ENDBRANCH   6  10
BRANCH   3  18
ATOM     18  O   UNL     1       8.421   5.228  20.163  0.00  0.00    +0.000 OA
ATOM     19  H   UNL     1       9.390   5.191  20.146  0.00  0.00    +0.000 HD
ENDBRANCH   3  18
BRANCH   1  20
ATOM     20  C   UNL     1       6.273   4.288  15.812  0.00  0.00    +0.000 C 
BRANCH  20  22
ATOM     21  C   UNL     1       5.895   3.705  13.376  0.00  0.00    +0.000 C 
ATOM     22  C   UNL     1       6.345   4.771  14.364  0.00  0.00    +0.000 C 
ENDBRANCH  20  22
ENDBRANCH   1  20
TORSDOF 5
ENDMDL
MODEL 3
REMARK VINA RESULT:      -7.2      0.888      1.189
REMARK  Name = 
REMARK  7 active torsions:
REMARK  status: ('A' for Active; 'I' for Inactive)
REMARK    1  A    between atoms: C_1  and  C_2
REMARK    2  A    between atoms: C_2  and  C_3
REMARK    3  A    between atoms: C_3  and  C_4
REMARK    4  A    between atoms: C_6  and  O_7
REMARK    5  A    between atoms: C_10  and  C_11
REMARK    6  A    between atoms: C_14  and  O_15
REMARK    7  A    between atoms: O_15  and  C_16
REMARK                            x       y       z     vdW  Elec       q    Type
REMARK                         _______ _______ _______ _____ _____    ______ ____
ROOT
ATOM      1  C   UNL     1       6.869   5.295  16.979  0.00  0.00    +0.000 A 
ATOM      2  C   UNL     1       7.286   4.831  18.344  0.00  0.00    +0.000 A 
ATOM      3  C   UNL     1       7.891   5.743  19.116  0.00  0.00    +0.000 A 
ATOM      4  N   UNL     1       8.067   7.045  18.626  0.00  0.00    +0.000 N 
ATOM      5  N   UNL     1       8.651   8.108  19.222  0.00  0.00    +0.000 NA
ATOM      6  C   UNL     1       8.497   9.080  18.314  0.00  0.00    +0.000 A 
ATOM      7  N   UNL     1       7.856   8.686  17.164  0.00  0.00    +0.000 NA
ATOM      8  C   UNL     1       7.601   7.412  17.361  0.00  0.00    +0.000 A 
ATOM      9  N   UNL     1       6.999   6.507  16.527  0.00  0.00    +0.000 NA
ENDROOT
BRANCH   6  10
ATOM     10  C   UNL     1       9.005  10.433  18.515  0.00  0.00    +0.000 A 
ATOM     11  C   UNL     1       8.571  11.489  17.701  0.00  0.00    +0.000 A 
ATOM     12  C   UNL     1       9.008  12.796  17.939  0.00  0.00    +0.000 A 
ATOM     13  C   UNL     1       9.883  13.068  18.986  0.00  0.00    +0.000 A 
ATOM     14  C   UNL     1      10.352  12.020  19.780  0.00  0.00    +0.000 A 
ATOM     15  C   UNL     1       9.911  10.711  19.546  0.00  0.00    +0.000 A 
BRANCH  13  16
ATOM     16  O   UNL     1      10.251  14.380  19.112  0.00  0.00    +0.000 OA
ATOM     17  C   UNL     1      10.853  14.971  17.967  0.00  0.00    +0.000 C 
ENDBRANCH  13  16
ENDBRANCH   6  10
BRANCH   3  18
ATOM     18  O   UNL     1       8.337   5.441  20.393  0.00  0.00    +0.000 OA
ATOM     19  H   UNL     1       9.288   5.620  20.463  0.00  0.00    +0.000 HD
ENDBRANCH   3  18
BRANCH   1  20
ATOM     20  C   UNL     1       6.264   4.233  16.073  0.00  0.00    +0.000 C 
BRANCH  20  22
ATOM     21  C   UNL     1       4.067   3.573  17.147  0.00  0.00    +0.000 C 
ATOM     22  C   UNL     1       4.741   4.333  16.013  0.00  0.00    +0.000 C 
ENDBRANCH  20  22
ENDBRANCH   1  20
TORSDOF 5
ENDMDL
MODEL 4
REMARK VINA RESULT:      -7.2      1.098      1.672
REMARK  Name = 
REMARK  7 active torsions:
REMARK  status: ('A' for Active; 'I' for Inactive)
REMARK    1  A    between atoms: C_1  and  C_2
REMARK    2  A    between atoms: C_2  and  C_3
REMARK    3  A    between atoms: C_3  and  C_4
REMARK    4  A    between atoms: C_6  and  O_7
REMARK    5  A    between atoms: C_10  and  C_11
REMARK    6  A    between atoms: C_14  and  O_15
REMARK    7  A    between atoms: O_15  and  C_16
REMARK                            x       y       z     vdW  Elec       q    Type
REMARK                         _______ _______ _______ _____ _____    ______ ____
ROOT
ATOM      1  C   UNL     1       6.346   5.846  16.926  0.00  0.00    +0.000 A 
ATOM      2  C   UNL     1       6.916   5.101  18.097  0.00  0.00    +0.000 A 
ATOM      3  C   UNL     1       7.760   5.787  18.878  0.00  0.00    +0.000 A 
ATOM      4  N   UNL     1       8.029   7.130  18.578  0.00  0.00    +0.000 N 
ATOM      5  N   UNL     1       8.845   7.999  19.215  0.00  0.00    +0.000 NA
ATOM      6  C   UNL     1       8.677   9.130  18.519  0.00  0.00    +0.000 A 
ATOM      7  N   UNL     1       7.806   9.023  17.462  0.00  0.00    +0.000 NA
ATOM      8  C   UNL     1       7.415   7.768  17.496  0.00  0.00    +0.000 A 
ATOM      9  N   UNL     1       6.564   7.099  16.658  0.00  0.00    +0.000 NA
ENDROOT
BRANCH   6  10
ATOM     10  C   UNL     1       9.392  10.363  18.834  0.00  0.00    +0.000 A 
ATOM     11  C   UNL     1       9.552  10.778  20.164  0.00  0.00    +0.000 A 
ATOM     12  C   UNL     1      10.296  11.924  20.466  0.00  0.00    +0.000 A 
ATOM     13  C   UNL     1      10.886  12.670  19.451  0.00  0.00    +0.000 A 
ATOM     14  C   UNL     1      10.701  12.289  18.121  0.00  0.00    +0.000 A 
ATOM     15  C   UNL     1       9.961  11.139  17.817  0.00  0.00    +0.000 A 
BRANCH  13  16
ATOM     16  O   UNL     1      11.576  13.777  19.866  0.00  0.00    +0.000 OA
ATOM     17  C   UNL     1      11.202  15.008  19.260  0.00  0.00    +0.000 C 
ENDBRANCH  13  16
ENDBRANCH   6  10
BRANCH   3  18
ATOM     18  O   UNL     1       8.367   5.213  19.985  0.00  0.00    +0.000 OA
ATOM     19  H   UNL     1       8.362   4.247  19.901  0.00  0.00    +0.000 HD
ENDBRANCH   3  18
BRANCH   1  20
ATOM     20  C   UNL     1       5.459   5.037  15.992  0.00  0.00    +0.000 C 
BRANCH  20  22
ATOM     21  C   UNL     1       3.515   3.886  17.139  0.00  0.00    +0.000 C 
ATOM     22  C   UNL     1       4.952   3.756  16.653  0.00  0.00    +0.000 C 
ENDBRANCH  20  22
ENDBRANCH   1  20
TORSDOF 5
ENDMDL
MODEL 5
REMARK VINA RESULT:      -7.1      6.670      9.366
REMARK  Name = 
REMARK  7 active torsions:
REMARK  status: ('A' for Active; 'I' for Inactive)
REMARK    1  A    between atoms: C_1  and  C_2
REMARK    2  A    between atoms: C_2  and  C_3
REMARK    3  A    between atoms: C_3  and  C_4
REMARK    4  A    between atoms: C_6  and  O_7
REMARK    5  A    between atoms: C_10  and  C_11
REMARK    6  A    between atoms: C_14  and  O_15
REMARK    7  A    between atoms: O_15  and  C_16
REMARK                            x       y       z     vdW  Elec       q    Type
REMARK                         _______ _______ _______ _____ _____    ______ ____
ROOT
ATOM      1  C   UNL     1       0.377   9.559  21.382  0.00  0.00    +0.000 A 
ATOM      2  C   UNL     1       0.248  10.526  20.241  0.00  0.00    +0.000 A 
ATOM      3  C   UNL     1       0.873  10.184  19.107  0.00  0.00    +0.000 A 
ATOM      4  N   UNL     1       1.566   8.967  19.048  0.00  0.00    +0.000 N 
ATOM      5  N   UNL     1       2.266   8.433  18.022  0.00  0.00    +0.000 NA
ATOM      6  C   UNL     1       2.669   7.256  18.517  0.00  0.00    +0.000 A 
ATOM      7  N   UNL     1       2.271   7.018  19.811  0.00  0.00    +0.000 NA
ATOM      8  C   UNL     1       1.594   8.096  20.141  0.00  0.00    +0.000 A 
ATOM      9  N   UNL     1       0.990   8.414  21.328  0.00  0.00    +0.000 NA
ENDROOT
BRANCH   6  10
ATOM     10  C   UNL     1       3.495   6.323  17.758  0.00  0.00    +0.000 A 
ATOM     11  C   UNL     1       4.445   6.792  16.840  0.00  0.00    +0.000 A 
ATOM     12  C   UNL     1       5.282   5.897  16.164  0.00  0.00    +0.000 A 
ATOM     13  C   UNL     1       5.180   4.528  16.390  0.00  0.00    +0.000 A 
ATOM     14  C   UNL     1       4.212   4.047  17.273  0.00  0.00    +0.000 A 
ATOM     15  C   UNL     1       3.377   4.942  17.954  0.00  0.00    +0.000 A 
BRANCH  13  16
ATOM     16  O   UNL     1       6.040   3.752  15.662  0.00  0.00    +0.000 OA
ATOM     17  C   UNL     1       6.698   4.398  14.578  0.00  0.00    +0.000 C 
ENDBRANCH  13  16
ENDBRANCH   6  10
BRANCH   3  18
ATOM     18  O   UNL     1       0.844  10.995  17.982  0.00  0.00    +0.000 OA
ATOM     19  H   UNL     1       0.584  10.474  17.206  0.00  0.00    +0.000 HD
ENDBRANCH   3  18
BRANCH   1  20
ATOM     20  C   UNL     1      -0.258   9.992  22.694  0.00  0.00    +0.000 C 
BRANCH  20  22
ATOM     21  C   UNL     1      -2.124  11.613  23.250  0.00  0.00    +0.000 C 
ATOM     22  C   UNL     1      -0.737  11.442  22.645  0.00  0.00    +0.000 C 
ENDBRANCH  20  22
ENDBRANCH   1  20
TORSDOF 5
ENDMDL
MODEL 6
REMARK VINA RESULT:      -7.1      6.045      6.672
REMARK  Name = 
REMARK  7 active torsions:
REMARK  status: ('A' for Active; 'I' for Inactive)
REMARK    1  A    between atoms: C_1  and  C_2
REMARK    2  A    between atoms: C_2  and  C_3
REMARK    3  A    between atoms: C_3  and  C_4
REMARK    4  A    between atoms: C_6  and  O_7
REMARK    5  A    between atoms: C_10  and  C_11
REMARK    6  A    between atoms: C_14  and  O_15
REMARK    7  A    between atoms: O_15  and  C_16
REMARK                            x       y       z     vdW  Elec       q    Type
REMARK                         _______ _______ _______ _____ _____    ______ ____
ROOT
ATOM      1  C   UNL     1       5.804   5.007  15.501  0.00  0.00    +0.000 A 
ATOM      2  C   UNL     1       5.550   3.791  16.344  0.00  0.00    +0.000 A 
ATOM      3  C   UNL     1       4.734   3.960  17.392  0.00  0.00    +0.000 A 
ATOM      4  N   UNL     1       4.162   5.221  17.616  0.00  0.00    +0.000 N 
ATOM      5  N   UNL     1       3.329   5.615  18.604  0.00  0.00    +0.000 NA
ATOM      6  C   UNL     1       3.081   6.893  18.293  0.00  0.00    +0.000 A 
ATOM      7  N   UNL     1       3.725   7.338  17.163  0.00  0.00    +0.000 NA
ATOM      8  C   UNL     1       4.408   6.292  16.753  0.00  0.00    +0.000 A 
ATOM      9  N   UNL     1       5.254   6.171  15.682  0.00  0.00    +0.000 NA
ENDROOT
BRANCH   6  10
ATOM     10  C   UNL     1       2.231   7.753  19.109  0.00  0.00    +0.000 A 
ATOM     11  C   UNL     1       1.699   8.940  18.586  0.00  0.00    +0.000 A 
ATOM     12  C   UNL     1       0.830   9.727  19.348  0.00  0.00    +0.000 A 
ATOM     13  C   UNL     1       0.482   9.344  20.640  0.00  0.00    +0.000 A 
ATOM     14  C   UNL     1       1.034   8.185  21.186  0.00  0.00    +0.000 A 
ATOM     15  C   UNL     1       1.901   7.393  20.422  0.00  0.00    +0.000 A 
BRANCH  13  16
ATOM     16  O   UNL     1      -0.364  10.200  21.293  0.00  0.00    +0.000 OA
ATOM     17  C   UNL     1      -0.384  10.093  22.712  0.00  0.00    +0.000 C 
ENDBRANCH  13  16
ENDBRANCH   6  10
BRANCH   3  18
ATOM     18  O   UNL     1       4.427   2.921  18.257  0.00  0.00    +0.000 OA
ATOM     19  H   UNL     1       5.107   2.231  18.201  0.00  0.00    +0.000 HD
ENDBRANCH   3  18
BRANCH   1  20
ATOM     20  C   UNL     1       6.800   4.832  14.366  0.00  0.00    +0.000 C 
BRANCH  20  22
ATOM     21  C   UNL     1       7.102   3.942  12.013  0.00  0.00    +0.000 C 
ATOM     22  C   UNL     1       6.283   3.873  13.295  0.00  0.00    +0.000 C 
ENDBRANCH  20  22
ENDBRANCH   1  20
TORSDOF 5
ENDMDL
MODEL 7
REMARK VINA RESULT:      -7.0      1.072      1.351
REMARK  Name = 
REMARK  7 active torsions:
REMARK  status: ('A' for Active; 'I' for Inactive)
REMARK    1  A    between atoms: C_1  and  C_2
REMARK    2  A    between atoms: C_2  and  C_3
REMARK    3  A    between atoms: C_3  and  C_4
REMARK    4  A    between atoms: C_6  and  O_7
REMARK    5  A    between atoms: C_10  and  C_11
REMARK    6  A    between atoms: C_14  and  O_15
REMARK    7  A    between atoms: O_15  and  C_16
REMARK                            x       y       z     vdW  Elec       q    Type
REMARK                         _______ _______ _______ _____ _____    ______ ____
ROOT
ATOM      1  C   UNL     1       6.279   5.904  16.835  0.00  0.00    +0.000 A 
ATOM      2  C   UNL     1       6.867   5.127  17.977  0.00  0.00    +0.000 A 
ATOM      3  C   UNL     1       7.719   5.795  18.766  0.00  0.00    +0.000 A 
ATOM      4  N   UNL     1       7.979   7.147  18.501  0.00  0.00    +0.000 N 
ATOM      5  N   UNL     1       8.800   8.000  19.153  0.00  0.00    +0.000 NA
ATOM      6  C   UNL     1       8.620   9.150  18.492  0.00  0.00    +0.000 A 
ATOM      7  N   UNL     1       7.735   9.069  17.443  0.00  0.00    +0.000 NA
ATOM      8  C   UNL     1       7.349   7.813  17.447  0.00  0.00    +0.000 A 
ATOM      9  N   UNL     1       6.490   7.165  16.600  0.00  0.00    +0.000 NA
ENDROOT
BRANCH   6  10
ATOM     10  C   UNL     1       9.335  10.375  18.833  0.00  0.00    +0.000 A 
ATOM     11  C   UNL     1       9.902  11.176  17.832  0.00  0.00    +0.000 A 
ATOM     12  C   UNL     1      10.528  12.384  18.157  0.00  0.00    +0.000 A 
ATOM     13  C   UNL     1      10.599  12.808  19.480  0.00  0.00    +0.000 A 
ATOM     14  C   UNL     1      10.072  12.001  20.490  0.00  0.00    +0.000 A 
ATOM     15  C   UNL     1       9.440  10.794  20.166  0.00  0.00    +0.000 A 
BRANCH  13  16
ATOM     16  O   UNL     1      11.246  13.997  19.677  0.00  0.00    +0.000 OA
ATOM     17  C   UNL     1      10.794  14.779  20.777  0.00  0.00    +0.000 C 
ENDBRANCH  13  16
ENDBRANCH   6  10
BRANCH   3  18
ATOM     18  O   UNL     1       8.341   5.191  19.847  0.00  0.00    +0.000 OA
ATOM     19  H   UNL     1       7.739   5.169  20.607  0.00  0.00    +0.000 HD
ENDBRANCH   3  18
BRANCH   1  20
ATOM     20  C   UNL     1       5.383   5.119  15.889  0.00  0.00    +0.000 C 
BRANCH  20  22
ATOM     21  C   UNL     1       3.486   3.876  17.018  0.00  0.00    +0.000 C 
ATOM     22  C   UNL     1       4.918   3.801  16.506  0.00  0.00    +0.000 C 
ENDBRANCH  20  22
ENDBRANCH   1  20
TORSDOF 5
ENDMDL
MODEL 8
REMARK VINA RESULT:      -6.9      7.226      9.689
REMARK  Name = 
REMARK  7 active torsions:
REMARK  status: ('A' for Active; 'I' for Inactive)
REMARK    1  A    between atoms: C_1  and  C_2
REMARK    2  A    between atoms: C_2  and  C_3
REMARK    3  A    between atoms: C_3  and  C_4
REMARK    4  A    between atoms: C_6  and  O_7
REMARK    5  A    between atoms: C_10  and  C_11
REMARK    6  A    between atoms: C_14  and  O_15
REMARK    7  A    between atoms: O_15  and  C_16
REMARK                            x       y       z     vdW  Elec       q    Type
REMARK                         _______ _______ _______ _____ _____    ______ ____
ROOT
ATOM      1  C   UNL     1      -0.115   9.976  21.724  0.00  0.00    +0.000 A 
ATOM      2  C   UNL     1      -0.333  10.882  20.547  0.00  0.00    +0.000 A 
ATOM      3  C   UNL     1       0.285  10.532  19.412  0.00  0.00    +0.000 A 
ATOM      4  N   UNL     1       1.053   9.359  19.386  0.00  0.00    +0.000 N 
ATOM      5  N   UNL     1       1.762   8.827  18.365  0.00  0.00    +0.000 NA
ATOM      6  C   UNL     1       2.251   7.701  18.898  0.00  0.00    +0.000 A 
ATOM      7  N   UNL     1       1.901   7.495  20.211  0.00  0.00    +0.000 NA
ATOM      8  C   UNL     1       1.164   8.541  20.513  0.00  0.00    +0.000 A 
ATOM      9  N   UNL     1       0.569   8.871  21.701  0.00  0.00    +0.000 NA
ENDROOT
BRANCH   6  10
ATOM     10  C   UNL     1       3.117   6.790  18.156  0.00  0.00    +0.000 A 
ATOM     11  C   UNL     1       2.932   5.402  18.236  0.00  0.00    +0.000 A 
ATOM     12  C   UNL     1       3.720   4.535  17.472  0.00  0.00    +0.000 A 
ATOM     13  C   UNL     1       4.701   5.037  16.623  0.00  0.00    +0.000 A 
ATOM     14  C   UNL     1       4.921   6.414  16.564  0.00  0.00    +0.000 A 
ATOM     15  C   UNL     1       4.129   7.284  17.325  0.00  0.00    +0.000 A 
BRANCH  13  16
ATOM     16  O   UNL     1       5.417   4.094  15.938  0.00  0.00    +0.000 OA
ATOM     17  C   UNL     1       6.832   4.244  15.964  0.00  0.00    +0.000 C 
ENDBRANCH  13  16
ENDBRANCH   6  10
BRANCH   3  18
ATOM     18  O   UNL     1       0.177  11.289  18.256  0.00  0.00    +0.000 OA
ATOM     19  H   UNL     1       0.935  11.890  18.181  0.00  0.00    +0.000 HD
ENDBRANCH   3  18
BRANCH   1  20
ATOM     20  C   UNL     1      -0.746  10.425  23.034  0.00  0.00    +0.000 C 
BRANCH  20  22
ATOM     21  C   UNL     1      -2.734  11.961  23.352  0.00  0.00    +0.000 C 
ATOM     22  C   UNL     1      -1.269  11.858  22.954  0.00  0.00    +0.000 C 
ENDBRANCH  20  22
ENDBRANCH   1  20
TORSDOF 5
ENDMDL
MODEL 9
REMARK VINA RESULT:      -6.9      6.302      7.000
REMARK  Name = 
REMARK  7 active torsions:
REMARK  status: ('A' for Active; 'I' for Inactive)
REMARK    1  A    between atoms: C_1  and  C_2
REMARK    2  A    between atoms: C_2  and  C_3
REMARK    3  A    between atoms: C_3  and  C_4
REMARK    4  A    between atoms: C_6  and  O_7
REMARK    5  A    between atoms: C_10  and  C_11
REMARK    6  A    between atoms: C_14  and  O_15
REMARK    7  A    between atoms: O_15  and  C_16
REMARK                            x       y       z     vdW  Elec       q    Type
REMARK                         _______ _______ _______ _____ _____    ______ ____
ROOT
ATOM      1  C   UNL     1       4.964   4.288  16.659  0.00  0.00    +0.000 A 
ATOM      2  C   UNL     1       4.225   3.213  17.403  0.00  0.00    +0.000 A 
ATOM      3  C   UNL     1       3.319   3.632  18.295  0.00  0.00    +0.000 A 
ATOM      4  N   UNL     1       3.103   5.008  18.456  0.00  0.00    +0.000 N 
ATOM      5  N   UNL     1       2.255   5.646  19.294  0.00  0.00    +0.000 NA
ATOM      6  C   UNL     1       2.446   6.935  18.986  0.00  0.00    +0.000 A 
ATOM      7  N   UNL     1       3.382   7.152  18.002  0.00  0.00    +0.000 NA
ATOM      8  C   UNL     1       3.797   5.945  17.685  0.00  0.00    +0.000 A 
ATOM      9  N   UNL     1       4.749   5.564  16.778  0.00  0.00    +0.000 NA
ENDROOT
BRANCH   6  10
ATOM     10  C   UNL     1       1.746   8.019  19.666  0.00  0.00    +0.000 A 
ATOM     11  C   UNL     1       1.412   7.915  21.024  0.00  0.00    +0.000 A 
ATOM     12  C   UNL     1       0.802   8.984  21.690  0.00  0.00    +0.000 A 
ATOM     13  C   UNL     1       0.516  10.166  21.013  0.00  0.00    +0.000 A 
ATOM     14  C   UNL     1       0.809  10.267  19.653  0.00  0.00    +0.000 A 
ATOM     15  C   UNL     1       1.424   9.200  18.985  0.00  0.00    +0.000 A 
BRANCH  13  16
ATOM     16  O   UNL     1      -0.093  11.134  21.764  0.00  0.00    +0.000 OA
ATOM     17  C   UNL     1      -0.806  10.679  22.909  0.00  0.00    +0.000 C 
ENDBRANCH  13  16
ENDBRANCH   6  10
BRANCH   3  18
ATOM     18  O   UNL     1       2.577   2.744  19.058  0.00  0.00    +0.000 OA
ATOM     19  H   UNL     1       2.586   3.017  19.989  0.00  0.00    +0.000 HD
ENDBRANCH   3  18
BRANCH   1  20
ATOM     20  C   UNL     1       6.055   3.810  15.712  0.00  0.00    +0.000 C 
BRANCH  20  22
ATOM     21  C   UNL     1       5.851   3.700  13.190  0.00  0.00    +0.000 C 
ATOM     22  C   UNL     1       6.060   4.596  14.403  0.00  0.00    +0.000 C 
ENDBRANCH  20  22
ENDBRANCH   1  20
TORSDOF 5
ENDMDL
