MODEL 1
REMARK VINA RESULT:      -9.5      0.000      0.000
REMARK  Name = 
REMARK  8 active torsions:
REMARK  status: ('A' for Active; 'I' for Inactive)
REMARK    1  A    between atoms: C_1  and  C_2
REMARK    2  A    between atoms: C_3  and  C_4
REMARK    3  A    between atoms: C_4  and  C_5
REMARK    4  A    between atoms: N_7  and  C_8
REMARK    5  A    between atoms: C_8  and  C_9
REMARK    6  A    between atoms: N_26  and  C_27
REMARK    7  A    between atoms: C_27  and  C_28
REMARK    8  A    between atoms: C_28  and  O_30
REMARK                            x       y       z     vdW  Elec       q    Type
REMARK                         _______ _______ _______ _____ _____    ______ ____
ROOT
ATOM      1  C   UNL     1       1.543   4.490  17.813  0.00  0.00    +0.000 C 
ATOM      2  C   UNL     1       2.925   5.066  17.863  0.00  0.00    +0.000 A 
ATOM      3  C   UNL     1       3.402   6.364  17.674  0.00  0.00    +0.000 A 
ATOM      4  C   UNL     1       4.837   6.281  17.709  0.00  0.00    +0.000 A 
ATOM      5  C   UNL     1       5.859   7.229  17.488  0.00  0.00    +0.000 A 
ATOM      6  C   UNL     1       7.188   6.828  17.560  0.00  0.00    +0.000 A 
ATOM      7  F   UNL     1       8.155   7.725  17.324  0.00  0.00    +0.000 F 
ATOM      8  C   UNL     1       7.533   5.519  17.854  0.00  0.00    +0.000 A 
ATOM      9  C   UNL     1       6.541   4.561  18.082  0.00  0.00    +0.000 A 
ATOM     10  C   UNL     1       5.193   4.961  17.992  0.00  0.00    +0.000 A 
ATOM     11  N   UNL     1       4.017   4.249  18.121  0.00  0.00    +0.000 N 
ENDROOT
BRANCH   3  12
ATOM     12  C   UNL     1       2.703   7.679  17.403  0.00  0.00    +0.000 C 
BRANCH  12  13
ATOM     13  C   UNL     1       2.069   8.333  18.604  0.00  0.00    +0.000 C 
ATOM     14  N   UNL     1       1.569   9.517  18.452  0.00  0.00    +0.000 NA
ATOM     15  N   UNL     1       0.800  10.066  19.447  0.00  0.00    +0.000 N 
ATOM     16  C   UNL     1       0.490   9.420  20.633  0.00  0.00    +0.000 C 
ATOM     17  O   UNL     1      -0.417   9.769  21.391  0.00  0.00    +0.000 OA
ATOM     18  C   UNL     1       1.425   8.311  21.030  0.00  0.00    +0.000 C 
ATOM     19  C   UNL     1       1.988   7.529  19.872  0.00  0.00    +0.000 C 
BRANCH  15  20
ATOM     20  C   UNL     1       0.147  11.333  19.115  0.00  0.00    +0.000 C 
BRANCH  20  21
ATOM     21  C   UNL     1      -1.227  11.098  18.530  0.00  0.00    +0.000 A 
ATOM     22  C   UNL     1      -2.327  11.846  18.974  0.00  0.00    +0.000 A 
ATOM     23  C   UNL     1      -3.609  11.570  18.498  0.00  0.00    +0.000 A 
ATOM     24  C   UNL     1      -3.804  10.544  17.575  0.00  0.00    +0.000 A 
ATOM     25  C   UNL     1      -2.717   9.803  17.115  0.00  0.00    +0.000 A 
ATOM     26  C   UNL     1      -1.432  10.078  17.590  0.00  0.00    +0.000 A 
ENDBRANCH  20  21
ENDBRANCH  15  20
ENDBRANCH  12  13
ENDBRANCH   3  12
BRANCH  11  27
ATOM     27  C   UNL     1       3.946   2.814  18.407  0.00  0.00    +0.000 C 
BRANCH  27  28
ATOM     28  C   UNL     1       4.107   2.433  19.859  0.00  0.00    +0.000 C 
ATOM     29  O   UNL     1       3.249   2.672  20.702  0.00  0.00    +0.000 OA
BRANCH  28  30
ATOM     30  O   UNL     1       5.224   1.740  20.178  0.00  0.00    +0.000 OA
ATOM     31  H   UNL     1       5.471   1.030  19.551  0.00  0.00    +0.000 HD
ENDBRANCH  28  30
ENDBRANCH  27  28
ENDBRANCH  11  27
TORSDOF 7
ENDMDL
MODEL 2
REMARK VINA RESULT:      -9.3      0.152      1.065
REMARK  Name = 
REMARK  8 active torsions:
REMARK  status: ('A' for Active; 'I' for Inactive)
REMARK    1  A    between atoms: C_1  and  C_2
REMARK    2  A    between atoms: C_3  and  C_4
REMARK    3  A    between atoms: C_4  and  C_5
REMARK    4  A    between atoms: N_7  and  C_8
REMARK    5  A    between atoms: C_8  and  C_9
REMARK    6  A    between atoms: N_26  and  C_27
REMARK    7  A    between atoms: C_27  and  C_28
REMARK    8  A    between atoms: C_28  and  O_30
REMARK                            x       y       z     vdW  Elec       q    Type
REMARK                         _______ _______ _______ _____ _____    ______ ____
ROOT
ATOM      1  C   UNL     1       1.480   4.428  17.987  0.00  0.00    +0.000 C 
ATOM      2  C   UNL     1       2.862   5.008  17.989  0.00  0.00    +0.000 A 
ATOM      3  C   UNL     1       3.332   6.302  17.758  0.00  0.00    +0.000 A 
ATOM      4  C   UNL     1       4.767   6.221  17.758  0.00  0.00    +0.000 A 
ATOM      5  C   UNL     1       5.781   7.166  17.490  0.00  0.00    +0.000 A 
ATOM      6  C   UNL     1       7.113   6.768  17.537  0.00  0.00    +0.000 A 
ATOM      7  F   UNL     1       8.071   7.661  17.256  0.00  0.00    +0.000 F 
ATOM      8  C   UNL     1       7.467   5.467  17.851  0.00  0.00    +0.000 A 
ATOM      9  C   UNL     1       6.484   4.513  18.126  0.00  0.00    +0.000 A 
ATOM     10  C   UNL     1       5.133   4.909  18.062  0.00  0.00    +0.000 A 
ATOM     11  N   UNL     1       3.962   4.198  18.237  0.00  0.00    +0.000 N 
ENDROOT
BRANCH   3  12
ATOM     12  C   UNL     1       2.624   7.609  17.475  0.00  0.00    +0.000 C 
BRANCH  12  13
ATOM     13  C   UNL     1       2.014   8.286  18.677  0.00  0.00    +0.000 C 
ATOM     14  N   UNL     1       1.492   9.459  18.507  0.00  0.00    +0.000 NA
ATOM     15  N   UNL     1       0.743  10.023  19.508  0.00  0.00    +0.000 N 
ATOM     16  C   UNL     1       0.476   9.405  20.720  0.00  0.00    +0.000 C 
ATOM     17  O   UNL     1      -0.414   9.762  21.494  0.00  0.00    +0.000 OA
ATOM     18  C   UNL     1       1.439   8.321  21.119  0.00  0.00    +0.000 C 
ATOM     19  C   UNL     1       1.981   7.517  19.967  0.00  0.00    +0.000 C 
BRANCH  15  20
ATOM     20  C   UNL     1       0.062  11.271  19.162  0.00  0.00    +0.000 C 
BRANCH  20  21
ATOM     21  C   UNL     1      -1.300  10.997  18.564  0.00  0.00    +0.000 A 
ATOM     22  C   UNL     1      -1.449  10.049  17.541  0.00  0.00    +0.000 A 
ATOM     23  C   UNL     1      -2.688   9.859  16.928  0.00  0.00    +0.000 A 
ATOM     24  C   UNL     1      -3.788  10.614  17.331  0.00  0.00    +0.000 A 
ATOM     25  C   UNL     1      -3.655  11.549  18.355  0.00  0.00    +0.000 A 
ATOM     26  C   UNL     1      -2.416  11.742  18.970  0.00  0.00    +0.000 A 
ENDBRANCH  20  21
ENDBRANCH  15  20
ENDBRANCH  12  13
ENDBRANCH   3  12
BRANCH  11  27
ATOM     27  C   UNL     1       3.900   2.770  18.557  0.00  0.00    +0.000 C 
BRANCH  27  28
ATOM     28  C   UNL     1       4.089   2.423  20.014  0.00  0.00    +0.000 C 
ATOM     29  O   UNL     1       5.150   1.996  20.458  0.00  0.00    +0.000 OA
BRANCH  28  30
ATOM     30  O   UNL     1       3.043   2.678  20.833  0.00  0.00    +0.000 OA
ATOM     31  H   UNL     1       3.045   2.192  21.682  0.00  0.00    +0.000 HD
ENDBRANCH  28  30
ENDBRANCH  27  28
ENDBRANCH  11  27
TORSDOF 7
ENDMDL
MODEL 3
REMARK VINA RESULT:      -8.9      1.604      2.792
REMARK  Name = 
REMARK  8 active torsions:
REMARK  status: ('A' for Active; 'I' for Inactive)
REMARK    1  A    between atoms: C_1  and  C_2
REMARK    2  A    between atoms: C_3  and  C_4
REMARK    3  A    between atoms: C_4  and  C_5
REMARK    4  A    between atoms: N_7  and  C_8
REMARK    5  A    between atoms: C_8  and  C_9
REMARK    6  A    between atoms: N_26  and  C_27
REMARK    7  A    between atoms: C_27  and  C_28
REMARK    8  A    between atoms: C_28  and  O_30
REMARK                            x       y       z     vdW  Elec       q    Type
REMARK                         _______ _______ _______ _____ _____    ______ ____
ROOT
ATOM      1  C   UNL     1       1.521   4.390  17.884  0.00  0.00    +0.000 C 
ATOM      2  C   UNL     1       2.894   4.988  17.906  0.00  0.00    +0.000 A 
ATOM      3  C   UNL     1       3.348   6.293  17.701  0.00  0.00    +0.000 A 
ATOM      4  C   UNL     1       4.784   6.232  17.710  0.00  0.00    +0.000 A 
ATOM      5  C   UNL     1       5.787   7.195  17.466  0.00  0.00    +0.000 A 
ATOM      6  C   UNL     1       7.123   6.814  17.515  0.00  0.00    +0.000 A 
ATOM      7  F   UNL     1       8.071   7.725  17.257  0.00  0.00    +0.000 F 
ATOM      8  C   UNL     1       7.494   5.512  17.807  0.00  0.00    +0.000 A 
ATOM      9  C   UNL     1       6.521   4.540  18.059  0.00  0.00    +0.000 A 
ATOM     10  C   UNL     1       5.165   4.919  17.992  0.00  0.00    +0.000 A 
ATOM     11  N   UNL     1       4.003   4.189  18.146  0.00  0.00    +0.000 N 
ENDROOT
BRANCH   3  12
ATOM     12  C   UNL     1       2.623   7.595  17.438  0.00  0.00    +0.000 C 
BRANCH  12  13
ATOM     13  C   UNL     1       2.079   8.289  18.661  0.00  0.00    +0.000 C 
ATOM     14  N   UNL     1       1.698   9.520  18.535  0.00  0.00    +0.000 NA
ATOM     15  N   UNL     1       1.004  10.127  19.551  0.00  0.00    +0.000 N 
ATOM     16  C   UNL     1       0.651   9.497  20.734  0.00  0.00    +0.000 C 
ATOM     17  O   UNL     1      -0.204   9.923  21.513  0.00  0.00    +0.000 OA
ATOM     18  C   UNL     1       1.476   8.293  21.097  0.00  0.00    +0.000 C 
ATOM     19  C   UNL     1       1.938   7.478  19.917  0.00  0.00    +0.000 C 
BRANCH  15  20
ATOM     20  C   UNL     1       0.477  11.459  19.250  0.00  0.00    +0.000 C 
BRANCH  20  21
ATOM     21  C   UNL     1       1.563  12.507  19.354  0.00  0.00    +0.000 A 
ATOM     22  C   UNL     1       1.911  13.049  20.600  0.00  0.00    +0.000 A 
ATOM     23  C   UNL     1       2.850  14.077  20.687  0.00  0.00    +0.000 A 
ATOM     24  C   UNL     1       3.449  14.573  19.531  0.00  0.00    +0.000 A 
ATOM     25  C   UNL     1       3.121  14.033  18.288  0.00  0.00    +0.000 A 
ATOM     26  C   UNL     1       2.182  13.004  18.199  0.00  0.00    +0.000 A 
ENDBRANCH  20  21
ENDBRANCH  15  20
ENDBRANCH  12  13
ENDBRANCH   3  12
BRANCH  11  27
ATOM     27  C   UNL     1       3.960   2.755  18.439  0.00  0.00    +0.000 C 
BRANCH  27  28
ATOM     28  C   UNL     1       4.119   2.385  19.895  0.00  0.00    +0.000 C 
ATOM     29  O   UNL     1       3.259   2.630  20.735  0.00  0.00    +0.000 OA
BRANCH  28  30
ATOM     30  O   UNL     1       5.236   1.695  20.221  0.00  0.00    +0.000 OA
ATOM     31  H   UNL     1       6.023   1.886  19.672  0.00  0.00    +0.000 HD
ENDBRANCH  28  30
ENDBRANCH  27  28
ENDBRANCH  11  27
TORSDOF 7
ENDMDL
MODEL 4
REMARK VINA RESULT:      -8.8      1.567      2.925
REMARK  Name = 
REMARK  8 active torsions:
REMARK  status: ('A' for Active; 'I' for Inactive)
REMARK    1  A    between atoms: C_1  and  C_2
REMARK    2  A    between atoms: C_3  and  C_4
REMARK    3  A    between atoms: C_4  and  C_5
REMARK    4  A    between atoms: N_7  and  C_8
REMARK    5  A    between atoms: C_8  and  C_9
REMARK    6  A    between atoms: N_26  and  C_27
REMARK    7  A    between atoms: C_27  and  C_28
REMARK    8  A    between atoms: C_28  and  O_30
REMARK                            x       y       z     vdW  Elec       q    Type
REMARK                         _______ _______ _______ _____ _____    ______ ____
ROOT
ATOM      1  C   UNL     1       1.565   4.382  17.890  0.00  0.00    +0.000 C 
ATOM      2  C   UNL     1       2.936   4.985  17.922  0.00  0.00    +0.000 A 
ATOM      3  C   UNL     1       3.388   6.288  17.705  0.00  0.00    +0.000 A 
ATOM      4  C   UNL     1       4.824   6.232  17.736  0.00  0.00    +0.000 A 
ATOM      5  C   UNL     1       5.827   7.195  17.492  0.00  0.00    +0.000 A 
ATOM      6  C   UNL     1       7.164   6.821  17.566  0.00  0.00    +0.000 A 
ATOM      7  F   UNL     1       8.113   7.731  17.308  0.00  0.00    +0.000 F 
ATOM      8  C   UNL     1       7.535   5.524  17.884  0.00  0.00    +0.000 A 
ATOM      9  C   UNL     1       6.562   4.553  18.136  0.00  0.00    +0.000 A 
ATOM     10  C   UNL     1       5.206   4.925  18.043  0.00  0.00    +0.000 A 
ATOM     11  N   UNL     1       4.044   4.194  18.192  0.00  0.00    +0.000 N 
ENDROOT
BRANCH   3  12
ATOM     12  C   UNL     1       2.663   7.583  17.411  0.00  0.00    +0.000 C 
BRANCH  12  13
ATOM     13  C   UNL     1       2.095   8.293  18.614  0.00  0.00    +0.000 C 
ATOM     14  N   UNL     1       1.692   9.514  18.459  0.00  0.00    +0.000 NA
ATOM     15  N   UNL     1       0.979  10.128  19.457  0.00  0.00    +0.000 N 
ATOM     16  C   UNL     1       0.626   9.516  20.649  0.00  0.00    +0.000 C 
ATOM     17  O   UNL     1      -0.242   9.942  21.412  0.00  0.00    +0.000 OA
ATOM     18  C   UNL     1       1.470   8.335  21.044  0.00  0.00    +0.000 C 
ATOM     19  C   UNL     1       1.958   7.505  19.886  0.00  0.00    +0.000 C 
BRANCH  15  20
ATOM     20  C   UNL     1       0.430  11.444  19.124  0.00  0.00    +0.000 C 
BRANCH  20  21
ATOM     21  C   UNL     1       1.472  12.525  19.302  0.00  0.00    +0.000 A 
ATOM     22  C   UNL     1       2.183  13.018  18.198  0.00  0.00    +0.000 A 
ATOM     23  C   UNL     1       3.204  13.952  18.373  0.00  0.00    +0.000 A 
ATOM     24  C   UNL     1       3.526  14.402  19.652  0.00  0.00    +0.000 A 
ATOM     25  C   UNL     1       2.818  13.930  20.756  0.00  0.00    +0.000 A 
ATOM     26  C   UNL     1       1.795  12.995  20.583  0.00  0.00    +0.000 A 
ENDBRANCH  20  21
ENDBRANCH  15  20
ENDBRANCH  12  13
ENDBRANCH   3  12
BRANCH  11  27
ATOM     27  C   UNL     1       4.001   2.764  18.506  0.00  0.00    +0.000 C 
BRANCH  27  28
ATOM     28  C   UNL     1       4.100   2.419  19.973  0.00  0.00    +0.000 C 
ATOM     29  O   UNL     1       5.089   1.879  20.457  0.00  0.00    +0.000 OA
BRANCH  28  30
ATOM     30  O   UNL     1       3.064   2.806  20.753  0.00  0.00    +0.000 OA
ATOM     31  H   UNL     1       2.587   3.605  20.451  0.00  0.00    +0.000 HD
ENDBRANCH  28  30
ENDBRANCH  27  28
ENDBRANCH  11  27
TORSDOF 7
ENDMDL
MODEL 5
REMARK VINA RESULT:      -8.5      2.307      3.464
REMARK  Name = 
REMARK  8 active torsions:
REMARK  status: ('A' for Active; 'I' for Inactive)
REMARK    1  A    between atoms: C_1  and  C_2
REMARK    2  A    between atoms: C_3  and  C_4
REMARK    3  A    between atoms: C_4  and  C_5
REMARK    4  A    between atoms: N_7  and  C_8
REMARK    5  A    between atoms: C_8  and  C_9
REMARK    6  A    between atoms: N_26  and  C_27
REMARK    7  A    between atoms: C_27  and  C_28
REMARK    8  A    between atoms: C_28  and  O_30
REMARK                            x       y       z     vdW  Elec       q    Type
REMARK                         _______ _______ _______ _____ _____    ______ ____
ROOT
ATOM      1  C   UNL     1       5.523   7.465  17.275  0.00  0.00    +0.000 C 
ATOM      2  C   UNL     1       4.743   6.327  17.858  0.00  0.00    +0.000 A 
ATOM      3  C   UNL     1       3.375   6.144  18.071  0.00  0.00    +0.000 A 
ATOM      4  C   UNL     1       3.235   4.909  18.792  0.00  0.00    +0.000 A 
ATOM      5  C   UNL     1       2.124   4.251  19.363  0.00  0.00    +0.000 A 
ATOM      6  C   UNL     1       2.317   3.055  20.046  0.00  0.00    +0.000 A 
ATOM      7  F   UNL     1       1.264   2.448  20.610  0.00  0.00    +0.000 F 
ATOM      8  C   UNL     1       3.575   2.489  20.170  0.00  0.00    +0.000 A 
ATOM      9  C   UNL     1       4.691   3.116  19.609  0.00  0.00    +0.000 A 
ATOM     10  C   UNL     1       4.501   4.337  18.932  0.00  0.00    +0.000 A 
ATOM     11  N   UNL     1       5.396   5.194  18.324  0.00  0.00    +0.000 N 
ENDROOT
BRANCH   3  12
ATOM     12  C   UNL     1       2.169   6.998  17.745  0.00  0.00    +0.000 C 
BRANCH  12  13
ATOM     13  C   UNL     1       1.790   8.010  18.797  0.00  0.00    +0.000 C 
ATOM     14  N   UNL     1       1.359   9.163  18.396  0.00  0.00    +0.000 NA
ATOM     15  N   UNL     1       0.805  10.036  19.298  0.00  0.00    +0.000 N 
ATOM     16  C   UNL     1       0.648   9.760  20.647  0.00  0.00    +0.000 C 
ATOM     17  O   UNL     1      -0.095  10.395  21.398  0.00  0.00    +0.000 OA
ATOM     18  C   UNL     1       1.551   8.692  21.200  0.00  0.00    +0.000 C 
ATOM     19  C   UNL     1       1.859   7.578  20.234  0.00  0.00    +0.000 C 
BRANCH  15  20
ATOM     20  C   UNL     1       0.202  11.240  18.725  0.00  0.00    +0.000 C 
BRANCH  20  21
ATOM     21  C   UNL     1      -1.251  11.004  18.379  0.00  0.00    +0.000 A 
ATOM     22  C   UNL     1      -1.609  10.019  17.447  0.00  0.00    +0.000 A 
ATOM     23  C   UNL     1      -2.941   9.860  17.061  0.00  0.00    +0.000 A 
ATOM     24  C   UNL     1      -3.926  10.684  17.602  0.00  0.00    +0.000 A 
ATOM     25  C   UNL     1      -3.584  11.658  18.538  0.00  0.00    +0.000 A 
ATOM     26  C   UNL     1      -2.252  11.819  18.926  0.00  0.00    +0.000 A 
ENDBRANCH  20  21
ENDBRANCH  15  20
ENDBRANCH  12  13
ENDBRANCH   3  12
BRANCH  11  27
ATOM     27  C   UNL     1       6.842   4.971  18.259  0.00  0.00    +0.000 C 
BRANCH  27  28
ATOM     28  C   UNL     1       7.653   5.648  19.338  0.00  0.00    +0.000 C 
ATOM     29  O   UNL     1       7.750   5.193  20.473  0.00  0.00    +0.000 OA
BRANCH  28  30
ATOM     30  O   UNL     1       8.336   6.756  18.970  0.00  0.00    +0.000 OA
ATOM     31  H   UNL     1       7.917   7.295  18.269  0.00  0.00    +0.000 HD
ENDBRANCH  28  30
ENDBRANCH  27  28
ENDBRANCH  11  27
TORSDOF 7
ENDMDL
MODEL 6
REMARK VINA RESULT:      -8.4      2.414      3.525
REMARK  Name = 
REMARK  8 active torsions:
REMARK  status: ('A' for Active; 'I' for Inactive)
REMARK    1  A    between atoms: C_1  and  C_2
REMARK    2  A    between atoms: C_3  and  C_4
REMARK    3  A    between atoms: C_4  and  C_5
REMARK    4  A    between atoms: N_7  and  C_8
REMARK    5  A    between atoms: C_8  and  C_9
REMARK    6  A    between atoms: N_26  and  C_27
REMARK    7  A    between atoms: C_27  and  C_28
REMARK    8  A    between atoms: C_28  and  O_30
REMARK                            x       y       z     vdW  Elec       q    Type
REMARK                         _______ _______ _______ _____ _____    ______ ____
ROOT
ATOM      1  C   UNL     1       5.519   7.357  17.385  0.00  0.00    +0.000 C 
ATOM      2  C   UNL     1       4.516   6.252  17.524  0.00  0.00    +0.000 A 
ATOM      3  C   UNL     1       3.123   6.262  17.612  0.00  0.00    +0.000 A 
ATOM      4  C   UNL     1       2.721   4.907  17.871  0.00  0.00    +0.000 A 
ATOM      5  C   UNL     1       1.470   4.313  18.147  0.00  0.00    +0.000 A 
ATOM      6  C   UNL     1       1.405   2.947  18.397  0.00  0.00    +0.000 A 
ATOM      7  F   UNL     1       0.219   2.391  18.685  0.00  0.00    +0.000 F 
ATOM      8  C   UNL     1       2.539   2.152  18.372  0.00  0.00    +0.000 A 
ATOM      9  C   UNL     1       3.789   2.713  18.096  0.00  0.00    +0.000 A 
ATOM     10  C   UNL     1       3.861   4.101  17.860  0.00  0.00    +0.000 A 
ATOM     11  N   UNL     1       4.934   4.931  17.608  0.00  0.00    +0.000 N 
ENDROOT
BRANCH   3  12
ATOM     12  C   UNL     1       2.104   7.379  17.544  0.00  0.00    +0.000 C 
BRANCH  12  13
ATOM     13  C   UNL     1       1.825   8.078  18.850  0.00  0.00    +0.000 C 
ATOM     14  N   UNL     1       1.448   9.316  18.803  0.00  0.00    +0.000 NA
ATOM     15  N   UNL     1       0.980   9.930  19.937  0.00  0.00    +0.000 N 
ATOM     16  C   UNL     1       0.857   9.301  21.166  0.00  0.00    +0.000 C 
ATOM     17  O   UNL     1       0.181   9.738  22.099  0.00  0.00    +0.000 OA
ATOM     18  C   UNL     1       1.716   8.082  21.358  0.00  0.00    +0.000 C 
ATOM     19  C   UNL     1       1.922   7.264  20.110  0.00  0.00    +0.000 C 
BRANCH  15  20
ATOM     20  C   UNL     1       0.427  11.272  19.747  0.00  0.00    +0.000 C 
BRANCH  20  21
ATOM     21  C   UNL     1      -0.932  11.209  19.086  0.00  0.00    +0.000 A 
ATOM     22  C   UNL     1      -1.983  12.018  19.543  0.00  0.00    +0.000 A 
ATOM     23  C   UNL     1      -3.259  11.897  18.992  0.00  0.00    +0.000 A 
ATOM     24  C   UNL     1      -3.498  10.968  17.982  0.00  0.00    +0.000 A 
ATOM     25  C   UNL     1      -2.458  10.168  17.510  0.00  0.00    +0.000 A 
ATOM     26  C   UNL     1      -1.180  10.286  18.060  0.00  0.00    +0.000 A 
ENDBRANCH  20  21
ENDBRANCH  15  20
ENDBRANCH  12  13
ENDBRANCH   3  12
BRANCH  11  27
ATOM     27  C   UNL     1       6.326   4.483  17.527  0.00  0.00    +0.000 C 
BRANCH  27  28
ATOM     28  C   UNL     1       6.844   4.222  16.132  0.00  0.00    +0.000 C 
ATOM     29  O   UNL     1       7.743   4.887  15.628  0.00  0.00    +0.000 OA
BRANCH  28  30
ATOM     30  O   UNL     1       6.313   3.161  15.483  0.00  0.00    +0.000 OA
ATOM     31  H   UNL     1       6.219   3.265  14.515  0.00  0.00    +0.000 HD
ENDBRANCH  28  30
ENDBRANCH  27  28
ENDBRANCH  11  27
TORSDOF 7
ENDMDL
MODEL 7
REMARK VINA RESULT:      -8.4      2.319      3.563
REMARK  Name = 
REMARK  8 active torsions:
REMARK  status: ('A' for Active; 'I' for Inactive)
REMARK    1  A    between atoms: C_1  and  C_2
REMARK    2  A    between atoms: C_3  and  C_4
REMARK    3  A    between atoms: C_4  and  C_5
REMARK    4  A    between atoms: N_7  and  C_8
REMARK    5  A    between atoms: C_8  and  C_9
REMARK    6  A    between atoms: N_26  and  C_27
REMARK    7  A    between atoms: C_27  and  C_28
REMARK    8  A    between atoms: C_28  and  O_30
REMARK                            x       y       z     vdW  Elec       q    Type
REMARK                         _______ _______ _______ _____ _____    ______ ____
ROOT
ATOM      1  C   UNL     1       5.495   7.334  17.718  0.00  0.00    +0.000 C 
ATOM      2  C   UNL     1       4.477   6.255  17.933  0.00  0.00    +0.000 A 
ATOM      3  C   UNL     1       3.081   6.271  17.909  0.00  0.00    +0.000 A 
ATOM      4  C   UNL     1       2.651   4.964  18.326  0.00  0.00    +0.000 A 
ATOM      5  C   UNL     1       1.379   4.410  18.584  0.00  0.00    +0.000 A 
ATOM      6  C   UNL     1       1.285   3.093  19.020  0.00  0.00    +0.000 A 
ATOM      7  F   UNL     1       0.077   2.578  19.289  0.00  0.00    +0.000 F 
ATOM      8  C   UNL     1       2.413   2.308  19.197  0.00  0.00    +0.000 A 
ATOM      9  C   UNL     1       3.684   2.830  18.944  0.00  0.00    +0.000 A 
ATOM     10  C   UNL     1       3.783   4.170  18.519  0.00  0.00    +0.000 A 
ATOM     11  N   UNL     1       4.879   4.962  18.237  0.00  0.00    +0.000 N 
ENDROOT
BRANCH   3  12
ATOM     12  C   UNL     1       2.079   7.362  17.603  0.00  0.00    +0.000 C 
BRANCH  12  13
ATOM     13  C   UNL     1       1.692   8.231  18.773  0.00  0.00    +0.000 C 
ATOM     14  N   UNL     1       1.207   9.404  18.519  0.00  0.00    +0.000 NA
ATOM     15  N   UNL     1       0.646  10.144  19.529  0.00  0.00    +0.000 N 
ATOM     16  C   UNL     1       0.539   9.710  20.841  0.00  0.00    +0.000 C 
ATOM     17  O   UNL     1      -0.205  10.224  21.678  0.00  0.00    +0.000 OA
ATOM     18  C   UNL     1       1.499   8.625  21.244  0.00  0.00    +0.000 C 
ATOM     19  C   UNL     1       1.820   7.641  20.149  0.00  0.00    +0.000 C 
BRANCH  15  20
ATOM     20  C   UNL     1      -0.019  11.379  19.113  0.00  0.00    +0.000 C 
BRANCH  20  21
ATOM     21  C   UNL     1      -1.415  11.098  18.605  0.00  0.00    +0.000 A 
ATOM     22  C   UNL     1      -1.631  10.115  17.627  0.00  0.00    +0.000 A 
ATOM     23  C   UNL     1      -2.905   9.915  17.094  0.00  0.00    +0.000 A 
ATOM     24  C   UNL     1      -3.974  10.694  17.532  0.00  0.00    +0.000 A 
ATOM     25  C   UNL     1      -3.774  11.664  18.513  0.00  0.00    +0.000 A 
ATOM     26  C   UNL     1      -2.500  11.866  19.048  0.00  0.00    +0.000 A 
ENDBRANCH  20  21
ENDBRANCH  15  20
ENDBRANCH  12  13
ENDBRANCH   3  12
BRANCH  11  27
ATOM     27  C   UNL     1       6.270   4.513  18.331  0.00  0.00    +0.000 C 
BRANCH  27  28
ATOM     28  C   UNL     1       6.946   4.215  17.013  0.00  0.00    +0.000 C 
ATOM     29  O   UNL     1       8.132   4.454  16.812  0.00  0.00    +0.000 OA
BRANCH  28  30
ATOM     30  O   UNL     1       6.190   3.596  16.077  0.00  0.00    +0.000 OA
ATOM     31  H   UNL     1       6.392   3.834  15.150  0.00  0.00    +0.000 HD
ENDBRANCH  28  30
ENDBRANCH  27  28
ENDBRANCH  11  27
TORSDOF 7
ENDMDL
MODEL 8
REMARK VINA RESULT:      -8.2      1.835      3.058
REMARK  Name = 
REMARK  8 active torsions:
REMARK  status: ('A' for Active; 'I' for Inactive)
REMARK    1  A    between atoms: C_1  and  C_2
REMARK    2  A    between atoms: C_3  and  C_4
REMARK    3  A    between atoms: C_4  and  C_5
REMARK    4  A    between atoms: N_7  and  C_8
REMARK    5  A    between atoms: C_8  and  C_9
REMARK    6  A    between atoms: N_26  and  C_27
REMARK    7  A    between atoms: C_27  and  C_28
REMARK    8  A    between atoms: C_28  and  O_30
REMARK                            x       y       z     vdW  Elec       q    Type
REMARK                         _______ _______ _______ _____ _____    ______ ____
ROOT
ATOM      1  C   UNL     1       1.382   4.359  19.120  0.00  0.00    +0.000 C 
ATOM      2  C   UNL     1       2.734   4.931  18.817  0.00  0.00    +0.000 A 
ATOM      3  C   UNL     1       3.130   6.154  18.274  0.00  0.00    +0.000 A 
ATOM      4  C   UNL     1       4.554   6.079  18.093  0.00  0.00    +0.000 A 
ATOM      5  C   UNL     1       5.494   6.954  17.508  0.00  0.00    +0.000 A 
ATOM      6  C   UNL     1       6.831   6.577  17.450  0.00  0.00    +0.000 A 
ATOM      7  F   UNL     1       7.717   7.399  16.870  0.00  0.00    +0.000 F 
ATOM      8  C   UNL     1       7.264   5.365  17.962  0.00  0.00    +0.000 A 
ATOM      9  C   UNL     1       6.354   4.482  18.551  0.00  0.00    +0.000 A 
ATOM     10  C   UNL     1       4.996   4.854  18.596  0.00  0.00    +0.000 A 
ATOM     11  N   UNL     1       3.881   4.190  19.067  0.00  0.00    +0.000 N 
ENDROOT
BRANCH   3  12
ATOM     12  C   UNL     1       2.352   7.377  17.840  0.00  0.00    +0.000 C 
BRANCH  12  13
ATOM     13  C   UNL     1       1.872   8.268  18.958  0.00  0.00    +0.000 C 
ATOM     14  N   UNL     1       1.562   9.491  18.664  0.00  0.00    +0.000 NA
ATOM     15  N   UNL     1       0.925  10.275  19.592  0.00  0.00    +0.000 N 
ATOM     16  C   UNL     1       0.558   9.839  20.855  0.00  0.00    +0.000 C 
ATOM     17  O   UNL     1      -0.254  10.421  21.576  0.00  0.00    +0.000 OA
ATOM     18  C   UNL     1       1.318   8.650  21.376  0.00  0.00    +0.000 C 
ATOM     19  C   UNL     1       1.708   7.651  20.318  0.00  0.00    +0.000 C 
BRANCH  15  20
ATOM     20  C   UNL     1       0.472  11.581  19.112  0.00  0.00    +0.000 C 
BRANCH  20  21
ATOM     21  C   UNL     1       1.546  12.629  19.299  0.00  0.00    +0.000 A 
ATOM     22  C   UNL     1       2.330  13.046  18.213  0.00  0.00    +0.000 A 
ATOM     23  C   UNL     1       3.378  13.947  18.401  0.00  0.00    +0.000 A 
ATOM     24  C   UNL     1       3.654  14.439  19.676  0.00  0.00    +0.000 A 
ATOM     25  C   UNL     1       2.873  14.043  20.760  0.00  0.00    +0.000 A 
ATOM     26  C   UNL     1       1.823  13.141  20.574  0.00  0.00    +0.000 A 
ENDBRANCH  20  21
ENDBRANCH  15  20
ENDBRANCH  12  13
ENDBRANCH   3  12
BRANCH  11  27
ATOM     27  C   UNL     1       3.905   2.854  19.666  0.00  0.00    +0.000 C 
BRANCH  27  28
ATOM     28  C   UNL     1       3.782   1.704  18.695  0.00  0.00    +0.000 C 
ATOM     29  O   UNL     1       3.120   1.780  17.665  0.00  0.00    +0.000 OA
BRANCH  28  30
ATOM     30  O   UNL     1       4.504   0.596  18.980  0.00  0.00    +0.000 OA
ATOM     31  H   UNL     1       5.454   0.748  19.157  0.00  0.00    +0.000 HD
ENDBRANCH  28  30
ENDBRANCH  27  28
ENDBRANCH  11  27
TORSDOF 7
ENDMDL
MODEL 9
REMARK VINA RESULT:      -8.1      2.868      4.484
REMARK  Name = 
REMARK  8 active torsions:
REMARK  status: ('A' for Active; 'I' for Inactive)
REMARK    1  A    between atoms: C_1  and  C_2
REMARK    2  A    between atoms: C_3  and  C_4
REMARK    3  A    between atoms: C_4  and  C_5
REMARK    4  A    between atoms: N_7  and  C_8
REMARK    5  A    between atoms: C_8  and  C_9
REMARK    6  A    between atoms: N_26  and  C_27
REMARK    7  A    between atoms: C_27  and  C_28
REMARK    8  A    between atoms: C_28  and  O_30
REMARK                            x       y       z     vdW  Elec       q    Type
REMARK                         _______ _______ _______ _____ _____    ______ ____
ROOT
ATOM      1  C   UNL     1       5.436   7.387  17.480  0.00  0.00    +0.000 C 
ATOM      2  C   UNL     1       4.442   6.286  17.695  0.00  0.00    +0.000 A 
ATOM      3  C   UNL     1       3.048   6.291  17.778  0.00  0.00    +0.000 A 
ATOM      4  C   UNL     1       2.656   4.955  18.134  0.00  0.00    +0.000 A 
ATOM      5  C   UNL     1       1.410   4.372  18.448  0.00  0.00    +0.000 A 
ATOM      6  C   UNL     1       1.355   3.027  18.796  0.00  0.00    +0.000 A 
ATOM      7  F   UNL     1       0.173   2.484  19.120  0.00  0.00    +0.000 F 
ATOM      8  C   UNL     1       2.496   2.242  18.833  0.00  0.00    +0.000 A 
ATOM      9  C   UNL     1       3.742   2.793  18.520  0.00  0.00    +0.000 A 
ATOM     10  C   UNL     1       3.803   4.160  18.185  0.00  0.00    +0.000 A 
ATOM     11  N   UNL     1       4.871   4.979  17.876  0.00  0.00    +0.000 N 
ENDROOT
BRANCH   3  12
ATOM     12  C   UNL     1       2.021   7.391  17.626  0.00  0.00    +0.000 C 
BRANCH  12  13
ATOM     13  C   UNL     1       1.763   8.209  18.866  0.00  0.00    +0.000 C 
ATOM     14  N   UNL     1       1.445   9.455  18.711  0.00  0.00    +0.000 NA
ATOM     15  N   UNL     1       0.996  10.183  19.784  0.00  0.00    +0.000 N 
ATOM     16  C   UNL     1       0.832   9.665  21.059  0.00  0.00    +0.000 C 
ATOM     17  O   UNL     1       0.169  10.210  21.943  0.00  0.00    +0.000 OA
ATOM     18  C   UNL     1       1.631   8.428  21.362  0.00  0.00    +0.000 C 
ATOM     19  C   UNL     1       1.809   7.500  20.190  0.00  0.00    +0.000 C 
BRANCH  15  20
ATOM     20  C   UNL     1       0.509  11.528  19.476  0.00  0.00    +0.000 C 
BRANCH  20  21
ATOM     21  C   UNL     1       1.645  12.527  19.472  0.00  0.00    +0.000 A 
ATOM     22  C   UNL     1       2.062  13.134  20.666  0.00  0.00    +0.000 A 
ATOM     23  C   UNL     1       3.050  14.119  20.651  0.00  0.00    +0.000 A 
ATOM     24  C   UNL     1       3.629  14.508  19.444  0.00  0.00    +0.000 A 
ATOM     25  C   UNL     1       3.232  13.903  18.254  0.00  0.00    +0.000 A 
ATOM     26  C   UNL     1       2.243  12.916  18.265  0.00  0.00    +0.000 A 
ENDBRANCH  20  21
ENDBRANCH  15  20
ENDBRANCH  12  13
ENDBRANCH   3  12
BRANCH  11  27
ATOM     27  C   UNL     1       6.267   4.538  17.832  0.00  0.00    +0.000 C 
BRANCH  27  28
ATOM     28  C   UNL     1       6.795   4.191  16.461  0.00  0.00    +0.000 C 
ATOM     29  O   UNL     1       7.852   4.638  16.030  0.00  0.00    +0.000 OA
BRANCH  28  30
ATOM     30  O   UNL     1       6.075   3.294  15.749  0.00  0.00    +0.000 OA
ATOM     31  H   UNL     1       6.592   2.727  15.142  0.00  0.00    +0.000 HD
ENDBRANCH  28  30
ENDBRANCH  27  28
ENDBRANCH  11  27
TORSDOF 7
ENDMDL
