MODEL 1
REMARK VINA RESULT:      -7.7      0.000      0.000
REMARK  Name = 
REMARK  5 active torsions:
REMARK  status: ('A' for Active; 'I' for Inactive)
REMARK    1  A    between atoms: C_7  and  C_8
REMARK    2  A    between atoms: C_10  and  C_11
REMARK    3  A    between atoms: C_11  and  O_12
REMARK    4  A    between atoms: C_13  and  O_14
REMARK    5  A    between atoms: C_15  and  O_16
REMARK                            x       y       z     vdW  Elec       q    Type
REMARK                         _______ _______ _______ _____ _____    ______ ____
ROOT
ATOM      1  C   UNL     1       3.560   4.329  19.876  0.00  0.00    +0.000 C 
ATOM      2  O   UNL     1       3.429   2.998  19.341  0.00  0.00    +0.000 OA
ATOM      3  C   UNL     1       2.155   2.456  19.782  0.00  0.00    +0.000 C 
ATOM      4  C   UNL     1       1.553   3.468  20.757  0.00  0.00    +0.000 C 
ATOM      5  C   UNL     1       2.170   4.786  20.312  0.00  0.00    +0.000 C 
ENDROOT
BRANCH   1  12
ATOM      6  O   UNL     1       7.564   7.471  16.654  0.00  0.00    +0.000 OA
ATOM      7  C   UNL     1       7.189   6.787  17.600  0.00  0.00    +0.000 A 
ATOM      8  N   UNL     1       8.055   6.399  18.588  0.00  0.00    +0.000 N 
ATOM      9  C   UNL     1       7.666   5.622  19.641  0.00  0.00    +0.000 A 
ATOM     10  N   UNL     1       6.472   5.170  19.838  0.00  0.00    +0.000 NA
ATOM     11  N   UNL     1       5.568   5.538  18.898  0.00  0.00    +0.000 N 
ATOM     12  C   UNL     1       4.235   5.198  18.870  0.00  0.00    +0.000 A 
ATOM     13  C   UNL     1       3.685   5.778  17.734  0.00  0.00    +0.000 A 
ATOM     14  C   UNL     1       4.710   6.477  17.061  0.00  0.00    +0.000 A 
ATOM     15  C   UNL     1       5.859   6.310  17.804  0.00  0.00    +0.000 A 
ATOM     16  H   UNL     1       9.010   6.713  18.486  0.00  0.00    +0.000 HD
ENDBRANCH   1  12
BRANCH   4  17
ATOM     17  O   UNL     1       1.972   3.208  22.113  0.00  0.00    +0.000 OA
ATOM     18  H   UNL     1       2.938   3.331  22.170  0.00  0.00    +0.000 HD
ENDBRANCH   4  17
BRANCH   5  19
ATOM     19  O   UNL     1       2.203   5.729  21.384  0.00  0.00    +0.000 OA
ATOM     20  H   UNL     1       3.133   6.029  21.449  0.00  0.00    +0.000 HD
ENDBRANCH   5  19
BRANCH   3  21
ATOM     21  C   UNL     1       1.269   2.209  18.561  0.00  0.00    +0.000 C 
BRANCH  21  22
ATOM     22  O   UNL     1       2.080   1.895  17.430  0.00  0.00    +0.000 OA
ATOM     23  H   UNL     1       2.852   1.413  17.791  0.00  0.00    +0.000 HD
ENDBRANCH  21  22
ENDBRANCH   3  21
TORSDOF 5
ENDMDL
MODEL 2
REMARK VINA RESULT:      -7.6      1.020      1.020
REMARK  Name = 
REMARK  5 active torsions:
REMARK  status: ('A' for Active; 'I' for Inactive)
REMARK    1  A    between atoms: C_7  and  C_8
REMARK    2  A    between atoms: C_10  and  C_11
REMARK    3  A    between atoms: C_11  and  O_12
REMARK    4  A    between atoms: C_13  and  O_14
REMARK    5  A    between atoms: C_15  and  O_16
REMARK                            x       y       z     vdW  Elec       q    Type
REMARK                         _______ _______ _______ _____ _____    ______ ____
ROOT
ATOM      1  C   UNL     1       3.613   3.709  19.625  0.00  0.00    +0.000 C 
ATOM      2  O   UNL     1       3.141   2.368  19.397  0.00  0.00    +0.000 OA
ATOM      3  C   UNL     1       1.843   2.230  20.036  0.00  0.00    +0.000 C 
ATOM      4  C   UNL     1       1.590   3.520  20.814  0.00  0.00    +0.000 C 
ATOM      5  C   UNL     1       2.413   4.550  20.055  0.00  0.00    +0.000 C 
ENDROOT
BRANCH   1  12
ATOM      6  O   UNL     1       7.620   6.023  15.767  0.00  0.00    +0.000 OA
ATOM      7  C   UNL     1       7.172   5.751  16.876  0.00  0.00    +0.000 A 
ATOM      8  N   UNL     1       7.859   6.065  18.019  0.00  0.00    +0.000 N 
ATOM      9  C   UNL     1       7.390   5.757  19.264  0.00  0.00    +0.000 A 
ATOM     10  N   UNL     1       6.277   5.151  19.518  0.00  0.00    +0.000 NA
ATOM     11  N   UNL     1       5.548   4.831  18.421  0.00  0.00    +0.000 N 
ATOM     12  C   UNL     1       4.331   4.189  18.409  0.00  0.00    +0.000 A 
ATOM     13  C   UNL     1       3.947   4.056  17.081  0.00  0.00    +0.000 A 
ATOM     14  C   UNL     1       4.958   4.623  16.276  0.00  0.00    +0.000 A 
ATOM     15  C   UNL     1       5.931   5.093  17.132  0.00  0.00    +0.000 A 
ATOM     16  H   UNL     1       8.744   6.533  17.889  0.00  0.00    +0.000 HD
ENDBRANCH   1  12
BRANCH   4  17
ATOM     17  O   UNL     1       2.104   3.434  22.160  0.00  0.00    +0.000 OA
ATOM     18  H   UNL     1       1.848   2.572  22.538  0.00  0.00    +0.000 HD
ENDBRANCH   4  17
BRANCH   5  19
ATOM     19  O   UNL     1       2.773   5.646  20.895  0.00  0.00    +0.000 OA
ATOM     20  H   UNL     1       2.524   5.381  21.804  0.00  0.00    +0.000 HD
ENDBRANCH   5  19
BRANCH   3  21
ATOM     21  C   UNL     1       0.786   1.965  18.965  0.00  0.00    +0.000 C 
BRANCH  21  22
ATOM     22  O   UNL     1       1.417   1.746  17.705  0.00  0.00    +0.000 OA
ATOM     23  H   UNL     1       1.276   2.571  17.197  0.00  0.00    +0.000 HD
ENDBRANCH  21  22
ENDBRANCH   3  21
TORSDOF 5
ENDMDL
MODEL 3
REMARK VINA RESULT:      -7.5      2.530      6.024
REMARK  Name = 
REMARK  5 active torsions:
REMARK  status: ('A' for Active; 'I' for Inactive)
REMARK    1  A    between atoms: C_7  and  C_8
REMARK    2  A    between atoms: C_10  and  C_11
REMARK    3  A    between atoms: C_11  and  O_12
REMARK    4  A    between atoms: C_13  and  O_14
REMARK    5  A    between atoms: C_15  and  O_16
REMARK                            x       y       z     vdW  Elec       q    Type
REMARK                         _______ _______ _______ _____ _____    ______ ____
ROOT
ATOM      1  C   UNL     1       5.317   4.987  17.071  0.00  0.00    +0.000 C 
ATOM      2  O   UNL     1       6.316   4.486  17.979  0.00  0.00    +0.000 OA
ATOM      3  C   UNL     1       7.495   5.327  17.864  0.00  0.00    +0.000 C 
ATOM      4  C   UNL     1       7.239   6.300  16.715  0.00  0.00    +0.000 C 
ATOM      5  C   UNL     1       5.721   6.409  16.685  0.00  0.00    +0.000 C 
ENDROOT
BRANCH   1  12
ATOM      6  O   UNL     1       0.291   2.918  19.669  0.00  0.00    +0.000 OA
ATOM      7  C   UNL     1       1.383   2.815  19.120  0.00  0.00    +0.000 A 
ATOM      8  N   UNL     1       1.963   1.592  18.911  0.00  0.00    +0.000 N 
ATOM      9  C   UNL     1       3.187   1.453  18.320  0.00  0.00    +0.000 A 
ATOM     10  N   UNL     1       3.929   2.422  17.895  0.00  0.00    +0.000 NA
ATOM     11  N   UNL     1       3.395   3.656  18.063  0.00  0.00    +0.000 N 
ATOM     12  C   UNL     1       3.971   4.851  17.699  0.00  0.00    +0.000 A 
ATOM     13  C   UNL     1       3.089   5.862  18.059  0.00  0.00    +0.000 A 
ATOM     14  C   UNL     1       1.961   5.262  18.660  0.00  0.00    +0.000 A 
ATOM     15  C   UNL     1       2.179   3.901  18.646  0.00  0.00    +0.000 A 
ATOM     16  H   UNL     1       1.436   0.792  19.230  0.00  0.00    +0.000 HD
ENDBRANCH   1  12
BRANCH   4  17
ATOM     17  O   UNL     1       7.677   5.755  15.453  0.00  0.00    +0.000 OA
ATOM     18  H   UNL     1       6.950   5.839  14.807  0.00  0.00    +0.000 HD
ENDBRANCH   4  17
BRANCH   5  19
ATOM     19  O   UNL     1       5.255   6.789  15.390  0.00  0.00    +0.000 OA
ATOM     20  H   UNL     1       5.226   5.965  14.862  0.00  0.00    +0.000 HD
ENDBRANCH   5  19
BRANCH   3  21
ATOM     21  C   UNL     1       7.737   6.033  19.198  0.00  0.00    +0.000 C 
BRANCH  21  22
ATOM     22  O   UNL     1       8.516   5.199  20.053  0.00  0.00    +0.000 OA
ATOM     23  H   UNL     1       8.993   5.812  20.649  0.00  0.00    +0.000 HD
ENDBRANCH  21  22
ENDBRANCH   3  21
TORSDOF 5
ENDMDL
MODEL 4
REMARK VINA RESULT:      -7.3      2.035      2.277
REMARK  Name = 
REMARK  5 active torsions:
REMARK  status: ('A' for Active; 'I' for Inactive)
REMARK    1  A    between atoms: C_7  and  C_8
REMARK    2  A    between atoms: C_10  and  C_11
REMARK    3  A    between atoms: C_11  and  O_12
REMARK    4  A    between atoms: C_13  and  O_14
REMARK    5  A    between atoms: C_15  and  O_16
REMARK                            x       y       z     vdW  Elec       q    Type
REMARK                         _______ _______ _______ _____ _____    ______ ____
ROOT
ATOM      1  C   UNL     1       4.510   3.420  17.622  0.00  0.00    +0.000 C 
ATOM      2  O   UNL     1       3.274   3.213  16.913  0.00  0.00    +0.000 OA
ATOM      3  C   UNL     1       2.405   2.397  17.745  0.00  0.00    +0.000 C 
ATOM      4  C   UNL     1       3.225   1.971  18.961  0.00  0.00    +0.000 C 
ATOM      5  C   UNL     1       4.258   3.081  19.090  0.00  0.00    +0.000 C 
ENDROOT
BRANCH   1  12
ATOM      6  O   UNL     1       7.690   8.534  17.463  0.00  0.00    +0.000 OA
ATOM      7  C   UNL     1       7.428   7.398  17.845  0.00  0.00    +0.000 A 
ATOM      8  N   UNL     1       8.227   6.747  18.748  0.00  0.00    +0.000 N 
ATOM      9  C   UNL     1       7.967   5.476  19.174  0.00  0.00    +0.000 A 
ATOM     10  N   UNL     1       6.968   4.748  18.797  0.00  0.00    +0.000 NA
ATOM     11  N   UNL     1       6.135   5.350  17.914  0.00  0.00    +0.000 N 
ATOM     12  C   UNL     1       5.001   4.803  17.358  0.00  0.00    +0.000 A 
ATOM     13  C   UNL     1       4.457   5.756  16.507  0.00  0.00    +0.000 A 
ATOM     14  C   UNL     1       5.284   6.899  16.546  0.00  0.00    +0.000 A 
ATOM     15  C   UNL     1       6.309   6.618  17.423  0.00  0.00    +0.000 A 
ATOM     16  H   UNL     1       9.033   7.260  19.076  0.00  0.00    +0.000 HD
ENDBRANCH   1  12
BRANCH   4  17
ATOM     17  O   UNL     1       3.923   0.731  18.720  0.00  0.00    +0.000 OA
ATOM     18  H   UNL     1       3.745   0.124  19.463  0.00  0.00    +0.000 HD
ENDBRANCH   4  17
BRANCH   5  19
ATOM     19  O   UNL     1       5.429   2.624  19.766  0.00  0.00    +0.000 OA
ATOM     20  H   UNL     1       5.845   1.969  19.169  0.00  0.00    +0.000 HD
ENDBRANCH   5  19
BRANCH   3  21
ATOM     21  C   UNL     1       1.166   3.210  18.118  0.00  0.00    +0.000 C 
BRANCH  21  22
ATOM     22  O   UNL     1       1.086   4.375  17.299  0.00  0.00    +0.000 OA
ATOM     23  H   UNL     1       1.805   4.279  16.642  0.00  0.00    +0.000 HD
ENDBRANCH  21  22
ENDBRANCH   3  21
TORSDOF 5
ENDMDL
MODEL 5
REMARK VINA RESULT:      -7.2      2.610      5.843
REMARK  Name = 
REMARK  5 active torsions:
REMARK  status: ('A' for Active; 'I' for Inactive)
REMARK    1  A    between atoms: C_7  and  C_8
REMARK    2  A    between atoms: C_10  and  C_11
REMARK    3  A    between atoms: C_11  and  O_12
REMARK    4  A    between atoms: C_13  and  O_14
REMARK    5  A    between atoms: C_15  and  O_16
REMARK                            x       y       z     vdW  Elec       q    Type
REMARK                         _______ _______ _______ _____ _____    ______ ____
ROOT
ATOM      1  C   UNL     1       5.069   5.331  17.842  0.00  0.00    +0.000 C 
ATOM      2  O   UNL     1       5.254   5.724  16.468  0.00  0.00    +0.000 OA
ATOM      3  C   UNL     1       6.679   5.886  16.232  0.00  0.00    +0.000 C 
ATOM      4  C   UNL     1       7.376   5.720  17.581  0.00  0.00    +0.000 C 
ATOM      5  C   UNL     1       6.416   4.834  18.361  0.00  0.00    +0.000 C 
ENDROOT
BRANCH   1  12
ATOM      6  O   UNL     1       0.071   2.321  19.341  0.00  0.00    +0.000 OA
ATOM      7  C   UNL     1       0.930   3.186  19.472  0.00  0.00    +0.000 A 
ATOM      8  N   UNL     1       0.868   4.104  20.487  0.00  0.00    +0.000 N 
ATOM      9  C   UNL     1       1.802   5.088  20.644  0.00  0.00    +0.000 A 
ATOM     10  N   UNL     1       2.830   5.274  19.884  0.00  0.00    +0.000 NA
ATOM     11  N   UNL     1       2.950   4.382  18.871  0.00  0.00    +0.000 N 
ATOM     12  C   UNL     1       3.948   4.351  17.924  0.00  0.00    +0.000 A 
ATOM     13  C   UNL     1       3.681   3.284  17.076  0.00  0.00    +0.000 A 
ATOM     14  C   UNL     1       2.492   2.663  17.518  0.00  0.00    +0.000 A 
ATOM     15  C   UNL     1       2.067   3.363  18.627  0.00  0.00    +0.000 A 
ATOM     16  H   UNL     1       0.080   4.019  21.113  0.00  0.00    +0.000 HD
ENDBRANCH   1  12
BRANCH   4  17
ATOM     17  O   UNL     1       7.493   6.980  18.274  0.00  0.00    +0.000 OA
ATOM     18  H   UNL     1       7.060   7.671  17.738  0.00  0.00    +0.000 HD
ENDBRANCH   4  17
BRANCH   5  19
ATOM     19  O   UNL     1       6.573   5.015  19.768  0.00  0.00    +0.000 OA
ATOM     20  H   UNL     1       6.974   4.187  20.103  0.00  0.00    +0.000 HD
ENDBRANCH   5  19
BRANCH   3  21
ATOM     21  C   UNL     1       7.132   4.855  15.198  0.00  0.00    +0.000 C 
BRANCH  21  22
ATOM     22  O   UNL     1       7.850   5.504  14.150  0.00  0.00    +0.000 OA
ATOM     23  H   UNL     1       8.530   6.046  14.599  0.00  0.00    +0.000 HD
ENDBRANCH  21  22
ENDBRANCH   3  21
TORSDOF 5
ENDMDL
MODEL 6
REMARK VINA RESULT:      -7.2      1.804      3.120
REMARK  Name = 
REMARK  5 active torsions:
REMARK  status: ('A' for Active; 'I' for Inactive)
REMARK    1  A    between atoms: C_7  and  C_8
REMARK    2  A    between atoms: C_10  and  C_11
REMARK    3  A    between atoms: C_11  and  O_12
REMARK    4  A    between atoms: C_13  and  O_14
REMARK    5  A    between atoms: C_15  and  O_16
REMARK                            x       y       z     vdW  Elec       q    Type
REMARK                         _______ _______ _______ _____ _____    ______ ____
ROOT
ATOM      1  C   UNL     1       3.216   3.648  18.398  0.00  0.00    +0.000 C 
ATOM      2  O   UNL     1       2.215   4.366  19.145  0.00  0.00    +0.000 OA
ATOM      3  C   UNL     1       1.496   3.413  19.972  0.00  0.00    +0.000 C 
ATOM      4  C   UNL     1       1.999   2.022  19.590  0.00  0.00    +0.000 C 
ATOM      5  C   UNL     1       3.406   2.292  19.075  0.00  0.00    +0.000 C 
ENDROOT
BRANCH   1  12
ATOM      6  O   UNL     1       7.967   6.779  16.419  0.00  0.00    +0.000 OA
ATOM      7  C   UNL     1       7.005   6.026  16.306  0.00  0.00    +0.000 A 
ATOM      8  N   UNL     1       6.637   5.517  15.088  0.00  0.00    +0.000 N 
ATOM      9  C   UNL     1       5.559   4.692  14.934  0.00  0.00    +0.000 A 
ATOM     10  N   UNL     1       4.776   4.297  15.882  0.00  0.00    +0.000 NA
ATOM     11  N   UNL     1       5.105   4.757  17.113  0.00  0.00    +0.000 N 
ATOM     12  C   UNL     1       4.444   4.488  18.289  0.00  0.00    +0.000 A 
ATOM     13  C   UNL     1       5.110   5.165  19.302  0.00  0.00    +0.000 A 
ATOM     14  C   UNL     1       6.191   5.862  18.723  0.00  0.00    +0.000 A 
ATOM     15  C   UNL     1       6.162   5.590  17.372  0.00  0.00    +0.000 A 
ATOM     16  H   UNL     1       7.205   5.798  14.302  0.00  0.00    +0.000 HD
ENDBRANCH   1  12
BRANCH   4  17
ATOM     17  O   UNL     1       1.224   1.457  18.512  0.00  0.00    +0.000 OA
ATOM     18  H   UNL     1       1.122   0.500  18.671  0.00  0.00    +0.000 HD
ENDBRANCH   4  17
BRANCH   5  19
ATOM     19  O   UNL     1       3.830   1.272  18.171  0.00  0.00    +0.000 OA
ATOM     20  H   UNL     1       3.386   0.450  18.465  0.00  0.00    +0.000 HD
ENDBRANCH   5  19
BRANCH   3  21
ATOM     21  C   UNL     1       1.736   3.749  21.443  0.00  0.00    +0.000 C 
BRANCH  21  22
ATOM     22  O   UNL     1       1.711   2.555  22.223  0.00  0.00    +0.000 OA
ATOM     23  H   UNL     1       1.123   1.941  21.738  0.00  0.00    +0.000 HD
ENDBRANCH  21  22
ENDBRANCH   3  21
TORSDOF 5
ENDMDL
MODEL 7
REMARK VINA RESULT:      -7.1      1.478      2.248
REMARK  Name = 
REMARK  5 active torsions:
REMARK  status: ('A' for Active; 'I' for Inactive)
REMARK    1  A    between atoms: C_7  and  C_8
REMARK    2  A    between atoms: C_10  and  C_11
REMARK    3  A    between atoms: C_11  and  O_12
REMARK    4  A    between atoms: C_13  and  O_14
REMARK    5  A    between atoms: C_15  and  O_16
REMARK                            x       y       z     vdW  Elec       q    Type
REMARK                         _______ _______ _______ _____ _____    ______ ____
ROOT
ATOM      1  C   UNL     1       3.609   3.580  17.984  0.00  0.00    +0.000 C 
ATOM      2  O   UNL     1       2.186   3.621  17.770  0.00  0.00    +0.000 OA
ATOM      3  C   UNL     1       1.557   2.730  18.730  0.00  0.00    +0.000 C 
ATOM      4  C   UNL     1       2.681   2.004  19.466  0.00  0.00    +0.000 C 
ATOM      5  C   UNL     1       3.846   2.977  19.367  0.00  0.00    +0.000 C 
ENDROOT
BRANCH   1  12
ATOM      6  O   UNL     1       7.267   8.305  17.220  0.00  0.00    +0.000 OA
ATOM      7  C   UNL     1       6.999   7.133  17.465  0.00  0.00    +0.000 A 
ATOM      8  N   UNL     1       7.984   6.215  17.715  0.00  0.00    +0.000 N 
ATOM      9  C   UNL     1       7.713   4.901  17.971  0.00  0.00    +0.000 A 
ATOM     10  N   UNL     1       6.535   4.372  18.010  0.00  0.00    +0.000 NA
ATOM     11  N   UNL     1       5.520   5.241  17.785  0.00  0.00    +0.000 N 
ATOM     12  C   UNL     1       4.177   4.943  17.773  0.00  0.00    +0.000 A 
ATOM     13  C   UNL     1       3.494   6.120  17.496  0.00  0.00    +0.000 A 
ATOM     14  C   UNL     1       4.447   7.148  17.331  0.00  0.00    +0.000 A 
ATOM     15  C   UNL     1       5.686   6.575  17.516  0.00  0.00    +0.000 A 
ATOM     16  H   UNL     1       8.931   6.564  17.689  0.00  0.00    +0.000 HD
ENDBRANCH   1  12
BRANCH   4  17
ATOM     17  O   UNL     1       3.053   0.784  18.791  0.00  0.00    +0.000 OA
ATOM     18  H   UNL     1       2.964   0.920  17.829  0.00  0.00    +0.000 HD
ENDBRANCH   4  17
BRANCH   5  19
ATOM     19  O   UNL     1       5.098   2.299  19.473  0.00  0.00    +0.000 OA
ATOM     20  H   UNL     1       5.738   2.966  19.796  0.00  0.00    +0.000 HD
ENDBRANCH   5  19
BRANCH   3  21
ATOM     21  C   UNL     1       0.668   3.551  19.663  0.00  0.00    +0.000 C 
BRANCH  21  22
ATOM     22  O   UNL     1       0.703   2.997  20.977  0.00  0.00    +0.000 OA
ATOM     23  H   UNL     1       1.095   3.694  21.541  0.00  0.00    +0.000 HD
ENDBRANCH  21  22
ENDBRANCH   3  21
TORSDOF 5
ENDMDL
MODEL 8
REMARK VINA RESULT:      -7.1      2.068      2.629
REMARK  Name = 
REMARK  5 active torsions:
REMARK  status: ('A' for Active; 'I' for Inactive)
REMARK    1  A    between atoms: C_7  and  C_8
REMARK    2  A    between atoms: C_10  and  C_11
REMARK    3  A    between atoms: C_11  and  O_12
REMARK    4  A    between atoms: C_13  and  O_14
REMARK    5  A    between atoms: C_15  and  O_16
REMARK                            x       y       z     vdW  Elec       q    Type
REMARK                         _______ _______ _______ _____ _____    ______ ____
ROOT
ATOM      1  C   UNL     1       4.763   4.473  19.717  0.00  0.00    +0.000 C 
ATOM      2  O   UNL     1       4.756   3.034  19.776  0.00  0.00    +0.000 OA
ATOM      3  C   UNL     1       3.383   2.593  19.957  0.00  0.00    +0.000 C 
ATOM      4  C   UNL     1       2.537   3.848  20.164  0.00  0.00    +0.000 C 
ATOM      5  C   UNL     1       3.331   4.926  19.440  0.00  0.00    +0.000 C 
ENDROOT
BRANCH   1  12
ATOM      6  O   UNL     1       7.882   5.588  14.686  0.00  0.00    +0.000 OA
ATOM      7  C   UNL     1       6.977   5.089  15.346  0.00  0.00    +0.000 A 
ATOM      8  N   UNL     1       6.006   4.320  14.759  0.00  0.00    +0.000 N 
ATOM      9  C   UNL     1       4.979   3.769  15.469  0.00  0.00    +0.000 A 
ATOM     10  N   UNL     1       4.795   3.894  16.742  0.00  0.00    +0.000 NA
ATOM     11  N   UNL     1       5.737   4.632  17.377  0.00  0.00    +0.000 N 
ATOM     12  C   UNL     1       5.781   4.918  18.723  0.00  0.00    +0.000 A 
ATOM     13  C   UNL     1       6.904   5.705  18.942  0.00  0.00    +0.000 A 
ATOM     14  C   UNL     1       7.546   5.904  17.700  0.00  0.00    +0.000 A 
ATOM     15  C   UNL     1       6.802   5.230  16.756  0.00  0.00    +0.000 A 
ATOM     16  H   UNL     1       6.088   4.192  13.761  0.00  0.00    +0.000 HD
ENDBRANCH   1  12
BRANCH   4  17
ATOM     17  O   UNL     1       2.457   4.208  21.559  0.00  0.00    +0.000 OA
ATOM     18  H   UNL     1       1.947   5.036  21.639  0.00  0.00    +0.000 HD
ENDBRANCH   4  17
BRANCH   5  19
ATOM     19  O   UNL     1       3.044   6.222  19.965  0.00  0.00    +0.000 OA
ATOM     20  H   UNL     1       3.852   6.502  20.443  0.00  0.00    +0.000 HD
ENDBRANCH   5  19
BRANCH   3  21
ATOM     21  C   UNL     1       2.954   1.782  18.735  0.00  0.00    +0.000 C 
BRANCH  21  22
ATOM     22  O   UNL     1       4.104   1.254  18.077  0.00  0.00    +0.000 OA
ATOM     23  H   UNL     1       4.156   1.731  17.224  0.00  0.00    +0.000 HD
ENDBRANCH  21  22
ENDBRANCH   3  21
TORSDOF 5
ENDMDL
MODEL 9
REMARK VINA RESULT:      -7.0      2.487      6.120
REMARK  Name = 
REMARK  5 active torsions:
REMARK  status: ('A' for Active; 'I' for Inactive)
REMARK    1  A    between atoms: C_7  and  C_8
REMARK    2  A    between atoms: C_10  and  C_11
REMARK    3  A    between atoms: C_11  and  O_12
REMARK    4  A    between atoms: C_13  and  O_14
REMARK    5  A    between atoms: C_15  and  O_16
REMARK                            x       y       z     vdW  Elec       q    Type
REMARK                         _______ _______ _______ _____ _____    ______ ____
ROOT
ATOM      1  C   UNL     1       5.771   4.572  18.462  0.00  0.00    +0.000 C 
ATOM      2  O   UNL     1       6.491   5.711  18.969  0.00  0.00    +0.000 OA
ATOM      3  C   UNL     1       7.390   6.179  17.928  0.00  0.00    +0.000 C 
ATOM      4  C   UNL     1       7.307   5.172  16.782  0.00  0.00    +0.000 C 
ATOM      5  C   UNL     1       5.915   4.579  16.941  0.00  0.00    +0.000 C 
ENDROOT
BRANCH   1  12
ATOM      6  O   UNL     1       0.137   3.208  20.101  0.00  0.00    +0.000 OA
ATOM      7  C   UNL     1       1.226   2.994  19.580  0.00  0.00    +0.000 A 
ATOM      8  N   UNL     1       1.514   1.788  18.998  0.00  0.00    +0.000 N 
ATOM      9  C   UNL     1       2.726   1.520  18.428  0.00  0.00    +0.000 A 
ATOM     10  N   UNL     1       3.722   2.339  18.364  0.00  0.00    +0.000 NA
ATOM     11  N   UNL     1       3.486   3.557  18.911  0.00  0.00    +0.000 N 
ATOM     12  C   UNL     1       4.371   4.609  18.974  0.00  0.00    +0.000 A 
ATOM     13  C   UNL     1       3.724   5.655  19.620  0.00  0.00    +0.000 A 
ATOM     14  C   UNL     1       2.425   5.220  19.960  0.00  0.00    +0.000 A 
ATOM     15  C   UNL     1       2.309   3.923  19.509  0.00  0.00    +0.000 A 
ATOM     16  H   UNL     1       0.778   1.098  19.024  0.00  0.00    +0.000 HD
ENDBRANCH   1  12
BRANCH   4  17
ATOM     17  O   UNL     1       8.271   4.110  16.940  0.00  0.00    +0.000 OA
ATOM     18  H   UNL     1       7.842   3.263  16.716  0.00  0.00    +0.000 HD
ENDBRANCH   4  17
BRANCH   5  19
ATOM     19  O   UNL     1       5.839   3.274  16.368  0.00  0.00    +0.000 OA
ATOM     20  H   UNL     1       5.598   3.407  15.428  0.00  0.00    +0.000 HD
ENDBRANCH   5  19
BRANCH   3  21
ATOM     21  C   UNL     1       6.978   7.590  17.510  0.00  0.00    +0.000 C 
BRANCH  21  22
ATOM     22  O   UNL     1       8.039   8.504  17.780  0.00  0.00    +0.000 OA
ATOM     23  H   UNL     1       8.244   8.924  16.920  0.00  0.00    +0.000 HD
ENDBRANCH  21  22
ENDBRANCH   3  21
TORSDOF 5
ENDMDL
