MODEL 1
REMARK VINA RESULT:      -6.9      0.000      0.000
REMARK  Name = 
REMARK  10 active torsions:
REMARK  status: ('A' for Active; 'I' for Inactive)
REMARK    1  A    between atoms: C_1  and  C_2
REMARK    2  A    between atoms: C_2  and  C_3
REMARK    3  A    between atoms: C_2  and  C_4
REMARK    4  A    between atoms: C_2  and  O_5
REMARK    5  A    between atoms: O_5  and  C_6
REMARK    6  A    between atoms: C_6  and  C_8
REMARK    7  A    between atoms: C_13  and  C_14
REMARK    8  A    between atoms: C_14  and  O_16
REMARK    9  A    between atoms: C_17  and  C_18
REMARK   10  A    between atoms: C_17  and  C_19
REMARK                            x       y       z     vdW  Elec       q    Type
REMARK                         _______ _______ _______ _____ _____    ______ ____
ROOT
ATOM      1  C   UNL     1       4.823   4.443  16.390  0.00  0.00    +0.000 C 
ATOM      2  C   UNL     1       4.455   3.825  17.514  0.00  0.00    +0.000 C 
ATOM      3  C   UNL     1       3.992   2.496  17.879  0.00  0.00    +0.000 C 
ATOM      4  O   UNL     1       3.669   1.504  17.272  0.00  0.00    +0.000 OA
ATOM      5  N   UNL     1       3.833   2.846  19.193  0.00  0.00    +0.000 N 
ATOM      6  C   UNL     1       2.549   2.632  19.894  0.00  0.00    +0.000 C 
ATOM      7  C   UNL     1       1.577   3.737  19.421  0.00  0.00    +0.000 C 
ATOM      8  C   UNL     1       0.388   4.048  20.338  0.00  0.00    +0.000 C 
ATOM      9  C   UNL     1       0.969   3.404  18.038  0.00  0.00    +0.000 C 
ATOM     10  S   UNL     1       2.690   5.171  19.296  0.00  0.00    +0.000 S 
ATOM     11  O   UNL     1       2.290   5.963  18.147  0.00  0.00    +0.000 OA
ATOM     12  O   UNL     1       2.795   5.775  20.609  0.00  0.00    +0.000 OA
ATOM     13  C   UNL     1       4.228   4.256  18.947  0.00  0.00    +0.000 C 
ENDROOT
BRANCH   1  14
ATOM     14  C   UNL     1       5.219   5.852  16.558  0.00  0.00    +0.000 C 
ATOM     15  O   UNL     1       5.050   6.677  15.672  0.00  0.00    +0.000 OA
BRANCH  14  16
ATOM     16  O   UNL     1       5.763   6.057  17.776  0.00  0.00    +0.000 OA
BRANCH  16  18
ATOM     17  C   UNL     1       7.807   7.407  17.499  0.00  0.00    +0.000 C 
ATOM     18  C   UNL     1       7.220   6.039  17.879  0.00  0.00    +0.000 C 
ATOM     19  C   UNL     1       7.832   4.898  17.051  0.00  0.00    +0.000 C 
ATOM     20  C   UNL     1       7.546   5.779  19.358  0.00  0.00    +0.000 C 
ENDBRANCH  16  18
ENDBRANCH  14  16
ENDBRANCH   1  14
BRANCH   6  21
ATOM     21  C   UNL     1       2.867   2.619  21.402  0.00  0.00    +0.000 C 
ATOM     22  O   UNL     1       2.130   3.041  22.277  0.00  0.00    +0.000 OA
BRANCH  21  23
ATOM     23  O   UNL     1       4.014   1.957  21.705  0.00  0.00    +0.000 OA
ATOM     24  H   UNL     1       4.714   2.559  22.034  0.00  0.00    +0.000 HD
ENDBRANCH  21  23
ENDBRANCH   6  21
TORSDOF 5
ENDMDL
MODEL 2
REMARK VINA RESULT:      -6.9      1.992      3.419
REMARK  Name = 
REMARK  10 active torsions:
REMARK  status: ('A' for Active; 'I' for Inactive)
REMARK    1  A    between atoms: C_1  and  C_2
REMARK    2  A    between atoms: C_2  and  C_3
REMARK    3  A    between atoms: C_2  and  C_4
REMARK    4  A    between atoms: C_2  and  O_5
REMARK    5  A    between atoms: O_5  and  C_6
REMARK    6  A    between atoms: C_6  and  C_8
REMARK    7  A    between atoms: C_13  and  C_14
REMARK    8  A    between atoms: C_14  and  O_16
REMARK    9  A    between atoms: C_17  and  C_18
REMARK   10  A    between atoms: C_17  and  C_19
REMARK                            x       y       z     vdW  Elec       q    Type
REMARK                         _______ _______ _______ _____ _____    ______ ____
ROOT
ATOM      1  C   UNL     1       4.696   6.959  17.288  0.00  0.00    +0.000 C 
ATOM      2  C   UNL     1       3.728   6.058  17.470  0.00  0.00    +0.000 C 
ATOM      3  C   UNL     1       2.326   6.085  17.853  0.00  0.00    +0.000 C 
ATOM      4  O   UNL     1       1.562   6.931  18.252  0.00  0.00    +0.000 OA
ATOM      5  N   UNL     1       2.226   4.720  17.812  0.00  0.00    +0.000 N 
ATOM      6  C   UNL     1       1.717   3.953  18.970  0.00  0.00    +0.000 C 
ATOM      7  C   UNL     1       2.852   3.897  20.018  0.00  0.00    +0.000 C 
ATOM      8  C   UNL     1       2.776   2.771  21.056  0.00  0.00    +0.000 C 
ATOM      9  C   UNL     1       2.942   5.213  20.828  0.00  0.00    +0.000 C 
ATOM     10  S   UNL     1       4.318   3.704  18.958  0.00  0.00    +0.000 S 
ATOM     11  O   UNL     1       5.409   4.463  19.541  0.00  0.00    +0.000 OA
ATOM     12  O   UNL     1       4.474   2.294  18.661  0.00  0.00    +0.000 OA
ATOM     13  C   UNL     1       3.662   4.545  17.479  0.00  0.00    +0.000 C 
ENDROOT
BRANCH   1  14
ATOM     14  C   UNL     1       5.998   6.398  16.890  0.00  0.00    +0.000 C 
ATOM     15  O   UNL     1       6.857   6.119  17.715  0.00  0.00    +0.000 OA
BRANCH  14  16
ATOM     16  O   UNL     1       6.072   6.254  15.550  0.00  0.00    +0.000 OA
BRANCH  16  18
ATOM     17  C   UNL     1       7.082   4.093  16.168  0.00  0.00    +0.000 C 
ATOM     18  C   UNL     1       6.544   4.974  15.031  0.00  0.00    +0.000 C 
ATOM     19  C   UNL     1       7.579   5.164  13.909  0.00  0.00    +0.000 C 
ATOM     20  C   UNL     1       5.317   4.272  14.429  0.00  0.00    +0.000 C 
ENDBRANCH  16  18
ENDBRANCH  14  16
ENDBRANCH   1  14
BRANCH   6  21
ATOM     21  C   UNL     1       1.241   2.593  18.423  0.00  0.00    +0.000 C 
ATOM     22  O   UNL     1       0.217   2.023  18.759  0.00  0.00    +0.000 OA
BRANCH  21  23
ATOM     23  O   UNL     1       2.009   2.124  17.405  0.00  0.00    +0.000 OA
ATOM     24  H   UNL     1       2.335   1.216  17.575  0.00  0.00    +0.000 HD
ENDBRANCH  21  23
ENDBRANCH   6  21
TORSDOF 5
ENDMDL
MODEL 3
REMARK VINA RESULT:      -6.7      2.034      3.205
REMARK  Name = 
REMARK  10 active torsions:
REMARK  status: ('A' for Active; 'I' for Inactive)
REMARK    1  A    between atoms: C_1  and  C_2
REMARK    2  A    between atoms: C_2  and  C_3
REMARK    3  A    between atoms: C_2  and  C_4
REMARK    4  A    between atoms: C_2  and  O_5
REMARK    5  A    between atoms: O_5  and  C_6
REMARK    6  A    between atoms: C_6  and  C_8
REMARK    7  A    between atoms: C_13  and  C_14
REMARK    8  A    between atoms: C_14  and  O_16
REMARK    9  A    between atoms: C_17  and  C_18
REMARK   10  A    between atoms: C_17  and  C_19
REMARK                            x       y       z     vdW  Elec       q    Type
REMARK                         _______ _______ _______ _____ _____    ______ ____
ROOT
ATOM      1  C   UNL     1       5.897   5.797  16.749  0.00  0.00    +0.000 C 
ATOM      2  C   UNL     1       5.081   5.680  17.799  0.00  0.00    +0.000 C 
ATOM      3  C   UNL     1       5.226   5.374  19.213  0.00  0.00    +0.000 C 
ATOM      4  O   UNL     1       6.133   5.009  19.923  0.00  0.00    +0.000 OA
ATOM      5  N   UNL     1       3.876   5.435  19.427  0.00  0.00    +0.000 N 
ATOM      6  C   UNL     1       3.149   4.315  20.064  0.00  0.00    +0.000 C 
ATOM      7  C   UNL     1       2.989   3.207  18.998  0.00  0.00    +0.000 C 
ATOM      8  C   UNL     1       1.867   2.188  19.228  0.00  0.00    +0.000 C 
ATOM      9  C   UNL     1       4.286   2.379  18.841  0.00  0.00    +0.000 C 
ATOM     10  S   UNL     1       2.676   4.187  17.497  0.00  0.00    +0.000 S 
ATOM     11  O   UNL     1       3.335   3.537  16.379  0.00  0.00    +0.000 OA
ATOM     12  O   UNL     1       1.260   4.491  17.446  0.00  0.00    +0.000 OA
ATOM     13  C   UNL     1       3.580   5.690  17.995  0.00  0.00    +0.000 C 
ENDROOT
BRANCH   1  14
ATOM     14  C   UNL     1       5.228   6.129  15.479  0.00  0.00    +0.000 C 
ATOM     15  O   UNL     1       4.946   7.282  15.185  0.00  0.00    +0.000 OA
BRANCH  14  16
ATOM     16  O   UNL     1       4.999   5.017  14.749  0.00  0.00    +0.000 OA
BRANCH  16  18
ATOM     17  C   UNL     1       7.330   5.268  13.987  0.00  0.00    +0.000 C 
ATOM     18  C   UNL     1       6.158   4.303  14.222  0.00  0.00    +0.000 C 
ATOM     19  C   UNL     1       5.804   3.507  12.955  0.00  0.00    +0.000 C 
ATOM     20  C   UNL     1       6.580   3.301  15.307  0.00  0.00    +0.000 C 
ENDBRANCH  16  18
ENDBRANCH  14  16
ENDBRANCH   1  14
BRANCH   6  21
ATOM     21  C   UNL     1       1.838   4.903  20.623  0.00  0.00    +0.000 C 
ATOM     22  O   UNL     1       0.803   4.278  20.783  0.00  0.00    +0.000 OA
BRANCH  21  23
ATOM     23  O   UNL     1       1.965   6.182  21.062  0.00  0.00    +0.000 OA
ATOM     24  H   UNL     1       1.175   6.484  21.557  0.00  0.00    +0.000 HD
ENDBRANCH  21  23
ENDBRANCH   6  21
TORSDOF 5
ENDMDL
MODEL 4
REMARK VINA RESULT:      -6.7      2.033      3.411
REMARK  Name = 
REMARK  10 active torsions:
REMARK  status: ('A' for Active; 'I' for Inactive)
REMARK    1  A    between atoms: C_1  and  C_2
REMARK    2  A    between atoms: C_2  and  C_3
REMARK    3  A    between atoms: C_2  and  C_4
REMARK    4  A    between atoms: C_2  and  O_5
REMARK    5  A    between atoms: O_5  and  C_6
REMARK    6  A    between atoms: C_6  and  C_8
REMARK    7  A    between atoms: C_13  and  C_14
REMARK    8  A    between atoms: C_14  and  O_16
REMARK    9  A    between atoms: C_17  and  C_18
REMARK   10  A    between atoms: C_17  and  C_19
REMARK                            x       y       z     vdW  Elec       q    Type
REMARK                         _______ _______ _______ _____ _____    ______ ____
ROOT
ATOM      1  C   UNL     1       5.359   6.241  17.569  0.00  0.00    +0.000 C 
ATOM      2  C   UNL     1       4.245   5.514  17.672  0.00  0.00    +0.000 C 
ATOM      3  C   UNL     1       2.831   5.780  17.879  0.00  0.00    +0.000 C 
ATOM      4  O   UNL     1       2.172   6.758  18.142  0.00  0.00    +0.000 OA
ATOM      5  N   UNL     1       2.519   4.448  17.890  0.00  0.00    +0.000 N 
ATOM      6  C   UNL     1       1.765   3.845  19.011  0.00  0.00    +0.000 C 
ATOM      7  C   UNL     1       2.750   3.684  20.191  0.00  0.00    +0.000 C 
ATOM      8  C   UNL     1       2.378   2.652  21.263  0.00  0.00    +0.000 C 
ATOM      9  C   UNL     1       2.958   5.019  20.944  0.00  0.00    +0.000 C 
ATOM     10  S   UNL     1       4.277   3.199  19.328  0.00  0.00    +0.000 S 
ATOM     11  O   UNL     1       5.403   3.817  20.005  0.00  0.00    +0.000 OA
ATOM     12  O   UNL     1       4.238   1.765  19.118  0.00  0.00    +0.000 OA
ATOM     13  C   UNL     1       3.936   4.033  17.743  0.00  0.00    +0.000 C 
ENDROOT
BRANCH   1  14
ATOM     14  C   UNL     1       6.591   5.462  17.359  0.00  0.00    +0.000 C 
ATOM     15  O   UNL     1       7.020   4.697  18.211  0.00  0.00    +0.000 OA
BRANCH  14  16
ATOM     16  O   UNL     1       7.126   5.722  16.148  0.00  0.00    +0.000 OA
BRANCH  16  18
ATOM     17  C   UNL     1       5.301   5.700  14.490  0.00  0.00    +0.000 C 
ATOM     18  C   UNL     1       6.577   5.009  14.998  0.00  0.00    +0.000 C 
ATOM     19  C   UNL     1       6.341   3.523  15.313  0.00  0.00    +0.000 C 
ATOM     20  C   UNL     1       7.636   5.096  13.888  0.00  0.00    +0.000 C 
ENDBRANCH  16  18
ENDBRANCH  14  16
ENDBRANCH   1  14
BRANCH   6  21
ATOM     21  C   UNL     1       1.143   2.541  18.473  0.00  0.00    +0.000 C 
ATOM     22  O   UNL     1       0.036   2.122  18.765  0.00  0.00    +0.000 OA
BRANCH  21  23
ATOM     23  O   UNL     1       1.894   1.943  17.512  0.00  0.00    +0.000 OA
ATOM     24  H   UNL     1       1.947   0.972  17.634  0.00  0.00    +0.000 HD
ENDBRANCH  21  23
ENDBRANCH   6  21
TORSDOF 5
ENDMDL
MODEL 5
REMARK VINA RESULT:      -6.6      2.184      6.005
REMARK  Name = 
REMARK  10 active torsions:
REMARK  status: ('A' for Active; 'I' for Inactive)
REMARK    1  A    between atoms: C_1  and  C_2
REMARK    2  A    between atoms: C_2  and  C_3
REMARK    3  A    between atoms: C_2  and  C_4
REMARK    4  A    between atoms: C_2  and  O_5
REMARK    5  A    between atoms: O_5  and  C_6
REMARK    6  A    between atoms: C_6  and  C_8
REMARK    7  A    between atoms: C_13  and  C_14
REMARK    8  A    between atoms: C_14  and  O_16
REMARK    9  A    between atoms: C_17  and  C_18
REMARK   10  A    between atoms: C_17  and  C_19
REMARK                            x       y       z     vdW  Elec       q    Type
REMARK                         _______ _______ _______ _____ _____    ______ ____
ROOT
ATOM      1  C   UNL     1       2.570   4.435  17.960  0.00  0.00    +0.000 C 
ATOM      2  C   UNL     1       3.606   5.277  17.972  0.00  0.00    +0.000 C 
ATOM      3  C   UNL     1       3.847   6.652  17.568  0.00  0.00    +0.000 C 
ATOM      4  O   UNL     1       3.218   7.494  16.972  0.00  0.00    +0.000 OA
ATOM      5  N   UNL     1       5.169   6.588  17.917  0.00  0.00    +0.000 N 
ATOM      6  C   UNL     1       6.235   6.944  16.957  0.00  0.00    +0.000 C 
ATOM      7  C   UNL     1       6.378   5.763  15.970  0.00  0.00    +0.000 C 
ATOM      8  C   UNL     1       7.709   5.652  15.216  0.00  0.00    +0.000 C 
ATOM      9  C   UNL     1       5.278   5.795  14.883  0.00  0.00    +0.000 C 
ATOM     10  S   UNL     1       6.138   4.336  17.073  0.00  0.00    +0.000 S 
ATOM     11  O   UNL     1       5.395   3.319  16.352  0.00  0.00    +0.000 OA
ATOM     12  O   UNL     1       7.412   4.024  17.688  0.00  0.00    +0.000 OA
ATOM     13  C   UNL     1       5.078   5.158  18.308  0.00  0.00    +0.000 C 
ENDROOT
BRANCH   1  14
ATOM     14  C   UNL     1       2.855   3.095  18.500  0.00  0.00    +0.000 C 
ATOM     15  O   UNL     1       2.909   2.110  17.777  0.00  0.00    +0.000 OA
BRANCH  14  16
ATOM     16  O   UNL     1       3.033   3.141  19.837  0.00  0.00    +0.000 OA
BRANCH  16  18
ATOM     17  C   UNL     1       0.572   3.077  19.946  0.00  0.00    +0.000 C 
ATOM     18  C   UNL     1       1.874   3.462  20.664  0.00  0.00    +0.000 C 
ATOM     19  C   UNL     1       1.879   4.938  21.097  0.00  0.00    +0.000 C 
ATOM     20  C   UNL     1       1.991   2.598  21.929  0.00  0.00    +0.000 C 
ENDBRANCH  16  18
ENDBRANCH  14  16
ENDBRANCH   1  14
BRANCH   6  21
ATOM     21  C   UNL     1       7.488   7.276  17.792  0.00  0.00    +0.000 C 
ATOM     22  O   UNL     1       7.933   6.583  18.690  0.00  0.00    +0.000 OA
BRANCH  21  23
ATOM     23  O   UNL     1       8.157   8.371  17.347  0.00  0.00    +0.000 OA
ATOM     24  H   UNL     1       9.128   8.243  17.361  0.00  0.00    +0.000 HD
ENDBRANCH  21  23
ENDBRANCH   6  21
TORSDOF 5
ENDMDL
MODEL 6
REMARK VINA RESULT:      -6.6      2.179      5.965
REMARK  Name = 
REMARK  10 active torsions:
REMARK  status: ('A' for Active; 'I' for Inactive)
REMARK    1  A    between atoms: C_1  and  C_2
REMARK    2  A    between atoms: C_2  and  C_3
REMARK    3  A    between atoms: C_2  and  C_4
REMARK    4  A    between atoms: C_2  and  O_5
REMARK    5  A    between atoms: O_5  and  C_6
REMARK    6  A    between atoms: C_6  and  C_8
REMARK    7  A    between atoms: C_13  and  C_14
REMARK    8  A    between atoms: C_14  and  O_16
REMARK    9  A    between atoms: C_17  and  C_18
REMARK   10  A    between atoms: C_17  and  C_19
REMARK                            x       y       z     vdW  Elec       q    Type
REMARK                         _______ _______ _______ _____ _____    ______ ____
ROOT
ATOM      1  C   UNL     1       2.504   4.537  17.916  0.00  0.00    +0.000 C 
ATOM      2  C   UNL     1       3.565   5.347  17.961  0.00  0.00    +0.000 C 
ATOM      3  C   UNL     1       3.854   6.722  17.589  0.00  0.00    +0.000 C 
ATOM      4  O   UNL     1       3.260   7.594  17.002  0.00  0.00    +0.000 OA
ATOM      5  N   UNL     1       5.168   6.609  17.956  0.00  0.00    +0.000 N 
ATOM      6  C   UNL     1       6.258   6.953  17.017  0.00  0.00    +0.000 C 
ATOM      7  C   UNL     1       6.380   5.788  16.008  0.00  0.00    +0.000 C 
ATOM      8  C   UNL     1       7.717   5.652  15.271  0.00  0.00    +0.000 C 
ATOM      9  C   UNL     1       5.297   5.877  14.907  0.00  0.00    +0.000 C 
ATOM     10  S   UNL     1       6.079   4.347  17.077  0.00  0.00    +0.000 S 
ATOM     11  O   UNL     1       5.316   3.368  16.324  0.00  0.00    +0.000 OA
ATOM     12  O   UNL     1       7.335   3.982  17.703  0.00  0.00    +0.000 OA
ATOM     13  C   UNL     1       5.027   5.176  18.314  0.00  0.00    +0.000 C 
ENDROOT
BRANCH   1  14
ATOM     14  C   UNL     1       2.739   3.178  18.431  0.00  0.00    +0.000 C 
ATOM     15  O   UNL     1       2.701   2.199  17.700  0.00  0.00    +0.000 OA
BRANCH  14  16
ATOM     16  O   UNL     1       2.988   3.201  19.758  0.00  0.00    +0.000 OA
BRANCH  16  18
ATOM     17  C   UNL     1       1.992   2.494  21.899  0.00  0.00    +0.000 C 
ATOM     18  C   UNL     1       1.852   3.388  20.657  0.00  0.00    +0.000 C 
ATOM     19  C   UNL     1       0.515   3.164  19.933  0.00  0.00    +0.000 C 
ATOM     20  C   UNL     1       1.902   4.852  21.119  0.00  0.00    +0.000 C 
ENDBRANCH  16  18
ENDBRANCH  14  16
ENDBRANCH   1  14
BRANCH   6  21
ATOM     21  C   UNL     1       7.508   7.228  17.877  0.00  0.00    +0.000 C 
ATOM     22  O   UNL     1       8.253   8.184  17.743  0.00  0.00    +0.000 OA
BRANCH  21  23
ATOM     23  O   UNL     1       7.646   6.367  18.918  0.00  0.00    +0.000 OA
ATOM     24  H   UNL     1       7.156   6.664  19.713  0.00  0.00    +0.000 HD
ENDBRANCH  21  23
ENDBRANCH   6  21
TORSDOF 5
ENDMDL
MODEL 7
REMARK VINA RESULT:      -6.5      2.654      4.111
REMARK  Name = 
REMARK  10 active torsions:
REMARK  status: ('A' for Active; 'I' for Inactive)
REMARK    1  A    between atoms: C_1  and  C_2
REMARK    2  A    between atoms: C_2  and  C_3
REMARK    3  A    between atoms: C_2  and  C_4
REMARK    4  A    between atoms: C_2  and  O_5
REMARK    5  A    between atoms: O_5  and  C_6
REMARK    6  A    between atoms: C_6  and  C_8
REMARK    7  A    between atoms: C_13  and  C_14
REMARK    8  A    between atoms: C_14  and  O_16
REMARK    9  A    between atoms: C_17  and  C_18
REMARK   10  A    between atoms: C_17  and  C_19
REMARK                            x       y       z     vdW  Elec       q    Type
REMARK                         _______ _______ _______ _____ _____    ______ ____
ROOT
ATOM      1  C   UNL     1       6.487   4.279  15.995  0.00  0.00    +0.000 C 
ATOM      2  C   UNL     1       5.812   4.808  17.019  0.00  0.00    +0.000 C 
ATOM      3  C   UNL     1       6.073   5.074  18.423  0.00  0.00    +0.000 C 
ATOM      4  O   UNL     1       6.963   4.809  19.196  0.00  0.00    +0.000 OA
ATOM      5  N   UNL     1       4.810   5.557  18.629  0.00  0.00    +0.000 N 
ATOM      6  C   UNL     1       3.946   5.016  19.701  0.00  0.00    +0.000 C 
ATOM      7  C   UNL     1       3.407   3.652  19.211  0.00  0.00    +0.000 C 
ATOM      8  C   UNL     1       2.130   3.135  19.884  0.00  0.00    +0.000 C 
ATOM      9  C   UNL     1       4.460   2.531  19.384  0.00  0.00    +0.000 C 
ATOM     10  S   UNL     1       3.121   3.986  17.446  0.00  0.00    +0.000 S 
ATOM     11  O   UNL     1       3.467   2.795  16.692  0.00  0.00    +0.000 OA
ATOM     12  O   UNL     1       1.811   4.592  17.310  0.00  0.00    +0.000 OA
ATOM     13  C   UNL     1       4.389   5.278  17.233  0.00  0.00    +0.000 C 
ENDROOT
BRANCH   1  14
ATOM     14  C   UNL     1       5.745   4.228  14.724  0.00  0.00    +0.000 C 
ATOM     15  O   UNL     1       4.850   5.021  14.470  0.00  0.00    +0.000 OA
BRANCH  14  16
ATOM     16  O   UNL     1       6.195   3.223  13.943  0.00  0.00    +0.000 OA
BRANCH  16  18
ATOM     17  C   UNL     1       7.133   4.624  12.144  0.00  0.00    +0.000 C 
ATOM     18  C   UNL     1       6.215   3.444  12.499  0.00  0.00    +0.000 C 
ATOM     19  C   UNL     1       4.796   3.628  11.936  0.00  0.00    +0.000 C 
ATOM     20  C   UNL     1       6.812   2.175  11.875  0.00  0.00    +0.000 C 
ENDBRANCH  16  18
ENDBRANCH  14  16
ENDBRANCH   1  14
BRANCH   6  21
ATOM     21  C   UNL     1       2.881   6.092  19.994  0.00  0.00    +0.000 C 
ATOM     22  O   UNL     1       2.557   6.982  19.227  0.00  0.00    +0.000 OA
BRANCH  21  23
ATOM     23  O   UNL     1       2.213   5.885  21.159  0.00  0.00    +0.000 OA
ATOM     24  H   UNL     1       2.314   4.968  21.487  0.00  0.00    +0.000 HD
ENDBRANCH  21  23
ENDBRANCH   6  21
TORSDOF 5
ENDMDL
MODEL 8
REMARK VINA RESULT:      -6.5      2.198      5.676
REMARK  Name = 
REMARK  10 active torsions:
REMARK  status: ('A' for Active; 'I' for Inactive)
REMARK    1  A    between atoms: C_1  and  C_2
REMARK    2  A    between atoms: C_2  and  C_3
REMARK    3  A    between atoms: C_2  and  C_4
REMARK    4  A    between atoms: C_2  and  O_5
REMARK    5  A    between atoms: O_5  and  C_6
REMARK    6  A    between atoms: C_6  and  C_8
REMARK    7  A    between atoms: C_13  and  C_14
REMARK    8  A    between atoms: C_14  and  O_16
REMARK    9  A    between atoms: C_17  and  C_18
REMARK   10  A    between atoms: C_17  and  C_19
REMARK                            x       y       z     vdW  Elec       q    Type
REMARK                         _______ _______ _______ _____ _____    ______ ____
ROOT
ATOM      1  C   UNL     1       1.959   4.992  17.769  0.00  0.00    +0.000 C 
ATOM      2  C   UNL     1       3.122   5.631  17.918  0.00  0.00    +0.000 C 
ATOM      3  C   UNL     1       3.645   6.949  17.598  0.00  0.00    +0.000 C 
ATOM      4  O   UNL     1       3.241   7.905  16.981  0.00  0.00    +0.000 OA
ATOM      5  N   UNL     1       4.890   6.636  18.071  0.00  0.00    +0.000 N 
ATOM      6  C   UNL     1       6.097   6.816  17.235  0.00  0.00    +0.000 C 
ATOM      7  C   UNL     1       6.127   5.653  16.217  0.00  0.00    +0.000 C 
ATOM      8  C   UNL     1       7.487   5.321  15.592  0.00  0.00    +0.000 C 
ATOM      9  C   UNL     1       5.169   5.912  15.031  0.00  0.00    +0.000 C 
ATOM     10  S   UNL     1       5.523   4.267  17.229  0.00  0.00    +0.000 S 
ATOM     11  O   UNL     1       4.689   3.420  16.397  0.00  0.00    +0.000 OA
ATOM     12  O   UNL     1       6.652   3.713  17.951  0.00  0.00    +0.000 OA
ATOM     13  C   UNL     1       4.506   5.238  18.389  0.00  0.00    +0.000 C 
ENDROOT
BRANCH   1  14
ATOM     14  C   UNL     1       1.942   3.609  18.276  0.00  0.00    +0.000 C 
ATOM     15  O   UNL     1       2.448   2.689  17.650  0.00  0.00    +0.000 OA
BRANCH  14  16
ATOM     16  O   UNL     1       1.316   3.541  19.470  0.00  0.00    +0.000 OA
BRANCH  16  18
ATOM     17  C   UNL     1       2.418   4.741  21.320  0.00  0.00    +0.000 C 
ATOM     18  C   UNL     1       2.145   3.380  20.662  0.00  0.00    +0.000 C 
ATOM     19  C   UNL     1       3.444   2.619  20.348  0.00  0.00    +0.000 C 
ATOM     20  C   UNL     1       1.327   2.533  21.648  0.00  0.00    +0.000 C 
ENDBRANCH  16  18
ENDBRANCH  14  16
ENDBRANCH   1  14
BRANCH   6  21
ATOM     21  C   UNL     1       7.295   6.894  18.201  0.00  0.00    +0.000 C 
ATOM     22  O   UNL     1       8.186   7.725  18.146  0.00  0.00    +0.000 OA
BRANCH  21  23
ATOM     23  O   UNL     1       7.210   6.019  19.236  0.00  0.00    +0.000 OA
ATOM     24  H   UNL     1       7.928   6.147  19.890  0.00  0.00    +0.000 HD
ENDBRANCH  21  23
ENDBRANCH   6  21
TORSDOF 5
ENDMDL
MODEL 9
REMARK VINA RESULT:      -6.4      2.622      4.042
REMARK  Name = 
REMARK  10 active torsions:
REMARK  status: ('A' for Active; 'I' for Inactive)
REMARK    1  A    between atoms: C_1  and  C_2
REMARK    2  A    between atoms: C_2  and  C_3
REMARK    3  A    between atoms: C_2  and  C_4
REMARK    4  A    between atoms: C_2  and  O_5
REMARK    5  A    between atoms: O_5  and  C_6
REMARK    6  A    between atoms: C_6  and  C_8
REMARK    7  A    between atoms: C_13  and  C_14
REMARK    8  A    between atoms: C_14  and  O_16
REMARK    9  A    between atoms: C_17  and  C_18
REMARK   10  A    between atoms: C_17  and  C_19
REMARK                            x       y       z     vdW  Elec       q    Type
REMARK                         _______ _______ _______ _____ _____    ______ ____
ROOT
ATOM      1  C   UNL     1       6.403   4.327  16.096  0.00  0.00    +0.000 C 
ATOM      2  C   UNL     1       5.651   4.794  17.096  0.00  0.00    +0.000 C 
ATOM      3  C   UNL     1       5.836   5.065  18.512  0.00  0.00    +0.000 C 
ATOM      4  O   UNL     1       6.713   4.861  19.316  0.00  0.00    +0.000 OA
ATOM      5  N   UNL     1       4.532   5.450  18.671  0.00  0.00    +0.000 N 
ATOM      6  C   UNL     1       3.671   4.835  19.704  0.00  0.00    +0.000 C 
ATOM      7  C   UNL     1       3.257   3.439  19.184  0.00  0.00    +0.000 C 
ATOM      8  C   UNL     1       1.997   2.820  19.803  0.00  0.00    +0.000 C 
ATOM      9  C   UNL     1       4.383   2.399  19.391  0.00  0.00    +0.000 C 
ATOM     10  S   UNL     1       3.014   3.767  17.412  0.00  0.00    +0.000 S 
ATOM     11  O   UNL     1       3.478   2.613  16.664  0.00  0.00    +0.000 OA
ATOM     12  O   UNL     1       1.669   4.275  17.228  0.00  0.00    +0.000 OA
ATOM     13  C   UNL     1       4.189   5.153  17.258  0.00  0.00    +0.000 C 
ENDROOT
BRANCH   1  14
ATOM     14  C   UNL     1       5.716   4.232  14.796  0.00  0.00    +0.000 C 
ATOM     15  O   UNL     1       4.792   4.977  14.503  0.00  0.00    +0.000 OA
BRANCH  14  16
ATOM     16  O   UNL     1       6.250   3.250  14.040  0.00  0.00    +0.000 OA
BRANCH  16  18
ATOM     17  C   UNL     1       4.827   3.725  12.083  0.00  0.00    +0.000 C 
ATOM     18  C   UNL     1       6.248   3.435  12.591  0.00  0.00    +0.000 C 
ATOM     19  C   UNL     1       6.886   2.238  11.867  0.00  0.00    +0.000 C 
ATOM     20  C   UNL     1       7.112   4.674  12.311  0.00  0.00    +0.000 C 
ENDBRANCH  16  18
ENDBRANCH  14  16
ENDBRANCH   1  14
BRANCH   6  21
ATOM     21  C   UNL     1       2.518   5.824  19.962  0.00  0.00    +0.000 C 
ATOM     22  O   UNL     1       1.764   5.786  20.920  0.00  0.00    +0.000 OA
BRANCH  21  23
ATOM     23  O   UNL     1       2.487   6.858  19.082  0.00  0.00    +0.000 OA
ATOM     24  H   UNL     1       1.886   6.685  18.328  0.00  0.00    +0.000 HD
ENDBRANCH  21  23
ENDBRANCH   6  21
TORSDOF 5
ENDMDL
