MODEL 1
REMARK VINA RESULT:      -8.1      0.000      0.000
REMARK  Name = 
REMARK  8 active torsions:
REMARK  status: ('A' for Active; 'I' for Inactive)
REMARK    1  A    between atoms: C_1  and  C_2
REMARK    2  A    between atoms: C_2  and  C_3
REMARK    3  A    between atoms: C_3  and  C_4
REMARK    4  A    between atoms: C_6  and  N_7
REMARK    5  A    between atoms: C_10  and  C_11
REMARK    6  A    between atoms: C_11  and  C_12
REMARK    7  A    between atoms: C_16  and  C_17
REMARK    8  A    between atoms: C_23  and  C_24
REMARK                            x       y       z     vdW  Elec       q    Type
REMARK                         _______ _______ _______ _____ _____    ______ ____
ROOT
ATOM      1  N   UNL     1       5.018   5.188  18.421  0.00  0.00    +0.000 N 
ATOM      2  C   UNL     1       6.348   5.413  18.981  0.00  0.00    +0.000 C 
ATOM      3  C   UNL     1       7.073   6.222  17.906  0.00  0.00    +0.000 C 
ATOM      4  C   UNL     1       6.411   5.800  16.593  0.00  0.00    +0.000 C 
ATOM      5  C   UNL     1       4.952   5.617  17.021  0.00  0.00    +0.000 C 
ENDROOT
BRANCH   1   8
ATOM      6  C   UNL     1       2.152   6.806  19.995  0.00  0.00    +0.000 A 
ATOM      7  C   UNL     1       3.274   6.625  19.215  0.00  0.00    +0.000 A 
ATOM      8  C   UNL     1       3.881   5.379  19.202  0.00  0.00    +0.000 A 
ATOM      9  N   UNL     1       3.356   4.367  19.917  0.00  0.00    +0.000 NA
ATOM     10  C   UNL     1       2.259   4.625  20.661  0.00  0.00    +0.000 A 
ATOM     11  C   UNL     1       1.691   3.519  21.497  0.00  0.00    +0.000 C 
ATOM     12  N   UNL     1       1.629   5.813  20.729  0.00  0.00    +0.000 NA
BRANCH   6  13
ATOM     13  C   UNL     1       1.460   8.146  20.008  0.00  0.00    +0.000 C 
BRANCH  13  15
ATOM     14  C   UNL     1       0.531   9.893  18.397  0.00  0.00    +0.000 C 
ATOM     15  C   UNL     1       1.703   8.986  18.753  0.00  0.00    +0.000 C 
ENDBRANCH  13  15
ENDBRANCH   6  13
ENDBRANCH   1   8
BRANCH   4  16
ATOM     16  C   UNL     1       7.012   4.518  15.985  0.00  0.00    +0.000 C 
BRANCH  16  17
ATOM     17  C   UNL     1       7.025   4.529  14.468  0.00  0.00    +0.000 A 
ATOM     18  C   UNL     1       7.842   5.422  13.767  0.00  0.00    +0.000 A 
ATOM     19  C   UNL     1       7.878   5.405  12.370  0.00  0.00    +0.000 A 
ATOM     20  C   UNL     1       7.098   4.492  11.654  0.00  0.00    +0.000 A 
ATOM     21  C   UNL     1       6.268   3.594  12.333  0.00  0.00    +0.000 A 
ATOM     22  C   UNL     1       6.226   3.633  13.737  0.00  0.00    +0.000 A 
BRANCH  21  23
ATOM     23  C   UNL     1       5.430   2.568  11.646  0.00  0.00    +0.000 C 
ATOM     24  N   UNL     1       5.939   1.314  11.461  0.00  0.00    +0.000 N 
ATOM     25  O   UNL     1       4.293   2.824  11.264  0.00  0.00    +0.000 OA
ATOM     26  H   UNL     1       6.840   0.994  11.777  0.00  0.00    +0.000 HD
ATOM     27  H   UNL     1       5.323   0.639  11.026  0.00  0.00    +0.000 HD
ENDBRANCH  21  23
ENDBRANCH  16  17
ENDBRANCH   4  16
TORSDOF 6
ENDMDL
MODEL 2
REMARK VINA RESULT:      -8.0      1.026      1.169
REMARK  Name = 
REMARK  8 active torsions:
REMARK  status: ('A' for Active; 'I' for Inactive)
REMARK    1  A    between atoms: C_1  and  C_2
REMARK    2  A    between atoms: C_2  and  C_3
REMARK    3  A    between atoms: C_3  and  C_4
REMARK    4  A    between atoms: C_6  and  N_7
REMARK    5  A    between atoms: C_10  and  C_11
REMARK    6  A    between atoms: C_11  and  C_12
REMARK    7  A    between atoms: C_16  and  C_17
REMARK    8  A    between atoms: C_23  and  C_24
REMARK                            x       y       z     vdW  Elec       q    Type
REMARK                         _______ _______ _______ _____ _____    ______ ____
ROOT
ATOM      1  N   UNL     1       4.767   4.738  18.195  0.00  0.00    +0.000 N 
ATOM      2  C   UNL     1       5.963   5.151  18.924  0.00  0.00    +0.000 C 
ATOM      3  C   UNL     1       6.640   6.156  17.992  0.00  0.00    +0.000 C 
ATOM      4  C   UNL     1       6.215   5.725  16.587  0.00  0.00    +0.000 C 
ATOM      5  C   UNL     1       4.777   5.254  16.823  0.00  0.00    +0.000 C 
ENDROOT
BRANCH   1   8
ATOM      6  C   UNL     1       1.909   5.638  20.277  0.00  0.00    +0.000 A 
ATOM      7  C   UNL     1       3.128   5.722  19.637  0.00  0.00    +0.000 A 
ATOM      8  C   UNL     1       3.535   4.664  18.840  0.00  0.00    +0.000 A 
ATOM      9  N   UNL     1       2.734   3.595  18.678  0.00  0.00    +0.000 NA
ATOM     10  C   UNL     1       1.557   3.584  19.343  0.00  0.00    +0.000 A 
ATOM     11  C   UNL     1       0.676   2.381  19.207  0.00  0.00    +0.000 C 
ATOM     12  N   UNL     1       1.108   4.571  20.141  0.00  0.00    +0.000 NA
BRANCH   6  13
ATOM     13  C   UNL     1       1.433   6.786  21.130  0.00  0.00    +0.000 C 
BRANCH  13  15
ATOM     14  C   UNL     1       0.605   9.198  21.053  0.00  0.00    +0.000 C 
ATOM     15  C   UNL     1       1.537   8.153  20.452  0.00  0.00    +0.000 C 
ENDBRANCH  13  15
ENDBRANCH   6  13
ENDBRANCH   1   8
BRANCH   4  16
ATOM     16  C   UNL     1       7.106   4.619  15.987  0.00  0.00    +0.000 C 
BRANCH  16  17
ATOM     17  C   UNL     1       7.093   4.603  14.470  0.00  0.00    +0.000 A 
ATOM     18  C   UNL     1       7.910   5.473  13.740  0.00  0.00    +0.000 A 
ATOM     19  C   UNL     1       7.922   5.431  12.343  0.00  0.00    +0.000 A 
ATOM     20  C   UNL     1       7.119   4.516  11.656  0.00  0.00    +0.000 A 
ATOM     21  C   UNL     1       6.288   3.642  12.365  0.00  0.00    +0.000 A 
ATOM     22  C   UNL     1       6.270   3.706  13.769  0.00  0.00    +0.000 A 
BRANCH  21  23
ATOM     23  C   UNL     1       5.425   2.616  11.710  0.00  0.00    +0.000 C 
ATOM     24  N   UNL     1       5.907   1.346  11.558  0.00  0.00    +0.000 N 
ATOM     25  O   UNL     1       4.292   2.884  11.327  0.00  0.00    +0.000 OA
ATOM     26  H   UNL     1       6.803   1.016  11.878  0.00  0.00    +0.000 HD
ATOM     27  H   UNL     1       5.275   0.672  11.144  0.00  0.00    +0.000 HD
ENDBRANCH  21  23
ENDBRANCH  16  17
ENDBRANCH   4  16
TORSDOF 6
ENDMDL
MODEL 3
REMARK VINA RESULT:      -7.7      1.159      2.813
REMARK  Name = 
REMARK  8 active torsions:
REMARK  status: ('A' for Active; 'I' for Inactive)
REMARK    1  A    between atoms: C_1  and  C_2
REMARK    2  A    between atoms: C_2  and  C_3
REMARK    3  A    between atoms: C_3  and  C_4
REMARK    4  A    between atoms: C_6  and  N_7
REMARK    5  A    between atoms: C_10  and  C_11
REMARK    6  A    between atoms: C_11  and  C_12
REMARK    7  A    between atoms: C_16  and  C_17
REMARK    8  A    between atoms: C_23  and  C_24
REMARK                            x       y       z     vdW  Elec       q    Type
REMARK                         _______ _______ _______ _____ _____    ______ ____
ROOT
ATOM      1  N   UNL     1       4.829   5.320  18.215  0.00  0.00    +0.000 N 
ATOM      2  C   UNL     1       6.116   5.617  18.839  0.00  0.00    +0.000 C 
ATOM      3  C   UNL     1       6.862   6.434  17.785  0.00  0.00    +0.000 C 
ATOM      4  C   UNL     1       6.291   5.954  16.449  0.00  0.00    +0.000 C 
ATOM      5  C   UNL     1       4.821   5.716  16.803  0.00  0.00    +0.000 C 
ENDROOT
BRANCH   1   8
ATOM      6  C   UNL     1       1.689   4.527  19.896  0.00  0.00    +0.000 A 
ATOM      7  C   UNL     1       2.864   4.362  19.193  0.00  0.00    +0.000 A 
ATOM      8  C   UNL     1       3.644   5.477  18.929  0.00  0.00    +0.000 A 
ATOM      9  N   UNL     1       3.267   6.685  19.384  0.00  0.00    +0.000 NA
ATOM     10  C   UNL     1       2.099   6.767  20.060  0.00  0.00    +0.000 A 
ATOM     11  C   UNL     1       1.645   8.115  20.532  0.00  0.00    +0.000 C 
ATOM     12  N   UNL     1       1.289   5.729  20.337  0.00  0.00    +0.000 NA
BRANCH   6  13
ATOM     13  C   UNL     1       0.835   3.326  20.215  0.00  0.00    +0.000 C 
BRANCH  13  15
ATOM     14  C   UNL     1       2.727   2.447  21.683  0.00  0.00    +0.000 C 
ATOM     15  C   UNL     1       1.223   2.611  21.510  0.00  0.00    +0.000 C 
ENDBRANCH  13  15
ENDBRANCH   6  13
ENDBRANCH   1   8
BRANCH   4  16
ATOM     16  C   UNL     1       6.979   4.687  15.905  0.00  0.00    +0.000 C 
BRANCH  16  17
ATOM     17  C   UNL     1       7.003   4.628  14.389  0.00  0.00    +0.000 A 
ATOM     18  C   UNL     1       7.875   5.441  13.656  0.00  0.00    +0.000 A 
ATOM     19  C   UNL     1       7.918   5.359  12.262  0.00  0.00    +0.000 A 
ATOM     20  C   UNL     1       7.094   4.459  11.580  0.00  0.00    +0.000 A 
ATOM     21  C   UNL     1       6.209   3.642  12.291  0.00  0.00    +0.000 A 
ATOM     22  C   UNL     1       6.160   3.747  13.692  0.00  0.00    +0.000 A 
BRANCH  21  23
ATOM     23  C   UNL     1       5.319   2.634  11.644  0.00  0.00    +0.000 C 
ATOM     24  N   UNL     1       4.051   3.002  11.289  0.00  0.00    +0.000 N 
ATOM     25  O   UNL     1       5.708   1.495  11.408  0.00  0.00    +0.000 OA
ATOM     26  H   UNL     1       3.655   3.921  11.398  0.00  0.00    +0.000 HD
ATOM     27  H   UNL     1       3.495   2.299  10.818  0.00  0.00    +0.000 HD
ENDBRANCH  21  23
ENDBRANCH  16  17
ENDBRANCH   4  16
TORSDOF 6
ENDMDL
MODEL 4
REMARK VINA RESULT:      -7.7      1.100      1.150
REMARK  Name = 
REMARK  8 active torsions:
REMARK  status: ('A' for Active; 'I' for Inactive)
REMARK    1  A    between atoms: C_1  and  C_2
REMARK    2  A    between atoms: C_2  and  C_3
REMARK    3  A    between atoms: C_3  and  C_4
REMARK    4  A    between atoms: C_6  and  N_7
REMARK    5  A    between atoms: C_10  and  C_11
REMARK    6  A    between atoms: C_11  and  C_12
REMARK    7  A    between atoms: C_16  and  C_17
REMARK    8  A    between atoms: C_23  and  C_24
REMARK                            x       y       z     vdW  Elec       q    Type
REMARK                         _______ _______ _______ _____ _____    ______ ____
ROOT
ATOM      1  N   UNL     1       4.813   4.919  18.526  0.00  0.00    +0.000 N 
ATOM      2  C   UNL     1       5.990   5.706  18.884  0.00  0.00    +0.000 C 
ATOM      3  C   UNL     1       6.285   6.527  17.629  0.00  0.00    +0.000 C 
ATOM      4  C   UNL     1       5.753   5.675  16.475  0.00  0.00    +0.000 C 
ATOM      5  C   UNL     1       4.502   5.048  17.098  0.00  0.00    +0.000 C 
ENDROOT
BRANCH   1   8
ATOM      6  C   UNL     1       1.887   5.809  20.515  0.00  0.00    +0.000 A 
ATOM      7  C   UNL     1       2.945   5.923  19.637  0.00  0.00    +0.000 A 
ATOM      8  C   UNL     1       3.739   4.812  19.406  0.00  0.00    +0.000 A 
ATOM      9  N   UNL     1       3.454   3.643  20.008  0.00  0.00    +0.000 NA
ATOM     10  C   UNL     1       2.405   3.613  20.859  0.00  0.00    +0.000 A 
ATOM     11  C   UNL     1       2.104   2.329  21.570  0.00  0.00    +0.000 C 
ATOM     12  N   UNL     1       1.603   4.657  21.138  0.00  0.00    +0.000 NA
BRANCH   6  13
ATOM     13  C   UNL     1       0.994   6.998  20.765  0.00  0.00    +0.000 C 
BRANCH  13  15
ATOM     14  C   UNL     1       1.008   9.520  21.151  0.00  0.00    +0.000 C 
ATOM     15  C   UNL     1       1.631   8.343  20.410  0.00  0.00    +0.000 C 
ENDBRANCH  13  15
ENDBRANCH   6  13
ENDBRANCH   1   8
BRANCH   4  16
ATOM     16  C   UNL     1       6.757   4.617  15.978  0.00  0.00    +0.000 C 
BRANCH  16  17
ATOM     17  C   UNL     1       6.859   4.560  14.465  0.00  0.00    +0.000 A 
ATOM     18  C   UNL     1       7.790   5.350  13.782  0.00  0.00    +0.000 A 
ATOM     19  C   UNL     1       7.905   5.269  12.392  0.00  0.00    +0.000 A 
ATOM     20  C   UNL     1       7.094   4.393  11.664  0.00  0.00    +0.000 A 
ATOM     21  C   UNL     1       6.152   3.598  12.325  0.00  0.00    +0.000 A 
ATOM     22  C   UNL     1       6.031   3.703  13.722  0.00  0.00    +0.000 A 
BRANCH  21  23
ATOM     23  C   UNL     1       5.271   2.616  11.628  0.00  0.00    +0.000 C 
ATOM     24  N   UNL     1       4.019   3.007  11.243  0.00  0.00    +0.000 N 
ATOM     25  O   UNL     1       5.654   1.478  11.379  0.00  0.00    +0.000 OA
ATOM     26  H   UNL     1       3.630   3.928  11.361  0.00  0.00    +0.000 HD
ATOM     27  H   UNL     1       3.469   2.322  10.740  0.00  0.00    +0.000 HD
ENDBRANCH  21  23
ENDBRANCH  16  17
ENDBRANCH   4  16
TORSDOF 6
ENDMDL
MODEL 5
REMARK VINA RESULT:      -7.6      1.208      2.785
REMARK  Name = 
REMARK  8 active torsions:
REMARK  status: ('A' for Active; 'I' for Inactive)
REMARK    1  A    between atoms: C_1  and  C_2
REMARK    2  A    between atoms: C_2  and  C_3
REMARK    3  A    between atoms: C_3  and  C_4
REMARK    4  A    between atoms: C_6  and  N_7
REMARK    5  A    between atoms: C_10  and  C_11
REMARK    6  A    between atoms: C_11  and  C_12
REMARK    7  A    between atoms: C_16  and  C_17
REMARK    8  A    between atoms: C_23  and  C_24
REMARK                            x       y       z     vdW  Elec       q    Type
REMARK                         _______ _______ _______ _____ _____    ______ ____
ROOT
ATOM      1  N   UNL     1       5.153   5.718  17.803  0.00  0.00    +0.000 N 
ATOM      2  C   UNL     1       6.300   5.428  18.660  0.00  0.00    +0.000 C 
ATOM      3  C   UNL     1       7.492   6.003  17.896  0.00  0.00    +0.000 C 
ATOM      4  C   UNL     1       7.080   5.926  16.424  0.00  0.00    +0.000 C 
ATOM      5  C   UNL     1       5.582   6.234  16.499  0.00  0.00    +0.000 C 
ENDROOT
BRANCH   1   8
ATOM      6  C   UNL     1       2.139   6.039  19.834  0.00  0.00    +0.000 A 
ATOM      7  C   UNL     1       3.302   5.516  19.309  0.00  0.00    +0.000 A 
ATOM      8  C   UNL     1       3.980   6.241  18.343  0.00  0.00    +0.000 A 
ATOM      9  N   UNL     1       3.520   7.444  17.957  0.00  0.00    +0.000 NA
ATOM     10  C   UNL     1       2.370   7.886  18.513  0.00  0.00    +0.000 A 
ATOM     11  C   UNL     1       1.823   9.205  18.059  0.00  0.00    +0.000 C 
ATOM     12  N   UNL     1       1.656   7.227  19.444  0.00  0.00    +0.000 NA
BRANCH   6  13
ATOM     13  C   UNL     1       1.395   5.279  20.903  0.00  0.00    +0.000 C 
BRANCH  13  15
ATOM     14  C   UNL     1       1.617   2.841  21.623  0.00  0.00    +0.000 C 
ATOM     15  C   UNL     1       1.128   3.813  20.556  0.00  0.00    +0.000 C 
ENDBRANCH  13  15
ENDBRANCH   6  13
ENDBRANCH   1   8
BRANCH   4  16
ATOM     16  C   UNL     1       7.367   4.557  15.776  0.00  0.00    +0.000 C 
BRANCH  16  17
ATOM     17  C   UNL     1       7.223   4.572  14.266  0.00  0.00    +0.000 A 
ATOM     18  C   UNL     1       7.995   5.438  13.484  0.00  0.00    +0.000 A 
ATOM     19  C   UNL     1       7.884   5.425  12.091  0.00  0.00    +0.000 A 
ATOM     20  C   UNL     1       7.003   4.542  11.459  0.00  0.00    +0.000 A 
ATOM     21  C   UNL     1       6.216   3.672  12.221  0.00  0.00    +0.000 A 
ATOM     22  C   UNL     1       6.322   3.708  13.622  0.00  0.00    +0.000 A 
BRANCH  21  23
ATOM     23  C   UNL     1       5.276   2.679  11.626  0.00  0.00    +0.000 C 
ATOM     24  N   UNL     1       4.018   3.083  11.279  0.00  0.00    +0.000 N 
ATOM     25  O   UNL     1       5.616   1.518  11.425  0.00  0.00    +0.000 OA
ATOM     26  H   UNL     1       3.660   4.021  11.361  0.00  0.00    +0.000 HD
ATOM     27  H   UNL     1       3.426   2.388  10.843  0.00  0.00    +0.000 HD
ENDBRANCH  21  23
ENDBRANCH  16  17
ENDBRANCH   4  16
TORSDOF 6
ENDMDL
MODEL 6
REMARK VINA RESULT:      -7.6      2.753      7.363
REMARK  Name = 
REMARK  8 active torsions:
REMARK  status: ('A' for Active; 'I' for Inactive)
REMARK    1  A    between atoms: C_1  and  C_2
REMARK    2  A    between atoms: C_2  and  C_3
REMARK    3  A    between atoms: C_3  and  C_4
REMARK    4  A    between atoms: C_6  and  N_7
REMARK    5  A    between atoms: C_10  and  C_11
REMARK    6  A    between atoms: C_11  and  C_12
REMARK    7  A    between atoms: C_16  and  C_17
REMARK    8  A    between atoms: C_23  and  C_24
REMARK                            x       y       z     vdW  Elec       q    Type
REMARK                         _______ _______ _______ _____ _____    ______ ____
ROOT
ATOM      1  N   UNL     1       4.159   3.862  17.815  0.00  0.00    +0.000 N 
ATOM      2  C   UNL     1       4.344   3.015  18.990  0.00  0.00    +0.000 C 
ATOM      3  C   UNL     1       3.523   1.763  18.682  0.00  0.00    +0.000 C 
ATOM      4  C   UNL     1       2.408   2.252  17.754  0.00  0.00    +0.000 C 
ATOM      5  C   UNL     1       3.135   3.311  16.921  0.00  0.00    +0.000 C 
ENDROOT
BRANCH   1   8
ATOM      6  C   UNL     1       6.668   4.814  15.343  0.00  0.00    +0.000 A 
ATOM      7  C   UNL     1       5.586   4.182  15.918  0.00  0.00    +0.000 A 
ATOM      8  C   UNL     1       5.247   4.499  17.224  0.00  0.00    +0.000 A 
ATOM      9  N   UNL     1       5.949   5.430  17.895  0.00  0.00    +0.000 NA
ATOM     10  C   UNL     1       7.000   6.000  17.265  0.00  0.00    +0.000 A 
ATOM     11  C   UNL     1       7.818   7.006  18.016  0.00  0.00    +0.000 C 
ATOM     12  N   UNL     1       7.390   5.728  16.006  0.00  0.00    +0.000 NA
BRANCH   6  13
ATOM     13  C   UNL     1       7.042   4.503  13.916  0.00  0.00    +0.000 C 
BRANCH  13  15
ATOM     14  C   UNL     1       6.395   2.975  11.977  0.00  0.00    +0.000 C 
ATOM     15  C   UNL     1       5.907   3.893  13.091  0.00  0.00    +0.000 C 
ENDBRANCH  13  15
ENDBRANCH   6  13
ENDBRANCH   1   8
BRANCH   4  16
ATOM     16  C   UNL     1       1.190   2.826  18.504  0.00  0.00    +0.000 C 
BRANCH  16  17
ATOM     17  C   UNL     1       1.461   4.183  19.126  0.00  0.00    +0.000 A 
ATOM     18  C   UNL     1       1.415   4.355  20.514  0.00  0.00    +0.000 A 
ATOM     19  C   UNL     1       1.699   5.598  21.085  0.00  0.00    +0.000 A 
ATOM     20  C   UNL     1       2.036   6.688  20.276  0.00  0.00    +0.000 A 
ATOM     21  C   UNL     1       2.080   6.542  18.886  0.00  0.00    +0.000 A 
ATOM     22  C   UNL     1       1.774   5.291  18.321  0.00  0.00    +0.000 A 
BRANCH  21  23
ATOM     23  C   UNL     1       2.460   7.644  17.955  0.00  0.00    +0.000 C 
ATOM     24  N   UNL     1       3.704   7.632  17.387  0.00  0.00    +0.000 N 
ATOM     25  O   UNL     1       1.676   8.545  17.676  0.00  0.00    +0.000 OA
ATOM     26  H   UNL     1       4.400   6.916  17.517  0.00  0.00    +0.000 HD
ATOM     27  H   UNL     1       3.906   8.376  16.733  0.00  0.00    +0.000 HD
ENDBRANCH  21  23
ENDBRANCH  16  17
ENDBRANCH   4  16
TORSDOF 6
ENDMDL
MODEL 7
REMARK VINA RESULT:      -7.5      3.516      5.249
REMARK  Name = 
REMARK  8 active torsions:
REMARK  status: ('A' for Active; 'I' for Inactive)
REMARK    1  A    between atoms: C_1  and  C_2
REMARK    2  A    between atoms: C_2  and  C_3
REMARK    3  A    between atoms: C_3  and  C_4
REMARK    4  A    between atoms: C_6  and  N_7
REMARK    5  A    between atoms: C_10  and  C_11
REMARK    6  A    between atoms: C_11  and  C_12
REMARK    7  A    between atoms: C_16  and  C_17
REMARK    8  A    between atoms: C_23  and  C_24
REMARK                            x       y       z     vdW  Elec       q    Type
REMARK                         _______ _______ _______ _____ _____    ______ ____
ROOT
ATOM      1  N   UNL     1       2.258   7.043  19.741  0.00  0.00    +0.000 N 
ATOM      2  C   UNL     1       2.629   6.924  18.333  0.00  0.00    +0.000 C 
ATOM      3  C   UNL     1       2.274   5.482  17.974  0.00  0.00    +0.000 C 
ATOM      4  C   UNL     1       2.409   4.712  19.290  0.00  0.00    +0.000 C 
ATOM      5  C   UNL     1       1.902   5.738  20.307  0.00  0.00    +0.000 C 
ENDROOT
BRANCH   1   8
ATOM      6  C   UNL     1       0.522  10.252  19.754  0.00  0.00    +0.000 A 
ATOM      7  C   UNL     1       1.221   9.156  19.296  0.00  0.00    +0.000 A 
ATOM      8  C   UNL     1       1.546   8.152  20.193  0.00  0.00    +0.000 A 
ATOM      9  N   UNL     1       1.154   8.242  21.477  0.00  0.00    +0.000 NA
ATOM     10  C   UNL     1       0.477   9.351  21.851  0.00  0.00    +0.000 A 
ATOM     11  C   UNL     1       0.073   9.485  23.287  0.00  0.00    +0.000 C 
ATOM     12  N   UNL     1       0.142  10.367  21.035  0.00  0.00    +0.000 NA
BRANCH   6  13
ATOM     13  C   UNL     1       0.136  11.347  18.791  0.00  0.00    +0.000 C 
BRANCH  13  15
ATOM     14  C   UNL     1      -1.974  10.317  17.793  0.00  0.00    +0.000 C 
ATOM     15  C   UNL     1      -1.371  11.481  18.570  0.00  0.00    +0.000 C 
ENDBRANCH  13  15
ENDBRANCH   6  13
ENDBRANCH   1   8
BRANCH   4  16
ATOM     16  C   UNL     1       3.848   4.249  19.587  0.00  0.00    +0.000 C 
BRANCH  16  17
ATOM     17  C   UNL     1       4.819   4.570  18.467  0.00  0.00    +0.000 A 
ATOM     18  C   UNL     1       4.743   3.898  17.242  0.00  0.00    +0.000 A 
ATOM     19  C   UNL     1       5.617   4.221  16.200  0.00  0.00    +0.000 A 
ATOM     20  C   UNL     1       6.578   5.223  16.366  0.00  0.00    +0.000 A 
ATOM     21  C   UNL     1       6.677   5.902  17.585  0.00  0.00    +0.000 A 
ATOM     22  C   UNL     1       5.806   5.556  18.632  0.00  0.00    +0.000 A 
BRANCH  21  23
ATOM     23  C   UNL     1       7.652   7.004  17.835  0.00  0.00    +0.000 C 
ATOM     24  N   UNL     1       8.389   6.988  18.985  0.00  0.00    +0.000 N 
ATOM     25  O   UNL     1       7.816   7.908  17.022  0.00  0.00    +0.000 OA
ATOM     26  H   UNL     1       8.360   6.270  19.690  0.00  0.00    +0.000 HD
ATOM     27  H   UNL     1       9.065   7.733  19.097  0.00  0.00    +0.000 HD
ENDBRANCH  21  23
ENDBRANCH  16  17
ENDBRANCH   4  16
TORSDOF 6
ENDMDL
MODEL 8
REMARK VINA RESULT:      -7.5      2.739      7.767
REMARK  Name = 
REMARK  8 active torsions:
REMARK  status: ('A' for Active; 'I' for Inactive)
REMARK    1  A    between atoms: C_1  and  C_2
REMARK    2  A    between atoms: C_2  and  C_3
REMARK    3  A    between atoms: C_3  and  C_4
REMARK    4  A    between atoms: C_6  and  N_7
REMARK    5  A    between atoms: C_10  and  C_11
REMARK    6  A    between atoms: C_11  and  C_12
REMARK    7  A    between atoms: C_16  and  C_17
REMARK    8  A    between atoms: C_23  and  C_24
REMARK                            x       y       z     vdW  Elec       q    Type
REMARK                         _______ _______ _______ _____ _____    ______ ____
ROOT
ATOM      1  N   UNL     1       5.887   4.925  16.042  0.00  0.00    +0.000 N 
ATOM      2  C   UNL     1       4.512   5.373  16.252  0.00  0.00    +0.000 C 
ATOM      3  C   UNL     1       4.633   6.458  17.321  0.00  0.00    +0.000 C 
ATOM      4  C   UNL     1       5.875   6.070  18.127  0.00  0.00    +0.000 C 
ATOM      5  C   UNL     1       6.792   5.506  17.039  0.00  0.00    +0.000 C 
ENDROOT
BRANCH   1   8
ATOM      6  C   UNL     1       6.267   3.671  12.637  0.00  0.00    +0.000 A 
ATOM      7  C   UNL     1       5.764   3.842  13.910  0.00  0.00    +0.000 A 
ATOM      8  C   UNL     1       6.385   4.750  14.753  0.00  0.00    +0.000 A 
ATOM      9  N   UNL     1       7.437   5.465  14.316  0.00  0.00    +0.000 NA
ATOM     10  C   UNL     1       7.875   5.236  13.058  0.00  0.00    +0.000 A 
ATOM     11  C   UNL     1       9.073   5.994  12.574  0.00  0.00    +0.000 C 
ATOM     12  N   UNL     1       7.327   4.361  12.194  0.00  0.00    +0.000 NA
BRANCH   6  13
ATOM     13  C   UNL     1       5.595   2.706  11.693  0.00  0.00    +0.000 C 
BRANCH  13  15
ATOM     14  C   UNL     1       3.691   3.704  10.317  0.00  0.00    +0.000 C 
ATOM     15  C   UNL     1       4.085   2.913  11.559  0.00  0.00    +0.000 C 
ENDBRANCH  13  15
ENDBRANCH   6  13
ENDBRANCH   1   8
BRANCH   4  16
ATOM     16  C   UNL     1       5.588   5.048  19.244  0.00  0.00    +0.000 C 
BRANCH  16  17
ATOM     17  C   UNL     1       4.107   4.856  19.509  0.00  0.00    +0.000 A 
ATOM     18  C   UNL     1       3.343   5.883  20.075  0.00  0.00    +0.000 A 
ATOM     19  C   UNL     1       1.972   5.714  20.285  0.00  0.00    +0.000 A 
ATOM     20  C   UNL     1       1.343   4.518  19.929  0.00  0.00    +0.000 A 
ATOM     21  C   UNL     1       2.088   3.475  19.368  0.00  0.00    +0.000 A 
ATOM     22  C   UNL     1       3.470   3.648  19.179  0.00  0.00    +0.000 A 
BRANCH  21  23
ATOM     23  C   UNL     1       1.489   2.180  18.931  0.00  0.00    +0.000 C 
ATOM     24  N   UNL     1       2.263   1.053  18.950  0.00  0.00    +0.000 N 
ATOM     25  O   UNL     1       0.318   2.105  18.575  0.00  0.00    +0.000 OA
ATOM     26  H   UNL     1       3.217   1.003  19.267  0.00  0.00    +0.000 HD
ATOM     27  H   UNL     1       1.806   0.190  18.682  0.00  0.00    +0.000 HD
ENDBRANCH  21  23
ENDBRANCH  16  17
ENDBRANCH   4  16
TORSDOF 6
ENDMDL
MODEL 9
REMARK VINA RESULT:      -7.5      2.848      7.064
REMARK  Name = 
REMARK  8 active torsions:
REMARK  status: ('A' for Active; 'I' for Inactive)
REMARK    1  A    between atoms: C_1  and  C_2
REMARK    2  A    between atoms: C_2  and  C_3
REMARK    3  A    between atoms: C_3  and  C_4
REMARK    4  A    between atoms: C_6  and  N_7
REMARK    5  A    between atoms: C_10  and  C_11
REMARK    6  A    between atoms: C_11  and  C_12
REMARK    7  A    between atoms: C_16  and  C_17
REMARK    8  A    between atoms: C_23  and  C_24
REMARK                            x       y       z     vdW  Elec       q    Type
REMARK                         _______ _______ _______ _____ _____    ______ ____
ROOT
ATOM      1  N   UNL     1       4.234   3.899  17.820  0.00  0.00    +0.000 N 
ATOM      2  C   UNL     1       4.423   3.037  18.984  0.00  0.00    +0.000 C 
ATOM      3  C   UNL     1       3.622   1.779  18.651  0.00  0.00    +0.000 C 
ATOM      4  C   UNL     1       2.507   2.266  17.722  0.00  0.00    +0.000 C 
ATOM      5  C   UNL     1       3.224   3.348  16.911  0.00  0.00    +0.000 C 
ENDROOT
BRANCH   1   8
ATOM      6  C   UNL     1       7.120   6.099  17.442  0.00  0.00    +0.000 A 
ATOM      7  C   UNL     1       6.053   5.444  18.019  0.00  0.00    +0.000 A 
ATOM      8  C   UNL     1       5.317   4.561  17.246  0.00  0.00    +0.000 A 
ATOM      9  N   UNL     1       5.666   4.334  15.967  0.00  0.00    +0.000 NA
ATOM     10  C   UNL     1       6.720   5.019  15.471  0.00  0.00    +0.000 A 
ATOM     11  C   UNL     1       7.091   4.808  14.035  0.00  0.00    +0.000 C 
ATOM     12  N   UNL     1       7.467   5.898  16.162  0.00  0.00    +0.000 NA
BRANCH   6  13
ATOM     13  C   UNL     1       7.951   7.047  18.269  0.00  0.00    +0.000 C 
BRANCH  13  15
ATOM     14  C   UNL     1       8.729   9.449  18.631  0.00  0.00    +0.000 C 
ATOM     15  C   UNL     1       8.040   8.462  17.697  0.00  0.00    +0.000 C 
ENDBRANCH  13  15
ENDBRANCH   6  13
ENDBRANCH   1   8
BRANCH   4  16
ATOM     16  C   UNL     1       1.276   2.811  18.473  0.00  0.00    +0.000 C 
BRANCH  16  17
ATOM     17  C   UNL     1       1.522   4.163  19.114  0.00  0.00    +0.000 A 
ATOM     18  C   UNL     1       1.526   4.303  20.506  0.00  0.00    +0.000 A 
ATOM     19  C   UNL     1       1.787   5.544  21.094  0.00  0.00    +0.000 A 
ATOM     20  C   UNL     1       2.051   6.663  20.298  0.00  0.00    +0.000 A 
ATOM     21  C   UNL     1       2.045   6.548  18.904  0.00  0.00    +0.000 A 
ATOM     22  C   UNL     1       1.762   5.300  18.324  0.00  0.00    +0.000 A 
BRANCH  21  23
ATOM     23  C   UNL     1       2.347   7.683  17.985  0.00  0.00    +0.000 C 
ATOM     24  N   UNL     1       3.561   7.722  17.357  0.00  0.00    +0.000 N 
ATOM     25  O   UNL     1       1.524   8.567  17.768  0.00  0.00    +0.000 OA
ATOM     26  H   UNL     1       4.283   7.024  17.434  0.00  0.00    +0.000 HD
ATOM     27  H   UNL     1       3.710   8.488  16.713  0.00  0.00    +0.000 HD
ENDBRANCH  21  23
ENDBRANCH  16  17
ENDBRANCH   4  16
TORSDOF 6
ENDMDL
