MODEL 1
REMARK VINA RESULT:      -8.7      0.000      0.000
REMARK  Name = 
REMARK  7 active torsions:
REMARK  status: ('A' for Active; 'I' for Inactive)
REMARK    1  A    between atoms: C_4  and  C_5
REMARK    2  A    between atoms: C_14  and  O_15
REMARK    3  A    between atoms: C_16  and  C_17
REMARK    4  A    between atoms: C_17  and  C_18
REMARK    5  A    between atoms: C_22  and  O_23
REMARK    6  A    between atoms: C_24  and  O_25
REMARK    7  A    between atoms: C_26  and  O_27
REMARK                            x       y       z     vdW  Elec       q    Type
REMARK                         _______ _______ _______ _____ _____    ______ ____
ROOT
ATOM      1  O   UNL     1      -0.169   8.672  21.520  0.00  0.00    +0.000 OA
ATOM      2  C   UNL     1       0.482   9.245  20.656  0.00  0.00    +0.000 C 
ATOM      3  C   UNL     1       0.377  10.726  20.469  0.00  0.00    +0.000 C 
ATOM      4  C   UNL     1       0.369  11.080  18.988  0.00  0.00    +0.000 C 
ATOM      5  O   UNL     1       1.369  10.433  18.195  0.00  0.00    +0.000 OA
ATOM      6  C   UNL     1       1.765   9.182  18.568  0.00  0.00    +0.000 A 
ATOM      7  C   UNL     1       2.614   8.547  17.661  0.00  0.00    +0.000 A 
ATOM      8  C   UNL     1       3.183   7.316  17.977  0.00  0.00    +0.000 A 
ATOM      9  C   UNL     1       2.941   6.693  19.211  0.00  0.00    +0.000 A 
ATOM     10  C   UNL     1       2.045   7.327  20.098  0.00  0.00    +0.000 A 
ATOM     11  C   UNL     1       1.438   8.553  19.765  0.00  0.00    +0.000 A 
ENDROOT
BRANCH   4  12
ATOM     12  C   UNL     1       0.607  12.577  18.839  0.00  0.00    +0.000 A 
ATOM     13  C   UNL     1       1.905  13.062  18.589  0.00  0.00    +0.000 A 
ATOM     14  C   UNL     1       2.165  14.430  18.548  0.00  0.00    +0.000 A 
ATOM     15  C   UNL     1       1.124  15.337  18.724  0.00  0.00    +0.000 A 
ATOM     16  C   UNL     1      -0.178  14.877  18.928  0.00  0.00    +0.000 A 
ATOM     17  C   UNL     1      -0.436  13.501  18.983  0.00  0.00    +0.000 A 
ENDBRANCH   4  12
BRANCH   8  18
ATOM     18  O   UNL     1       4.043   6.726  17.089  0.00  0.00    +0.000 OA
ATOM     19  H   UNL     1       4.707   7.379  16.813  0.00  0.00    +0.000 HD
ENDBRANCH   8  18
BRANCH  10  20
ATOM     20  O   UNL     1       1.837   6.818  21.352  0.00  0.00    +0.000 OA
ATOM     21  H   UNL     1       1.564   5.879  21.300  0.00  0.00    +0.000 HD
ENDBRANCH  10  20
BRANCH   9  22
ATOM     22  C   UNL     1       3.715   5.450  19.597  0.00  0.00    +0.000 C 
BRANCH  22  23
ATOM     23  C   UNL     1       3.075   4.127  19.248  0.00  0.00    +0.000 A 
ATOM     24  C   UNL     1       1.687   4.043  19.055  0.00  0.00    +0.000 A 
ATOM     25  C   UNL     1       1.087   2.852  18.626  0.00  0.00    +0.000 A 
ATOM     26  C   UNL     1       1.865   1.719  18.389  0.00  0.00    +0.000 A 
ATOM     27  C   UNL     1       3.235   1.787  18.604  0.00  0.00    +0.000 A 
ATOM     28  C   UNL     1       3.831   2.974  19.038  0.00  0.00    +0.000 A 
BRANCH  27  29
ATOM     29  O   UNL     1       4.054   0.713  18.381  0.00  0.00    +0.000 OA
ATOM     30  H   UNL     1       4.945   1.051  18.185  0.00  0.00    +0.000 HD
ENDBRANCH  27  29
BRANCH  28  31
ATOM     31  O   UNL     1       5.186   2.993  19.241  0.00  0.00    +0.000 OA
ATOM     32  H   UNL     1       5.553   2.544  18.447  0.00  0.00    +0.000 HD
ENDBRANCH  28  31
ENDBRANCH  22  23
ENDBRANCH   9  22
TORSDOF 7
ENDMDL
MODEL 2
REMARK VINA RESULT:      -8.4      2.467      4.199
REMARK  Name = 
REMARK  7 active torsions:
REMARK  status: ('A' for Active; 'I' for Inactive)
REMARK    1  A    between atoms: C_4  and  C_5
REMARK    2  A    between atoms: C_14  and  O_15
REMARK    3  A    between atoms: C_16  and  C_17
REMARK    4  A    between atoms: C_17  and  C_18
REMARK    5  A    between atoms: C_22  and  O_23
REMARK    6  A    between atoms: C_24  and  O_25
REMARK    7  A    between atoms: C_26  and  O_27
REMARK                            x       y       z     vdW  Elec       q    Type
REMARK                         _______ _______ _______ _____ _____    ______ ____
ROOT
ATOM      1  O   UNL     1       1.880  11.523  17.971  0.00  0.00    +0.000 OA
ATOM      2  C   UNL     1       1.209  11.003  18.853  0.00  0.00    +0.000 C 
ATOM      3  C   UNL     1       0.076  11.740  19.493  0.00  0.00    +0.000 C 
ATOM      4  C   UNL     1       0.047  11.481  20.993  0.00  0.00    +0.000 C 
ATOM      5  O   UNL     1       0.184  10.112  21.384  0.00  0.00    +0.000 OA
ATOM      6  C   UNL     1       0.940   9.297  20.593  0.00  0.00    +0.000 A 
ATOM      7  C   UNL     1       1.167   8.026  21.119  0.00  0.00    +0.000 A 
ATOM      8  C   UNL     1       1.824   7.059  20.359  0.00  0.00    +0.000 A 
ATOM      9  C   UNL     1       2.251   7.326  19.049  0.00  0.00    +0.000 A 
ATOM     10  C   UNL     1       2.053   8.630  18.549  0.00  0.00    +0.000 A 
ATOM     11  C   UNL     1       1.424   9.619  19.329  0.00  0.00    +0.000 A 
ENDROOT
BRANCH   4  12
ATOM     12  C   UNL     1      -1.290  11.953  21.548  0.00  0.00    +0.000 A 
ATOM     13  C   UNL     1      -1.594  11.764  22.910  0.00  0.00    +0.000 A 
ATOM     14  C   UNL     1      -2.847  12.096  23.420  0.00  0.00    +0.000 A 
ATOM     15  C   UNL     1      -3.808  12.654  22.582  0.00  0.00    +0.000 A 
ATOM     16  C   UNL     1      -3.512  12.892  21.239  0.00  0.00    +0.000 A 
ATOM     17  C   UNL     1      -2.257  12.544  20.724  0.00  0.00    +0.000 A 
ENDBRANCH   4  12
BRANCH   8  18
ATOM     18  O   UNL     1       2.006   5.806  20.880  0.00  0.00    +0.000 OA
ATOM     19  H   UNL     1       2.495   5.880  21.715  0.00  0.00    +0.000 HD
ENDBRANCH   8  18
BRANCH  10  20
ATOM     20  O   UNL     1       2.365   8.928  17.250  0.00  0.00    +0.000 OA
ATOM     21  H   UNL     1       2.386   8.113  16.707  0.00  0.00    +0.000 HD
ENDBRANCH  10  20
BRANCH   9  22
ATOM     22  C   UNL     1       2.795   6.205  18.188  0.00  0.00    +0.000 C 
BRANCH  22  23
ATOM     23  C   UNL     1       4.297   6.137  18.046  0.00  0.00    +0.000 A 
ATOM     24  C   UNL     1       4.927   6.703  16.924  0.00  0.00    +0.000 A 
ATOM     25  C   UNL     1       6.323   6.747  16.825  0.00  0.00    +0.000 A 
ATOM     26  C   UNL     1       7.118   6.220  17.842  0.00  0.00    +0.000 A 
ATOM     27  C   UNL     1       6.503   5.635  18.941  0.00  0.00    +0.000 A 
ATOM     28  C   UNL     1       5.109   5.585  19.036  0.00  0.00    +0.000 A 
BRANCH  27  29
ATOM     29  O   UNL     1       7.226   5.108  19.977  0.00  0.00    +0.000 OA
ATOM     30  H   UNL     1       6.917   4.198  20.126  0.00  0.00    +0.000 HD
ENDBRANCH  27  29
BRANCH  28  31
ATOM     31  O   UNL     1       4.546   4.995  20.137  0.00  0.00    +0.000 OA
ATOM     32  H   UNL     1       3.830   4.433  19.767  0.00  0.00    +0.000 HD
ENDBRANCH  28  31
ENDBRANCH  22  23
ENDBRANCH   9  22
TORSDOF 7
ENDMDL
MODEL 3
REMARK VINA RESULT:      -8.4      2.595      4.245
REMARK  Name = 
REMARK  7 active torsions:
REMARK  status: ('A' for Active; 'I' for Inactive)
REMARK    1  A    between atoms: C_4  and  C_5
REMARK    2  A    between atoms: C_14  and  O_15
REMARK    3  A    between atoms: C_16  and  C_17
REMARK    4  A    between atoms: C_17  and  C_18
REMARK    5  A    between atoms: C_22  and  O_23
REMARK    6  A    between atoms: C_24  and  O_25
REMARK    7  A    between atoms: C_26  and  O_27
REMARK                            x       y       z     vdW  Elec       q    Type
REMARK                         _______ _______ _______ _____ _____    ______ ____
ROOT
ATOM      1  O   UNL     1       2.095  11.324  17.857  0.00  0.00    +0.000 OA
ATOM      2  C   UNL     1       1.389  10.804  18.712  0.00  0.00    +0.000 C 
ATOM      3  C   UNL     1       0.219  11.534  19.291  0.00  0.00    +0.000 C 
ATOM      4  C   UNL     1       0.123  11.289  20.791  0.00  0.00    +0.000 C 
ATOM      5  O   UNL     1       0.257   9.926  21.202  0.00  0.00    +0.000 OA
ATOM      6  C   UNL     1       1.059   9.112  20.455  0.00  0.00    +0.000 A 
ATOM      7  C   UNL     1       1.276   7.849  21.004  0.00  0.00    +0.000 A 
ATOM      8  C   UNL     1       1.978   6.883  20.286  0.00  0.00    +0.000 A 
ATOM      9  C   UNL     1       2.463   7.142  18.994  0.00  0.00    +0.000 A 
ATOM     10  C   UNL     1       2.273   8.439  18.472  0.00  0.00    +0.000 A 
ATOM     11  C   UNL     1       1.598   9.428  19.212  0.00  0.00    +0.000 A 
ENDROOT
BRANCH   4  12
ATOM     12  C   UNL     1      -1.243  11.751  21.279  0.00  0.00    +0.000 A 
ATOM     13  C   UNL     1      -2.173  12.286  20.366  0.00  0.00    +0.000 A 
ATOM     14  C   UNL     1      -3.390  12.807  20.801  0.00  0.00    +0.000 A 
ATOM     15  C   UNL     1      -3.712  12.771  22.154  0.00  0.00    +0.000 A 
ATOM     16  C   UNL     1      -2.824  12.205  23.070  0.00  0.00    +0.000 A 
ATOM     17  C   UNL     1      -1.594  11.695  22.634  0.00  0.00    +0.000 A 
ENDBRANCH   4  12
BRANCH   8  18
ATOM     18  O   UNL     1       2.150   5.637  20.827  0.00  0.00    +0.000 OA
ATOM     19  H   UNL     1       2.900   5.204  20.387  0.00  0.00    +0.000 HD
ENDBRANCH   8  18
BRANCH  10  20
ATOM     20  O   UNL     1       2.642   8.728  17.186  0.00  0.00    +0.000 OA
ATOM     21  H   UNL     1       2.785   7.903  16.676  0.00  0.00    +0.000 HD
ENDBRANCH  10  20
BRANCH   9  22
ATOM     22  C   UNL     1       3.059   6.019  18.171  0.00  0.00    +0.000 C 
BRANCH  22  23
ATOM     23  C   UNL     1       4.564   5.891  18.203  0.00  0.00    +0.000 A 
ATOM     24  C   UNL     1       5.203   5.355  19.333  0.00  0.00    +0.000 A 
ATOM     25  C   UNL     1       6.585   5.127  19.341  0.00  0.00    +0.000 A 
ATOM     26  C   UNL     1       7.356   5.438  18.221  0.00  0.00    +0.000 A 
ATOM     27  C   UNL     1       6.735   5.993  17.110  0.00  0.00    +0.000 A 
ATOM     28  C   UNL     1       5.357   6.226  17.106  0.00  0.00    +0.000 A 
BRANCH  27  29
ATOM     29  O   UNL     1       7.433   6.311  15.977  0.00  0.00    +0.000 OA
ATOM     30  H   UNL     1       6.972   5.912  15.219  0.00  0.00    +0.000 HD
ENDBRANCH  27  29
BRANCH  28  31
ATOM     31  O   UNL     1       4.787   6.779  15.989  0.00  0.00    +0.000 OA
ATOM     32  H   UNL     1       3.868   6.986  16.267  0.00  0.00    +0.000 HD
ENDBRANCH  28  31
ENDBRANCH  22  23
ENDBRANCH   9  22
TORSDOF 7
ENDMDL
MODEL 4
REMARK VINA RESULT:      -8.3      0.982      1.050
REMARK  Name = 
REMARK  7 active torsions:
REMARK  status: ('A' for Active; 'I' for Inactive)
REMARK    1  A    between atoms: C_4  and  C_5
REMARK    2  A    between atoms: C_14  and  O_15
REMARK    3  A    between atoms: C_16  and  C_17
REMARK    4  A    between atoms: C_17  and  C_18
REMARK    5  A    between atoms: C_22  and  O_23
REMARK    6  A    between atoms: C_24  and  O_25
REMARK    7  A    between atoms: C_26  and  O_27
REMARK                            x       y       z     vdW  Elec       q    Type
REMARK                         _______ _______ _______ _____ _____    ______ ____
ROOT
ATOM      1  O   UNL     1      -0.391   9.279  21.698  0.00  0.00    +0.000 OA
ATOM      2  C   UNL     1       0.263   9.804  20.805  0.00  0.00    +0.000 C 
ATOM      3  C   UNL     1       0.214  11.283  20.584  0.00  0.00    +0.000 C 
ATOM      4  C   UNL     1       0.186  11.602  19.095  0.00  0.00    +0.000 C 
ATOM      5  O   UNL     1       1.140  10.896  18.297  0.00  0.00    +0.000 OA
ATOM      6  C   UNL     1       1.493   9.638  18.691  0.00  0.00    +0.000 A 
ATOM      7  C   UNL     1       2.293   8.948  17.781  0.00  0.00    +0.000 A 
ATOM      8  C   UNL     1       2.820   7.702  18.115  0.00  0.00    +0.000 A 
ATOM      9  C   UNL     1       2.582   7.119  19.369  0.00  0.00    +0.000 A 
ATOM     10  C   UNL     1       1.733   7.810  20.260  0.00  0.00    +0.000 A 
ATOM     11  C   UNL     1       1.169   9.052  19.911  0.00  0.00    +0.000 A 
ENDROOT
BRANCH   4  12
ATOM     12  C   UNL     1       0.480  13.083  18.904  0.00  0.00    +0.000 A 
ATOM     13  C   UNL     1       1.791  13.510  18.615  0.00  0.00    +0.000 A 
ATOM     14  C   UNL     1       2.105  14.864  18.534  0.00  0.00    +0.000 A 
ATOM     15  C   UNL     1       1.106  15.817  18.709  0.00  0.00    +0.000 A 
ATOM     16  C   UNL     1      -0.209  15.415  18.952  0.00  0.00    +0.000 A 
ATOM     17  C   UNL     1      -0.521  14.053  19.047  0.00  0.00    +0.000 A 
ENDBRANCH   4  12
BRANCH   8  18
ATOM     18  O   UNL     1       3.633   7.056  17.222  0.00  0.00    +0.000 OA
ATOM     19  H   UNL     1       3.091   6.469  16.670  0.00  0.00    +0.000 HD
ENDBRANCH   8  18
BRANCH  10  20
ATOM     20  O   UNL     1       1.534   7.340  21.531  0.00  0.00    +0.000 OA
ATOM     21  H   UNL     1       1.825   8.003  22.191  0.00  0.00    +0.000 HD
ENDBRANCH  10  20
BRANCH   9  22
ATOM     22  C   UNL     1       3.314   5.855  19.768  0.00  0.00    +0.000 C 
BRANCH  22  23
ATOM     23  C   UNL     1       2.555   4.560  19.598  0.00  0.00    +0.000 A 
ATOM     24  C   UNL     1       1.578   4.185  20.534  0.00  0.00    +0.000 A 
ATOM     25  C   UNL     1       0.789   3.045  20.339  0.00  0.00    +0.000 A 
ATOM     26  C   UNL     1       0.967   2.252  19.206  0.00  0.00    +0.000 A 
ATOM     27  C   UNL     1       1.950   2.601  18.289  0.00  0.00    +0.000 A 
ATOM     28  C   UNL     1       2.742   3.735  18.489  0.00  0.00    +0.000 A 
BRANCH  27  29
ATOM     29  O   UNL     1       2.169   1.869  17.153  0.00  0.00    +0.000 OA
ATOM     30  H   UNL     1       1.457   1.211  17.078  0.00  0.00    +0.000 HD
ENDBRANCH  27  29
BRANCH  28  31
ATOM     31  O   UNL     1       3.702   4.038  17.560  0.00  0.00    +0.000 OA
ATOM     32  H   UNL     1       4.547   3.806  18.005  0.00  0.00    +0.000 HD
ENDBRANCH  28  31
ENDBRANCH  22  23
ENDBRANCH   9  22
TORSDOF 7
ENDMDL
MODEL 5
REMARK VINA RESULT:      -8.2      3.425      8.714
REMARK  Name = 
REMARK  7 active torsions:
REMARK  status: ('A' for Active; 'I' for Inactive)
REMARK    1  A    between atoms: C_4  and  C_5
REMARK    2  A    between atoms: C_14  and  O_15
REMARK    3  A    between atoms: C_16  and  C_17
REMARK    4  A    between atoms: C_17  and  C_18
REMARK    5  A    between atoms: C_22  and  O_23
REMARK    6  A    between atoms: C_24  and  O_25
REMARK    7  A    between atoms: C_26  and  O_27
REMARK                            x       y       z     vdW  Elec       q    Type
REMARK                         _______ _______ _______ _____ _____    ______ ____
ROOT
ATOM      1  O   UNL     1       0.403   9.932  23.161  0.00  0.00    +0.000 OA
ATOM      2  C   UNL     1       0.431   9.555  21.996  0.00  0.00    +0.000 C 
ATOM      3  C   UNL     1       0.953   8.200  21.639  0.00  0.00    +0.000 C 
ATOM      4  C   UNL     1       1.791   8.266  20.369  0.00  0.00    +0.000 C 
ATOM      5  O   UNL     1       1.212   9.003  19.288  0.00  0.00    +0.000 OA
ATOM      6  C   UNL     1       0.407  10.060  19.598  0.00  0.00    +0.000 A 
ATOM      7  C   UNL     1       0.016  10.831  18.503  0.00  0.00    +0.000 A 
ATOM      8  C   UNL     1      -0.901  11.868  18.668  0.00  0.00    +0.000 A 
ATOM      9  C   UNL     1      -1.468  12.150  19.921  0.00  0.00    +0.000 A 
ATOM     10  C   UNL     1      -1.027  11.390  21.025  0.00  0.00    +0.000 A 
ATOM     11  C   UNL     1      -0.072  10.367  20.867  0.00  0.00    +0.000 A 
ENDROOT
BRANCH   4  12
ATOM     12  C   UNL     1       2.013   6.851  19.852  0.00  0.00    +0.000 A 
ATOM     13  C   UNL     1       2.482   6.645  18.540  0.00  0.00    +0.000 A 
ATOM     14  C   UNL     1       2.599   5.362  18.011  0.00  0.00    +0.000 A 
ATOM     15  C   UNL     1       2.278   4.259  18.796  0.00  0.00    +0.000 A 
ATOM     16  C   UNL     1       1.853   4.438  20.114  0.00  0.00    +0.000 A 
ATOM     17  C   UNL     1       1.723   5.730  20.641  0.00  0.00    +0.000 A 
ENDBRANCH   4  12
BRANCH   8  18
ATOM     18  O   UNL     1      -1.301  12.590  17.576  0.00  0.00    +0.000 OA
ATOM     19  H   UNL     1      -1.417  13.518  17.838  0.00  0.00    +0.000 HD
ENDBRANCH   8  18
BRANCH  10  20
ATOM     20  O   UNL     1      -1.605  11.555  22.254  0.00  0.00    +0.000 OA
ATOM     21  H   UNL     1      -2.528  11.871  22.160  0.00  0.00    +0.000 HD
ENDBRANCH  10  20
BRANCH   9  22
ATOM     22  C   UNL     1      -2.592  13.159  20.033  0.00  0.00    +0.000 C 
BRANCH  22  23
ATOM     23  C   UNL     1      -3.994  12.598  20.068  0.00  0.00    +0.000 A 
ATOM     24  C   UNL     1      -4.731  12.613  21.263  0.00  0.00    +0.000 A 
ATOM     25  C   UNL     1      -6.069  12.198  21.293  0.00  0.00    +0.000 A 
ATOM     26  C   UNL     1      -6.694  11.754  20.128  0.00  0.00    +0.000 A 
ATOM     27  C   UNL     1      -5.963  11.710  18.948  0.00  0.00    +0.000 A 
ATOM     28  C   UNL     1      -4.626  12.117  18.921  0.00  0.00    +0.000 A 
BRANCH  27  29
ATOM     29  O   UNL     1      -6.520  11.292  17.770  0.00  0.00    +0.000 OA
ATOM     30  H   UNL     1      -7.332  11.807  17.623  0.00  0.00    +0.000 HD
ENDBRANCH  27  29
BRANCH  28  31
ATOM     31  O   UNL     1      -3.943  12.054  17.735  0.00  0.00    +0.000 OA
ATOM     32  H   UNL     1      -3.368  11.263  17.832  0.00  0.00    +0.000 HD
ENDBRANCH  28  31
ENDBRANCH  22  23
ENDBRANCH   9  22
TORSDOF 7
ENDMDL
MODEL 6
REMARK VINA RESULT:      -8.2      2.436      4.156
REMARK  Name = 
REMARK  7 active torsions:
REMARK  status: ('A' for Active; 'I' for Inactive)
REMARK    1  A    between atoms: C_4  and  C_5
REMARK    2  A    between atoms: C_14  and  O_15
REMARK    3  A    between atoms: C_16  and  C_17
REMARK    4  A    between atoms: C_17  and  C_18
REMARK    5  A    between atoms: C_22  and  O_23
REMARK    6  A    between atoms: C_24  and  O_25
REMARK    7  A    between atoms: C_26  and  O_27
REMARK                            x       y       z     vdW  Elec       q    Type
REMARK                         _______ _______ _______ _____ _____    ______ ____
ROOT
ATOM      1  O   UNL     1       1.634  12.136  18.275  0.00  0.00    +0.000 OA
ATOM      2  C   UNL     1       1.104  11.606  19.244  0.00  0.00    +0.000 C 
ATOM      3  C   UNL     1       0.166  12.372  20.121  0.00  0.00    +0.000 C 
ATOM      4  C   UNL     1       0.400  12.027  21.586  0.00  0.00    +0.000 C 
ATOM      5  O   UNL     1       0.510  10.631  21.880  0.00  0.00    +0.000 OA
ATOM      6  C   UNL     1       1.045   9.820  20.922  0.00  0.00    +0.000 A 
ATOM      7  C   UNL     1       1.277   8.508  21.336  0.00  0.00    +0.000 A 
ATOM      8  C   UNL     1       1.710   7.550  20.421  0.00  0.00    +0.000 A 
ATOM      9  C   UNL     1       1.902   7.867  19.067  0.00  0.00    +0.000 A 
ATOM     10  C   UNL     1       1.707   9.208  18.675  0.00  0.00    +0.000 A 
ATOM     11  C   UNL     1       1.306  10.186  19.606  0.00  0.00    +0.000 A 
ENDROOT
BRANCH   4  12
ATOM     12  C   UNL     1      -0.773  12.546  22.407  0.00  0.00    +0.000 A 
ATOM     13  C   UNL     1      -1.793  11.664  22.814  0.00  0.00    +0.000 A 
ATOM     14  C   UNL     1      -2.924  12.131  23.479  0.00  0.00    +0.000 A 
ATOM     15  C   UNL     1      -3.041  13.485  23.777  0.00  0.00    +0.000 A 
ATOM     16  C   UNL     1      -2.021  14.370  23.422  0.00  0.00    +0.000 A 
ATOM     17  C   UNL     1      -0.890  13.901  22.741  0.00  0.00    +0.000 A 
ENDBRANCH   4  12
BRANCH   8  18
ATOM     18  O   UNL     1       1.896   6.260  20.838  0.00  0.00    +0.000 OA
ATOM     19  H   UNL     1       2.823   6.147  21.106  0.00  0.00    +0.000 HD
ENDBRANCH   8  18
BRANCH  10  20
ATOM     20  O   UNL     1       1.791   9.563  17.355  0.00  0.00    +0.000 OA
ATOM     21  H   UNL     1       0.980   9.295  16.876  0.00  0.00    +0.000 HD
ENDBRANCH  10  20
BRANCH   9  22
ATOM     22  C   UNL     1       2.195   6.768  18.067  0.00  0.00    +0.000 C 
BRANCH  22  23
ATOM     23  C   UNL     1       3.644   6.371  17.913  0.00  0.00    +0.000 A 
ATOM     24  C   UNL     1       4.538   7.212  17.230  0.00  0.00    +0.000 A 
ATOM     25  C   UNL     1       5.906   6.916  17.169  0.00  0.00    +0.000 A 
ATOM     26  C   UNL     1       6.405   5.768  17.784  0.00  0.00    +0.000 A 
ATOM     27  C   UNL     1       5.523   4.918  18.437  0.00  0.00    +0.000 A 
ATOM     28  C   UNL     1       4.158   5.210  18.491  0.00  0.00    +0.000 A 
BRANCH  27  29
ATOM     29  O   UNL     1       5.951   3.780  19.067  0.00  0.00    +0.000 OA
ATOM     30  H   UNL     1       6.524   4.045  19.807  0.00  0.00    +0.000 HD
ENDBRANCH  27  29
BRANCH  28  31
ATOM     31  O   UNL     1       3.324   4.340  19.143  0.00  0.00    +0.000 OA
ATOM     32  H   UNL     1       2.730   4.924  19.664  0.00  0.00    +0.000 HD
ENDBRANCH  28  31
ENDBRANCH  22  23
ENDBRANCH   9  22
TORSDOF 7
ENDMDL
MODEL 7
REMARK VINA RESULT:      -8.2      3.386      8.840
REMARK  Name = 
REMARK  7 active torsions:
REMARK  status: ('A' for Active; 'I' for Inactive)
REMARK    1  A    between atoms: C_4  and  C_5
REMARK    2  A    between atoms: C_14  and  O_15
REMARK    3  A    between atoms: C_16  and  C_17
REMARK    4  A    between atoms: C_17  and  C_18
REMARK    5  A    between atoms: C_22  and  O_23
REMARK    6  A    between atoms: C_24  and  O_25
REMARK    7  A    between atoms: C_26  and  O_27
REMARK                            x       y       z     vdW  Elec       q    Type
REMARK                         _______ _______ _______ _____ _____    ______ ____
ROOT
ATOM      1  O   UNL     1       0.473   9.903  23.206  0.00  0.00    +0.000 OA
ATOM      2  C   UNL     1       0.480   9.535  22.038  0.00  0.00    +0.000 C 
ATOM      3  C   UNL     1       0.965   8.171  21.665  0.00  0.00    +0.000 C 
ATOM      4  C   UNL     1       1.792   8.226  20.387  0.00  0.00    +0.000 C 
ATOM      5  O   UNL     1       1.222   8.986  19.318  0.00  0.00    +0.000 OA
ATOM      6  C   UNL     1       0.447  10.061  19.644  0.00  0.00    +0.000 A 
ATOM      7  C   UNL     1       0.064  10.850  18.560  0.00  0.00    +0.000 A 
ATOM      8  C   UNL     1      -0.825  11.908  18.742  0.00  0.00    +0.000 A 
ATOM      9  C   UNL     1      -1.372  12.194  20.003  0.00  0.00    +0.000 A 
ATOM     10  C   UNL     1      -0.940  11.414  21.096  0.00  0.00    +0.000 A 
ATOM     11  C   UNL     1      -0.013  10.369  20.921  0.00  0.00    +0.000 A 
ENDROOT
BRANCH   4  12
ATOM     12  C   UNL     1       1.973   6.810  19.857  0.00  0.00    +0.000 A 
ATOM     13  C   UNL     1       2.447   6.604  18.546  0.00  0.00    +0.000 A 
ATOM     14  C   UNL     1       2.527   5.324  18.004  0.00  0.00    +0.000 A 
ATOM     15  C   UNL     1       2.165   4.223  18.775  0.00  0.00    +0.000 A 
ATOM     16  C   UNL     1       1.736   4.402  20.091  0.00  0.00    +0.000 A 
ATOM     17  C   UNL     1       1.641   5.691  20.631  0.00  0.00    +0.000 A 
ENDBRANCH   4  12
BRANCH   8  18
ATOM     18  O   UNL     1      -1.217  12.649  17.660  0.00  0.00    +0.000 OA
ATOM     19  H   UNL     1      -2.185  12.735  17.671  0.00  0.00    +0.000 HD
ENDBRANCH   8  18
BRANCH  10  20
ATOM     20  O   UNL     1      -1.502  11.583  22.332  0.00  0.00    +0.000 OA
ATOM     21  H   UNL     1      -1.300  12.476  22.682  0.00  0.00    +0.000 HD
ENDBRANCH  10  20
BRANCH   9  22
ATOM     22  C   UNL     1      -2.470  13.230  20.134  0.00  0.00    +0.000 C 
BRANCH  22  23
ATOM     23  C   UNL     1      -3.887  12.707  20.139  0.00  0.00    +0.000 A 
ATOM     24  C   UNL     1      -4.424  12.110  18.986  0.00  0.00    +0.000 A 
ATOM     25  C   UNL     1      -5.695  11.523  19.002  0.00  0.00    +0.000 A 
ATOM     26  C   UNL     1      -6.458  11.528  20.169  0.00  0.00    +0.000 A 
ATOM     27  C   UNL     1      -5.945  12.141  21.305  0.00  0.00    +0.000 A 
ATOM     28  C   UNL     1      -4.679  12.732  21.286  0.00  0.00    +0.000 A 
BRANCH  27  29
ATOM     29  O   UNL     1      -6.640  12.172  22.484  0.00  0.00    +0.000 OA
ATOM     30  H   UNL     1      -7.094  11.318  22.588  0.00  0.00    +0.000 HD
ENDBRANCH  27  29
BRANCH  28  31
ATOM     31  O   UNL     1      -4.215  13.329  22.429  0.00  0.00    +0.000 OA
ATOM     32  H   UNL     1      -4.522  14.259  22.355  0.00  0.00    +0.000 HD
ENDBRANCH  28  31
ENDBRANCH  22  23
ENDBRANCH   9  22
TORSDOF 7
ENDMDL
MODEL 8
REMARK VINA RESULT:      -8.1      1.725      1.909
REMARK  Name = 
REMARK  7 active torsions:
REMARK  status: ('A' for Active; 'I' for Inactive)
REMARK    1  A    between atoms: C_4  and  C_5
REMARK    2  A    between atoms: C_14  and  O_15
REMARK    3  A    between atoms: C_16  and  C_17
REMARK    4  A    between atoms: C_17  and  C_18
REMARK    5  A    between atoms: C_22  and  O_23
REMARK    6  A    between atoms: C_24  and  O_25
REMARK    7  A    between atoms: C_26  and  O_27
REMARK                            x       y       z     vdW  Elec       q    Type
REMARK                         _______ _______ _______ _____ _____    ______ ____
ROOT
ATOM      1  O   UNL     1      -0.387   9.656  22.079  0.00  0.00    +0.000 OA
ATOM      2  C   UNL     1       0.119  10.273  21.150  0.00  0.00    +0.000 C 
ATOM      3  C   UNL     1       0.015  11.763  21.069  0.00  0.00    +0.000 C 
ATOM      4  C   UNL     1      -0.238  12.205  19.634  0.00  0.00    +0.000 C 
ATOM      5  O   UNL     1       0.599  11.597  18.646  0.00  0.00    +0.000 OA
ATOM      6  C   UNL     1       1.026  10.321  18.873  0.00  0.00    +0.000 A 
ATOM      7  C   UNL     1       1.694   9.733  17.799  0.00  0.00    +0.000 A 
ATOM      8  C   UNL     1       2.283   8.478  17.941  0.00  0.00    +0.000 A 
ATOM      9  C   UNL     1       2.242   7.786  19.162  0.00  0.00    +0.000 A 
ATOM     10  C   UNL     1       1.524   8.374  20.224  0.00  0.00    +0.000 A 
ATOM     11  C   UNL     1       0.895   9.625  20.070  0.00  0.00    +0.000 A 
ENDROOT
BRANCH   4  12
ATOM     12  C   UNL     1       0.002  13.706  19.532  0.00  0.00    +0.000 A 
ATOM     13  C   UNL     1       1.210  14.191  18.995  0.00  0.00    +0.000 A 
ATOM     14  C   UNL     1       1.495  15.555  18.983  0.00  0.00    +0.000 A 
ATOM     15  C   UNL     1       0.561  16.460  19.479  0.00  0.00    +0.000 A 
ATOM     16  C   UNL     1      -0.661  16.003  19.975  0.00  0.00    +0.000 A 
ATOM     17  C   UNL     1      -0.941  14.631  20.000  0.00  0.00    +0.000 A 
ENDBRANCH   4  12
BRANCH   8  18
ATOM     18  O   UNL     1       2.966   7.934  16.887  0.00  0.00    +0.000 OA
ATOM     19  H   UNL     1       2.861   8.511  16.112  0.00  0.00    +0.000 HD
ENDBRANCH   8  18
BRANCH  10  20
ATOM     20  O   UNL     1       1.522   7.794  21.463  0.00  0.00    +0.000 OA
ATOM     21  H   UNL     1       1.556   8.478  22.163  0.00  0.00    +0.000 HD
ENDBRANCH  10  20
BRANCH   9  22
ATOM     22  C   UNL     1       3.045   6.513  19.337  0.00  0.00    +0.000 C 
BRANCH  22  23
ATOM     23  C   UNL     1       2.270   5.218  19.271  0.00  0.00    +0.000 A 
ATOM     24  C   UNL     1       1.925   4.664  18.027  0.00  0.00    +0.000 A 
ATOM     25  C   UNL     1       1.303   3.412  17.941  0.00  0.00    +0.000 A 
ATOM     26  C   UNL     1       1.008   2.692  19.098  0.00  0.00    +0.000 A 
ATOM     27  C   UNL     1       1.321   3.246  20.332  0.00  0.00    +0.000 A 
ATOM     28  C   UNL     1       1.935   4.499  20.417  0.00  0.00    +0.000 A 
BRANCH  27  29
ATOM     29  O   UNL     1       1.065   2.588  21.505  0.00  0.00    +0.000 OA
ATOM     30  H   UNL     1       0.427   3.118  22.014  0.00  0.00    +0.000 HD
ENDBRANCH  27  29
BRANCH  28  31
ATOM     31  O   UNL     1       2.222   5.008  21.657  0.00  0.00    +0.000 OA
ATOM     32  H   UNL     1       3.151   5.319  21.578  0.00  0.00    +0.000 HD
ENDBRANCH  28  31
ENDBRANCH  22  23
ENDBRANCH   9  22
TORSDOF 7
ENDMDL
MODEL 9
REMARK VINA RESULT:      -8.0      1.650      2.243
REMARK  Name = 
REMARK  7 active torsions:
REMARK  status: ('A' for Active; 'I' for Inactive)
REMARK    1  A    between atoms: C_4  and  C_5
REMARK    2  A    between atoms: C_14  and  O_15
REMARK    3  A    between atoms: C_16  and  C_17
REMARK    4  A    between atoms: C_17  and  C_18
REMARK    5  A    between atoms: C_22  and  O_23
REMARK    6  A    between atoms: C_24  and  O_25
REMARK    7  A    between atoms: C_26  and  O_27
REMARK                            x       y       z     vdW  Elec       q    Type
REMARK                         _______ _______ _______ _____ _____    ______ ____
ROOT
ATOM      1  O   UNL     1      -0.597   9.702  22.600  0.00  0.00    +0.000 OA
ATOM      2  C   UNL     1      -0.242  10.334  21.613  0.00  0.00    +0.000 C 
ATOM      3  C   UNL     1      -0.528  11.797  21.493  0.00  0.00    +0.000 C 
ATOM      4  C   UNL     1      -0.943  12.147  20.070  0.00  0.00    +0.000 C 
ATOM      5  O   UNL     1      -0.120  11.598  19.036  0.00  0.00    +0.000 OA
ATOM      6  C   UNL     1       0.471  10.391  19.268  0.00  0.00    +0.000 A 
ATOM      7  C   UNL     1       1.118   9.840  18.162  0.00  0.00    +0.000 A 
ATOM      8  C   UNL     1       1.861   8.669  18.296  0.00  0.00    +0.000 A 
ATOM      9  C   UNL     1       1.998   8.027  19.537  0.00  0.00    +0.000 A 
ATOM     10  C   UNL     1       1.301   8.573  20.635  0.00  0.00    +0.000 A 
ATOM     11  C   UNL     1       0.518   9.735  20.494  0.00  0.00    +0.000 A 
ENDROOT
BRANCH   4  12
ATOM     12  C   UNL     1      -0.892  13.660  19.901  0.00  0.00    +0.000 A 
ATOM     13  C   UNL     1      -1.634  14.491  20.762  0.00  0.00    +0.000 A 
ATOM     14  C   UNL     1      -1.682  15.869  20.566  0.00  0.00    +0.000 A 
ATOM     15  C   UNL     1      -0.962  16.444  19.523  0.00  0.00    +0.000 A 
ATOM     16  C   UNL     1      -0.184  15.644  18.685  0.00  0.00    +0.000 A 
ATOM     17  C   UNL     1      -0.147  14.256  18.874  0.00  0.00    +0.000 A 
ENDBRANCH   4  12
BRANCH   8  18
ATOM     18  O   UNL     1       2.519   8.163  17.206  0.00  0.00    +0.000 OA
ATOM     19  H   UNL     1       2.040   8.423  16.402  0.00  0.00    +0.000 HD
ENDBRANCH   8  18
BRANCH  10  20
ATOM     20  O   UNL     1       1.465   8.048  21.889  0.00  0.00    +0.000 OA
ATOM     21  H   UNL     1       1.031   8.617  22.558  0.00  0.00    +0.000 HD
ENDBRANCH  10  20
BRANCH   9  22
ATOM     22  C   UNL     1       2.957   6.865  19.686  0.00  0.00    +0.000 C 
BRANCH  22  23
ATOM     23  C   UNL     1       2.374   5.486  19.488  0.00  0.00    +0.000 A 
ATOM     24  C   UNL     1       1.535   4.926  20.466  0.00  0.00    +0.000 A 
ATOM     25  C   UNL     1       0.898   3.697  20.255  0.00  0.00    +0.000 A 
ATOM     26  C   UNL     1       1.093   2.999  19.064  0.00  0.00    +0.000 A 
ATOM     27  C   UNL     1       1.942   3.532  18.104  0.00  0.00    +0.000 A 
ATOM     28  C   UNL     1       2.583   4.756  18.318  0.00  0.00    +0.000 A 
BRANCH  27  29
ATOM     29  O   UNL     1       2.169   2.901  16.910  0.00  0.00    +0.000 OA
ATOM     30  H   UNL     1       2.722   3.485  16.363  0.00  0.00    +0.000 HD
ENDBRANCH  27  29
BRANCH  28  31
ATOM     31  O   UNL     1       3.415   5.242  17.344  0.00  0.00    +0.000 OA
ATOM     32  H   UNL     1       3.923   5.951  17.796  0.00  0.00    +0.000 HD
ENDBRANCH  28  31
ENDBRANCH  22  23
ENDBRANCH   9  22
TORSDOF 7
ENDMDL
