MODEL 1
REMARK VINA RESULT:      -7.4      0.000      0.000
REMARK  Name = 
REMARK  18 active torsions:
REMARK  status: ('A' for Active; 'I' for Inactive)
REMARK    1  A    between atoms: C_1  and  C_2
REMARK    2  A    between atoms: C_2  and  C_14
REMARK    3  A    between atoms: C_3  and  C_4
REMARK    4  A    between atoms: C_4  and  C_5
REMARK    5  A    between atoms: C_5  and  P_6
REMARK    6  A    between atoms: C_5  and  P_10
REMARK    7  A    between atoms: P_6  and  O_8
REMARK    8  A    between atoms: P_6  and  O_9
REMARK    9  A    between atoms: P_10  and  O_12
REMARK   10  A    between atoms: P_10  and  O_13
REMARK   11  A    between atoms: C_14  and  C_15
REMARK   12  A    between atoms: C_15  and  C_16
REMARK   13  A    between atoms: C_17  and  C_18
REMARK   14  A    between atoms: C_17  and  C_19
REMARK   15  A    between atoms: C_19  and  N_20
REMARK   16  A    between atoms: N_20  and  C_21
REMARK   17  A    between atoms: C_26  and  C_27
REMARK   18  A    between atoms: C_27  and  O_29
REMARK                            x       y       z     vdW  Elec       q    Type
REMARK                         _______ _______ _______ _____ _____    ______ ____
ROOT
ATOM      1  C   UNL     1       1.765   5.407  19.891  0.00  0.00    +0.000 C 
ENDROOT
BRANCH   1   3
ATOM      2  C   UNL     1       1.572   3.251  18.551  0.00  0.00    +0.000 C 
ATOM      3  C   UNL     1       2.288   4.562  18.752  0.00  0.00    +0.000 C 
ATOM      4  C   UNL     1       3.295   5.032  17.991  0.00  0.00    +0.000 C 
BRANCH   4   5
ATOM      5  C   UNL     1       3.950   4.314  16.856  0.00  0.00    +0.000 C 
BRANCH   5   6
ATOM      6  C   UNL     1       5.470   4.267  16.927  0.00  0.00    +0.000 C 
BRANCH   6   7
ATOM      7  P   UNL     1       6.170   4.797  18.533  0.00  0.00    +0.000 P 
ATOM      8  O   UNL     1       5.625   3.584  19.293  0.00  0.00    +0.000 OA
BRANCH   7   9
ATOM      9  O   UNL     1       6.831   5.298  20.051  0.00  0.00    +0.000 OA
ATOM     10  H   UNL     1       6.435   4.685  20.706  0.00  0.00    +0.000 HD
ENDBRANCH   7   9
BRANCH   7  11
ATOM     11  O   UNL     1       7.669   4.308  18.084  0.00  0.00    +0.000 OA
ATOM     12  H   UNL     1       8.152   3.950  18.854  0.00  0.00    +0.000 HD
ENDBRANCH   7  11
ENDBRANCH   6   7
BRANCH   6  13
ATOM     13  P   UNL     1       6.376   5.537  15.955  0.00  0.00    +0.000 P 
ATOM     14  O   UNL     1       6.887   6.716  16.716  0.00  0.00    +0.000 OA
BRANCH  13  15
ATOM     15  O   UNL     1       5.565   6.008  14.665  0.00  0.00    +0.000 OA
ATOM     16  H   UNL     1       5.235   5.206  14.202  0.00  0.00    +0.000 HD
ENDBRANCH  13  15
BRANCH  13  17
ATOM     17  O   UNL     1       7.558   4.749  15.210  0.00  0.00    +0.000 OA
ATOM     18  H   UNL     1       7.273   4.124  14.517  0.00  0.00    +0.000 HD
ENDBRANCH  13  17
ENDBRANCH   6  13
ENDBRANCH   5   6
ENDBRANCH   4   5
ENDBRANCH   1   3
BRANCH   1  19
ATOM     19  C   UNL     1       2.595   6.687  19.990  0.00  0.00    +0.000 C 
BRANCH  19  20
ATOM     20  C   UNL     1       1.740   7.908  20.027  0.00  0.00    +0.000 C 
ATOM     21  C   UNL     1       1.519   8.791  19.030  0.00  0.00    +0.000 C 
ATOM     22  C   UNL     1       2.074   8.672  17.636  0.00  0.00    +0.000 C 
BRANCH  21  23
ATOM     23  C   UNL     1       0.606   9.972  19.257  0.00  0.00    +0.000 C 
BRANCH  23  24
ATOM     24  N   UNL     1       0.913  10.539  20.575  0.00  0.00    +0.000 N 
ATOM     25  H   UNL     1       1.749  11.125  20.487  0.00  0.00    +0.000 HD
BRANCH  24  26
ATOM     26  C   UNL     1      -0.124  11.273  21.202  0.00  0.00    +0.000 A 
ATOM     27  C   UNL     1      -0.723  12.386  20.579  0.00  0.00    +0.000 A 
ATOM     28  C   UNL     1      -1.751  13.108  21.191  0.00  0.00    +0.000 A 
ATOM     29  C   UNL     1      -2.240  12.711  22.429  0.00  0.00    +0.000 A 
ATOM     30  C   UNL     1      -1.729  11.568  23.037  0.00  0.00    +0.000 A 
ATOM     31  C   UNL     1      -0.708  10.832  22.416  0.00  0.00    +0.000 A 
BRANCH  31  32
ATOM     32  C   UNL     1      -0.259   9.598  23.115  0.00  0.00    +0.000 C 
ATOM     33  O   UNL     1       0.546   9.603  24.035  0.00  0.00    +0.000 OA
BRANCH  32  34
ATOM     34  O   UNL     1      -0.870   8.472  22.674  0.00  0.00    +0.000 OA
ATOM     35  H   UNL     1      -0.754   8.357  21.704  0.00  0.00    +0.000 HD
ENDBRANCH  32  34
ENDBRANCH  31  32
ENDBRANCH  24  26
ENDBRANCH  23  24
ENDBRANCH  21  23
ENDBRANCH  19  20
ENDBRANCH   1  19
TORSDOF 16
ENDMDL
MODEL 2
REMARK VINA RESULT:      -7.1      1.782      3.454
REMARK  Name = 
REMARK  18 active torsions:
REMARK  status: ('A' for Active; 'I' for Inactive)
REMARK    1  A    between atoms: C_1  and  C_2
REMARK    2  A    between atoms: C_2  and  C_14
REMARK    3  A    between atoms: C_3  and  C_4
REMARK    4  A    between atoms: C_4  and  C_5
REMARK    5  A    between atoms: C_5  and  P_6
REMARK    6  A    between atoms: C_5  and  P_10
REMARK    7  A    between atoms: P_6  and  O_8
REMARK    8  A    between atoms: P_6  and  O_9
REMARK    9  A    between atoms: P_10  and  O_12
REMARK   10  A    between atoms: P_10  and  O_13
REMARK   11  A    between atoms: C_14  and  C_15
REMARK   12  A    between atoms: C_15  and  C_16
REMARK   13  A    between atoms: C_17  and  C_18
REMARK   14  A    between atoms: C_17  and  C_19
REMARK   15  A    between atoms: C_19  and  N_20
REMARK   16  A    between atoms: N_20  and  C_21
REMARK   17  A    between atoms: C_26  and  C_27
REMARK   18  A    between atoms: C_27  and  O_29
REMARK                            x       y       z     vdW  Elec       q    Type
REMARK                         _______ _______ _______ _____ _____    ______ ____
ROOT
ATOM      1  C   UNL     1       1.851   1.928  18.440  0.00  0.00    +0.000 C 
ENDROOT
BRANCH   1   3
ATOM      2  C   UNL     1       4.120   2.175  19.566  0.00  0.00    +0.000 C 
ATOM      3  C   UNL     1       3.279   2.409  18.338  0.00  0.00    +0.000 C 
ATOM      4  C   UNL     1       3.709   2.961  17.186  0.00  0.00    +0.000 C 
BRANCH   4   5
ATOM      5  C   UNL     1       5.071   3.518  16.930  0.00  0.00    +0.000 C 
BRANCH   5   6
ATOM      6  C   UNL     1       5.089   4.796  16.104  0.00  0.00    +0.000 C 
BRANCH   6   7
ATOM      7  P   UNL     1       6.605   5.031  15.105  0.00  0.00    +0.000 P 
ATOM      8  O   UNL     1       7.546   4.606  16.236  0.00  0.00    +0.000 OA
BRANCH   7   9
ATOM      9  O   UNL     1       8.037   5.253  14.160  0.00  0.00    +0.000 OA
ATOM     10  H   UNL     1       8.097   6.222  14.028  0.00  0.00    +0.000 HD
ENDBRANCH   7   9
BRANCH   7  11
ATOM     11  O   UNL     1       6.338   3.627  14.301  0.00  0.00    +0.000 OA
ATOM     12  H   UNL     1       6.681   3.690  13.389  0.00  0.00    +0.000 HD
ENDBRANCH   7  11
ENDBRANCH   6   7
BRANCH   6  13
ATOM     13  P   UNL     1       5.291   6.369  17.033  0.00  0.00    +0.000 P 
ATOM     14  O   UNL     1       4.071   7.222  17.165  0.00  0.00    +0.000 OA
BRANCH  13  15
ATOM     15  O   UNL     1       6.526   7.231  16.508  0.00  0.00    +0.000 OA
ATOM     16  H   UNL     1       6.435   8.142  16.862  0.00  0.00    +0.000 HD
ENDBRANCH  13  15
BRANCH  13  17
ATOM     17  O   UNL     1       5.888   5.954  18.462  0.00  0.00    +0.000 OA
ATOM     18  H   UNL     1       5.800   5.011  18.695  0.00  0.00    +0.000 HD
ENDBRANCH  13  17
ENDBRANCH   6  13
ENDBRANCH   5   6
ENDBRANCH   4   5
ENDBRANCH   1   3
BRANCH   1  19
ATOM     19  C   UNL     1       1.060   2.882  19.336  0.00  0.00    +0.000 C 
BRANCH  19  20
ATOM     20  C   UNL     1       1.453   4.304  19.127  0.00  0.00    +0.000 C 
ATOM     21  C   UNL     1       1.979   5.156  20.033  0.00  0.00    +0.000 C 
ATOM     22  C   UNL     1       2.324   4.798  21.453  0.00  0.00    +0.000 C 
BRANCH  21  23
ATOM     23  C   UNL     1       2.324   6.570  19.627  0.00  0.00    +0.000 C 
BRANCH  23  24
ATOM     24  N   UNL     1       1.780   7.480  20.640  0.00  0.00    +0.000 N 
ATOM     25  H   UNL     1       2.480   7.594  21.379  0.00  0.00    +0.000 HD
BRANCH  24  26
ATOM     26  C   UNL     1       1.355   8.751  20.181  0.00  0.00    +0.000 A 
ATOM     27  C   UNL     1       1.667   9.212  18.887  0.00  0.00    +0.000 A 
ATOM     28  C   UNL     1       1.243  10.463  18.428  0.00  0.00    +0.000 A 
ATOM     29  C   UNL     1       0.458  11.273  19.238  0.00  0.00    +0.000 A 
ATOM     30  C   UNL     1       0.062  10.816  20.491  0.00  0.00    +0.000 A 
ATOM     31  C   UNL     1       0.472   9.553  20.947  0.00  0.00    +0.000 A 
BRANCH  31  32
ATOM     32  C   UNL     1      -0.040   9.128  22.278  0.00  0.00    +0.000 C 
ATOM     33  O   UNL     1      -0.861   8.235  22.428  0.00  0.00    +0.000 OA
BRANCH  32  34
ATOM     34  O   UNL     1       0.532   9.787  23.314  0.00  0.00    +0.000 OA
ATOM     35  H   UNL     1       1.066  10.552  23.002  0.00  0.00    +0.000 HD
ENDBRANCH  32  34
ENDBRANCH  31  32
ENDBRANCH  24  26
ENDBRANCH  23  24
ENDBRANCH  21  23
ENDBRANCH  19  20
ENDBRANCH   1  19
TORSDOF 16
ENDMDL
MODEL 3
REMARK VINA RESULT:      -7.0      5.363      7.585
REMARK  Name = 
REMARK  18 active torsions:
REMARK  status: ('A' for Active; 'I' for Inactive)
REMARK    1  A    between atoms: C_1  and  C_2
REMARK    2  A    between atoms: C_2  and  C_14
REMARK    3  A    between atoms: C_3  and  C_4
REMARK    4  A    between atoms: C_4  and  C_5
REMARK    5  A    between atoms: C_5  and  P_6
REMARK    6  A    between atoms: C_5  and  P_10
REMARK    7  A    between atoms: P_6  and  O_8
REMARK    8  A    between atoms: P_6  and  O_9
REMARK    9  A    between atoms: P_10  and  O_12
REMARK   10  A    between atoms: P_10  and  O_13
REMARK   11  A    between atoms: C_14  and  C_15
REMARK   12  A    between atoms: C_15  and  C_16
REMARK   13  A    between atoms: C_17  and  C_18
REMARK   14  A    between atoms: C_17  and  C_19
REMARK   15  A    between atoms: C_19  and  N_20
REMARK   16  A    between atoms: N_20  and  C_21
REMARK   17  A    between atoms: C_26  and  C_27
REMARK   18  A    between atoms: C_27  and  O_29
REMARK                            x       y       z     vdW  Elec       q    Type
REMARK                         _______ _______ _______ _____ _____    ______ ____
ROOT
ATOM      1  C   UNL     1       7.006   6.951  17.048  0.00  0.00    +0.000 C 
ENDROOT
BRANCH   1   3
ATOM      2  C   UNL     1       8.431   6.894  19.156  0.00  0.00    +0.000 C 
ATOM      3  C   UNL     1       7.868   7.715  18.025  0.00  0.00    +0.000 C 
ATOM      4  C   UNL     1       8.106   9.024  17.810  0.00  0.00    +0.000 C 
BRANCH   4   5
ATOM      5  C   UNL     1       8.902   9.931  18.691  0.00  0.00    +0.000 C 
BRANCH   5   6
ATOM      6  C   UNL     1       9.617  11.059  17.961  0.00  0.00    +0.000 C 
BRANCH   6   7
ATOM      7  P   UNL     1      10.930  11.880  18.937  0.00  0.00    +0.000 P 
ATOM      8  O   UNL     1      10.952  10.796  20.020  0.00  0.00    +0.000 OA
BRANCH   7   9
ATOM      9  O   UNL     1      12.172  12.655  19.859  0.00  0.00    +0.000 OA
ATOM     10  H   UNL     1      13.001  12.450  19.378  0.00  0.00    +0.000 HD
ENDBRANCH   7   9
BRANCH   7  11
ATOM     11  O   UNL     1      12.082  11.372  17.885  0.00  0.00    +0.000 OA
ATOM     12  H   UNL     1      11.717  11.330  16.980  0.00  0.00    +0.000 HD
ENDBRANCH   7  11
ENDBRANCH   6   7
BRANCH   6  13
ATOM     13  P   UNL     1       8.656  12.603  17.695  0.00  0.00    +0.000 P 
ATOM     14  O   UNL     1       7.416  12.479  16.872  0.00  0.00    +0.000 OA
BRANCH  13  15
ATOM     15  O   UNL     1       9.567  13.801  17.166  0.00  0.00    +0.000 OA
ATOM     16  H   UNL     1       9.176  14.135  16.329  0.00  0.00    +0.000 HD
ENDBRANCH  13  15
BRANCH  13  17
ATOM     17  O   UNL     1       8.346  13.177  19.160  0.00  0.00    +0.000 OA
ATOM     18  H   UNL     1       7.533  13.711  19.238  0.00  0.00    +0.000 HD
ENDBRANCH  13  17
ENDBRANCH   6  13
ENDBRANCH   5   6
ENDBRANCH   4   5
ENDBRANCH   1   3
BRANCH   1  19
ATOM     19  C   UNL     1       7.395   5.473  17.080  0.00  0.00    +0.000 C 
BRANCH  19  20
ATOM     20  C   UNL     1       6.257   4.601  17.489  0.00  0.00    +0.000 C 
ATOM     21  C   UNL     1       5.251   4.142  16.714  0.00  0.00    +0.000 C 
ATOM     22  C   UNL     1       5.117   4.395  15.237  0.00  0.00    +0.000 C 
BRANCH  21  23
ATOM     23  C   UNL     1       4.185   3.254  17.311  0.00  0.00    +0.000 C 
BRANCH  23  24
ATOM     24  N   UNL     1       2.903   3.963  17.229  0.00  0.00    +0.000 N 
ATOM     25  H   UNL     1       2.162   3.270  17.083  0.00  0.00    +0.000 HD
BRANCH  24  26
ATOM     26  C   UNL     1       2.573   4.796  18.326  0.00  0.00    +0.000 A 
ATOM     27  C   UNL     1       2.876   6.172  18.326  0.00  0.00    +0.000 A 
ATOM     28  C   UNL     1       2.546   6.999  19.404  0.00  0.00    +0.000 A 
ATOM     29  C   UNL     1       1.864   6.480  20.497  0.00  0.00    +0.000 A 
ATOM     30  C   UNL     1       1.476   5.143  20.495  0.00  0.00    +0.000 A 
ATOM     31  C   UNL     1       1.792   4.316  19.406  0.00  0.00    +0.000 A 
BRANCH  31  32
ATOM     32  C   UNL     1       1.294   2.915  19.471  0.00  0.00    +0.000 C 
ATOM     33  O   UNL     1       2.032   1.942  19.516  0.00  0.00    +0.000 OA
BRANCH  32  34
ATOM     34  O   UNL     1      -0.056   2.822  19.532  0.00  0.00    +0.000 OA
ATOM     35  H   UNL     1      -0.372   2.791  20.463  0.00  0.00    +0.000 HD
ENDBRANCH  32  34
ENDBRANCH  31  32
ENDBRANCH  24  26
ENDBRANCH  23  24
ENDBRANCH  21  23
ENDBRANCH  19  20
ENDBRANCH   1  19
TORSDOF 16
ENDMDL
MODEL 4
REMARK VINA RESULT:      -6.9      2.394      4.012
REMARK  Name = 
REMARK  18 active torsions:
REMARK  status: ('A' for Active; 'I' for Inactive)
REMARK    1  A    between atoms: C_1  and  C_2
REMARK    2  A    between atoms: C_2  and  C_14
REMARK    3  A    between atoms: C_3  and  C_4
REMARK    4  A    between atoms: C_4  and  C_5
REMARK    5  A    between atoms: C_5  and  P_6
REMARK    6  A    between atoms: C_5  and  P_10
REMARK    7  A    between atoms: P_6  and  O_8
REMARK    8  A    between atoms: P_6  and  O_9
REMARK    9  A    between atoms: P_10  and  O_12
REMARK   10  A    between atoms: P_10  and  O_13
REMARK   11  A    between atoms: C_14  and  C_15
REMARK   12  A    between atoms: C_15  and  C_16
REMARK   13  A    between atoms: C_17  and  C_18
REMARK   14  A    between atoms: C_17  and  C_19
REMARK   15  A    between atoms: C_19  and  N_20
REMARK   16  A    between atoms: N_20  and  C_21
REMARK   17  A    between atoms: C_26  and  C_27
REMARK   18  A    between atoms: C_27  and  O_29
REMARK                            x       y       z     vdW  Elec       q    Type
REMARK                         _______ _______ _______ _____ _____    ______ ____
ROOT
ATOM      1  C   UNL     1       2.275   2.775  17.342  0.00  0.00    +0.000 C 
ENDROOT
BRANCH   1   3
ATOM      2  C   UNL     1       4.089   1.439  18.529  0.00  0.00    +0.000 C 
ATOM      3  C   UNL     1       3.679   2.746  17.899  0.00  0.00    +0.000 C 
ATOM      4  C   UNL     1       4.463   3.834  17.768  0.00  0.00    +0.000 C 
BRANCH   4   5
ATOM      5  C   UNL     1       5.855   3.985  18.289  0.00  0.00    +0.000 C 
BRANCH   5   6
ATOM      6  C   UNL     1       6.815   4.690  17.342  0.00  0.00    +0.000 C 
BRANCH   6   7
ATOM      7  P   UNL     1       6.833   6.513  17.497  0.00  0.00    +0.000 P 
ATOM      8  O   UNL     1       7.751   6.507  18.724  0.00  0.00    +0.000 OA
BRANCH   7   9
ATOM      9  O   UNL     1       6.849   8.237  17.646  0.00  0.00    +0.000 OA
ATOM     10  H   UNL     1       6.006   8.527  17.239  0.00  0.00    +0.000 HD
ENDBRANCH   7   9
BRANCH   7  11
ATOM     11  O   UNL     1       7.886   6.648  16.248  0.00  0.00    +0.000 OA
ATOM     12  H   UNL     1       7.406   6.843  15.421  0.00  0.00    +0.000 HD
ENDBRANCH   7  11
ENDBRANCH   6   7
BRANCH   6  13
ATOM     13  P   UNL     1       6.348   4.707  15.564  0.00  0.00    +0.000 P 
ATOM     14  O   UNL     1       5.400   5.779  15.137  0.00  0.00    +0.000 OA
BRANCH  13  15
ATOM     15  O   UNL     1       5.852   3.280  15.053  0.00  0.00    +0.000 OA
ATOM     16  H   UNL     1       6.512   2.939  14.410  0.00  0.00    +0.000 HD
ENDBRANCH  13  15
BRANCH  13  17
ATOM     17  O   UNL     1       7.731   4.774  14.755  0.00  0.00    +0.000 OA
ATOM     18  H   UNL     1       8.151   5.654  14.714  0.00  0.00    +0.000 HD
ENDBRANCH  13  17
ENDBRANCH   6  13
ENDBRANCH   5   6
ENDBRANCH   4   5
ENDBRANCH   1   3
BRANCH   1  19
ATOM     19  C   UNL     1       1.275   2.606  18.486  0.00  0.00    +0.000 C 
BRANCH  19  20
ATOM     20  C   UNL     1       1.041   3.882  19.221  0.00  0.00    +0.000 C 
ATOM     21  C   UNL     1       1.486   4.220  20.450  0.00  0.00    +0.000 C 
ATOM     22  C   UNL     1       2.371   3.361  21.312  0.00  0.00    +0.000 C 
BRANCH  21  23
ATOM     23  C   UNL     1       1.150   5.575  21.027  0.00  0.00    +0.000 C 
BRANCH  23  24
ATOM     24  N   UNL     1       2.304   6.457  20.820  0.00  0.00    +0.000 N 
ATOM     25  H   UNL     1       3.126   5.873  20.639  0.00  0.00    +0.000 HD
BRANCH  24  26
ATOM     26  C   UNL     1       2.175   7.434  19.803  0.00  0.00    +0.000 A 
ATOM     27  C   UNL     1       2.624   7.197  18.488  0.00  0.00    +0.000 A 
ATOM     28  C   UNL     1       2.491   8.156  17.481  0.00  0.00    +0.000 A 
ATOM     29  C   UNL     1       1.866   9.367  17.748  0.00  0.00    +0.000 A 
ATOM     30  C   UNL     1       1.337   9.603  19.014  0.00  0.00    +0.000 A 
ATOM     31  C   UNL     1       1.454   8.634  20.023  0.00  0.00    +0.000 A 
BRANCH  31  32
ATOM     32  C   UNL     1       0.815   8.954  21.328  0.00  0.00    +0.000 C 
ATOM     33  O   UNL     1       1.412   8.920  22.394  0.00  0.00    +0.000 OA
BRANCH  32  34
ATOM     34  O   UNL     1      -0.478   9.342  21.217  0.00  0.00    +0.000 OA
ATOM     35  H   UNL     1      -1.072   8.768  21.751  0.00  0.00    +0.000 HD
ENDBRANCH  32  34
ENDBRANCH  31  32
ENDBRANCH  24  26
ENDBRANCH  23  24
ENDBRANCH  21  23
ENDBRANCH  19  20
ENDBRANCH   1  19
TORSDOF 16
ENDMDL
MODEL 5
REMARK VINA RESULT:      -6.9      2.097      3.376
REMARK  Name = 
REMARK  18 active torsions:
REMARK  status: ('A' for Active; 'I' for Inactive)
REMARK    1  A    between atoms: C_1  and  C_2
REMARK    2  A    between atoms: C_2  and  C_14
REMARK    3  A    between atoms: C_3  and  C_4
REMARK    4  A    between atoms: C_4  and  C_5
REMARK    5  A    between atoms: C_5  and  P_6
REMARK    6  A    between atoms: C_5  and  P_10
REMARK    7  A    between atoms: P_6  and  O_8
REMARK    8  A    between atoms: P_6  and  O_9
REMARK    9  A    between atoms: P_10  and  O_12
REMARK   10  A    between atoms: P_10  and  O_13
REMARK   11  A    between atoms: C_14  and  C_15
REMARK   12  A    between atoms: C_15  and  C_16
REMARK   13  A    between atoms: C_17  and  C_18
REMARK   14  A    between atoms: C_17  and  C_19
REMARK   15  A    between atoms: C_19  and  N_20
REMARK   16  A    between atoms: N_20  and  C_21
REMARK   17  A    between atoms: C_26  and  C_27
REMARK   18  A    between atoms: C_27  and  O_29
REMARK                            x       y       z     vdW  Elec       q    Type
REMARK                         _______ _______ _______ _____ _____    ______ ____
ROOT
ATOM      1  C   UNL     1       1.458   4.690  20.059  0.00  0.00    +0.000 C 
ENDROOT
BRANCH   1   3
ATOM      2  C   UNL     1       1.849   4.077  17.620  0.00  0.00    +0.000 C 
ATOM      3  C   UNL     1       2.449   4.318  18.982  0.00  0.00    +0.000 C 
ATOM      4  C   UNL     1       3.761   4.268  19.282  0.00  0.00    +0.000 C 
BRANCH   4   5
ATOM      5  C   UNL     1       4.865   3.886  18.350  0.00  0.00    +0.000 C 
BRANCH   5   6
ATOM      6  C   UNL     1       5.601   5.060  17.722  0.00  0.00    +0.000 C 
BRANCH   6   7
ATOM      7  P   UNL     1       6.079   4.807  15.973  0.00  0.00    +0.000 P 
ATOM      8  O   UNL     1       4.729   4.199  15.580  0.00  0.00    +0.000 OA
BRANCH   7   9
ATOM      9  O   UNL     1       6.530   4.568  14.320  0.00  0.00    +0.000 OA
ATOM     10  H   UNL     1       5.679   4.498  13.840  0.00  0.00    +0.000 HD
ENDBRANCH   7   9
BRANCH   7  11
ATOM     11  O   UNL     1       5.874   6.401  15.647  0.00  0.00    +0.000 OA
ATOM     12  H   UNL     1       6.158   6.598  14.733  0.00  0.00    +0.000 HD
ENDBRANCH   7  11
ENDBRANCH   6   7
BRANCH   6  13
ATOM     13  P   UNL     1       7.323   5.350  18.296  0.00  0.00    +0.000 P 
ATOM     14  O   UNL     1       7.926   6.671  17.944  0.00  0.00    +0.000 OA
BRANCH  13  15
ATOM     15  O   UNL     1       8.305   4.158  17.897  0.00  0.00    +0.000 OA
ATOM     16  H   UNL     1       8.514   4.241  16.941  0.00  0.00    +0.000 HD
ENDBRANCH  13  15
BRANCH  13  17
ATOM     17  O   UNL     1       7.296   5.109  19.881  0.00  0.00    +0.000 OA
ATOM     18  H   UNL     1       7.650   4.250  20.180  0.00  0.00    +0.000 HD
ENDBRANCH  13  17
ENDBRANCH   6  13
ENDBRANCH   5   6
ENDBRANCH   4   5
ENDBRANCH   1   3
BRANCH   1  19
ATOM     19  C   UNL     1       1.925   5.968  20.756  0.00  0.00    +0.000 C 
BRANCH  19  20
ATOM     20  C   UNL     1       1.843   7.157  19.860  0.00  0.00    +0.000 C 
ATOM     21  C   UNL     1       1.406   8.396  20.172  0.00  0.00    +0.000 C 
ATOM     22  C   UNL     1       0.954   8.831  21.540  0.00  0.00    +0.000 C 
BRANCH  21  23
ATOM     23  C   UNL     1       1.407   9.483  19.123  0.00  0.00    +0.000 C 
BRANCH  23  24
ATOM     24  N   UNL     1       0.474  10.531  19.551  0.00  0.00    +0.000 N 
ATOM     25  H   UNL     1       0.976  11.424  19.559  0.00  0.00    +0.000 HD
BRANCH  24  26
ATOM     26  C   UNL     1      -0.719  10.656  18.798  0.00  0.00    +0.000 A 
ATOM     27  C   UNL     1      -0.994   9.815  17.703  0.00  0.00    +0.000 A 
ATOM     28  C   UNL     1      -2.174   9.932  16.962  0.00  0.00    +0.000 A 
ATOM     29  C   UNL     1      -3.134  10.868  17.323  0.00  0.00    +0.000 A 
ATOM     30  C   UNL     1      -2.933  11.661  18.449  0.00  0.00    +0.000 A 
ATOM     31  C   UNL     1      -1.756  11.533  19.204  0.00  0.00    +0.000 A 
BRANCH  31  32
ATOM     32  C   UNL     1      -1.650  12.387  20.418  0.00  0.00    +0.000 C 
ATOM     33  O   UNL     1      -1.785  13.601  20.399  0.00  0.00    +0.000 OA
BRANCH  32  34
ATOM     34  O   UNL     1      -1.446  11.684  21.558  0.00  0.00    +0.000 OA
ATOM     35  H   UNL     1      -1.874  12.119  22.330  0.00  0.00    +0.000 HD
ENDBRANCH  32  34
ENDBRANCH  31  32
ENDBRANCH  24  26
ENDBRANCH  23  24
ENDBRANCH  21  23
ENDBRANCH  19  20
ENDBRANCH   1  19
TORSDOF 16
ENDMDL
MODEL 6
REMARK VINA RESULT:      -6.8      1.464      3.099
REMARK  Name = 
REMARK  18 active torsions:
REMARK  status: ('A' for Active; 'I' for Inactive)
REMARK    1  A    between atoms: C_1  and  C_2
REMARK    2  A    between atoms: C_2  and  C_14
REMARK    3  A    between atoms: C_3  and  C_4
REMARK    4  A    between atoms: C_4  and  C_5
REMARK    5  A    between atoms: C_5  and  P_6
REMARK    6  A    between atoms: C_5  and  P_10
REMARK    7  A    between atoms: P_6  and  O_8
REMARK    8  A    between atoms: P_6  and  O_9
REMARK    9  A    between atoms: P_10  and  O_12
REMARK   10  A    between atoms: P_10  and  O_13
REMARK   11  A    between atoms: C_14  and  C_15
REMARK   12  A    between atoms: C_15  and  C_16
REMARK   13  A    between atoms: C_17  and  C_18
REMARK   14  A    between atoms: C_17  and  C_19
REMARK   15  A    between atoms: C_19  and  N_20
REMARK   16  A    between atoms: N_20  and  C_21
REMARK   17  A    between atoms: C_26  and  C_27
REMARK   18  A    between atoms: C_27  and  O_29
REMARK                            x       y       z     vdW  Elec       q    Type
REMARK                         _______ _______ _______ _____ _____    ______ ____
ROOT
ATOM      1  C   UNL     1       2.441   2.812  20.551  0.00  0.00    +0.000 C 
ENDROOT
BRANCH   1   3
ATOM      2  C   UNL     1       2.320   1.995  18.143  0.00  0.00    +0.000 C 
ATOM      3  C   UNL     1       3.069   2.796  19.178  0.00  0.00    +0.000 C 
ATOM      4  C   UNL     1       4.195   3.503  18.959  0.00  0.00    +0.000 C 
BRANCH   4   5
ATOM      5  C   UNL     1       4.961   3.567  17.678  0.00  0.00    +0.000 C 
BRANCH   5   6
ATOM      6  C   UNL     1       5.657   4.895  17.419  0.00  0.00    +0.000 C 
BRANCH   6   7
ATOM      7  P   UNL     1       6.334   5.079  15.729  0.00  0.00    +0.000 P 
ATOM      8  O   UNL     1       5.203   4.281  15.073  0.00  0.00    +0.000 OA
BRANCH   7   9
ATOM      9  O   UNL     1       6.974   5.253  14.131  0.00  0.00    +0.000 OA
ATOM     10  H   UNL     1       6.186   5.249  13.548  0.00  0.00    +0.000 HD
ENDBRANCH   7   9
BRANCH   7  11
ATOM     11  O   UNL     1       5.794   6.625  15.640  0.00  0.00    +0.000 OA
ATOM     12  H   UNL     1       4.850   6.639  15.393  0.00  0.00    +0.000 HD
ENDBRANCH   7  11
ENDBRANCH   6   7
BRANCH   6  13
ATOM     13  P   UNL     1       7.278   5.147  18.247  0.00  0.00    +0.000 P 
ATOM     14  O   UNL     1       8.359   4.178  17.896  0.00  0.00    +0.000 OA
BRANCH  13  15
ATOM     15  O   UNL     1       7.137   5.285  19.830  0.00  0.00    +0.000 OA
ATOM     16  H   UNL     1       6.727   6.156  20.025  0.00  0.00    +0.000 HD
ENDBRANCH  13  15
BRANCH  13  17
ATOM     17  O   UNL     1       7.701   6.659  17.919  0.00  0.00    +0.000 OA
ATOM     18  H   UNL     1       8.661   6.821  17.856  0.00  0.00    +0.000 HD
ENDBRANCH  13  17
ENDBRANCH   6  13
ENDBRANCH   5   6
ENDBRANCH   4   5
ENDBRANCH   1   3
BRANCH   1  19
ATOM     19  C   UNL     1       1.202   3.707  20.529  0.00  0.00    +0.000 C 
BRANCH  19  20
ATOM     20  C   UNL     1       1.532   5.130  20.827  0.00  0.00    +0.000 C 
ATOM     21  C   UNL     1       1.830   6.109  19.946  0.00  0.00    +0.000 C 
ATOM     22  C   UNL     1       1.834   5.950  18.450  0.00  0.00    +0.000 C 
BRANCH  21  23
ATOM     23  C   UNL     1       2.129   7.504  20.443  0.00  0.00    +0.000 C 
BRANCH  23  24
ATOM     24  N   UNL     1       0.853   8.183  20.693  0.00  0.00    +0.000 N 
ATOM     25  H   UNL     1       0.623   8.079  21.686  0.00  0.00    +0.000 HD
BRANCH  24  26
ATOM     26  C   UNL     1       0.784   9.549  20.324  0.00  0.00    +0.000 A 
ATOM     27  C   UNL     1       1.187   9.991  19.048  0.00  0.00    +0.000 A 
ATOM     28  C   UNL     1       1.113  11.337  18.678  0.00  0.00    +0.000 A 
ATOM     29  C   UNL     1       0.594  12.276  19.560  0.00  0.00    +0.000 A 
ATOM     30  C   UNL     1       0.110  11.862  20.798  0.00  0.00    +0.000 A 
ATOM     31  C   UNL     1       0.168  10.508  21.165  0.00  0.00    +0.000 A 
BRANCH  31  32
ATOM     32  C   UNL     1      -0.417  10.153  22.486  0.00  0.00    +0.000 C 
ATOM     33  O   UNL     1      -0.639   9.003  22.835  0.00  0.00    +0.000 OA
BRANCH  32  34
ATOM     34  O   UNL     1      -0.629  11.223  23.290  0.00  0.00    +0.000 OA
ATOM     35  H   UNL     1       0.129  11.848  23.263  0.00  0.00    +0.000 HD
ENDBRANCH  32  34
ENDBRANCH  31  32
ENDBRANCH  24  26
ENDBRANCH  23  24
ENDBRANCH  21  23
ENDBRANCH  19  20
ENDBRANCH   1  19
TORSDOF 16
ENDMDL
MODEL 7
REMARK VINA RESULT:      -6.8      3.427      4.894
REMARK  Name = 
REMARK  18 active torsions:
REMARK  status: ('A' for Active; 'I' for Inactive)
REMARK    1  A    between atoms: C_1  and  C_2
REMARK    2  A    between atoms: C_2  and  C_14
REMARK    3  A    between atoms: C_3  and  C_4
REMARK    4  A    between atoms: C_4  and  C_5
REMARK    5  A    between atoms: C_5  and  P_6
REMARK    6  A    between atoms: C_5  and  P_10
REMARK    7  A    between atoms: P_6  and  O_8
REMARK    8  A    between atoms: P_6  and  O_9
REMARK    9  A    between atoms: P_10  and  O_12
REMARK   10  A    between atoms: P_10  and  O_13
REMARK   11  A    between atoms: C_14  and  C_15
REMARK   12  A    between atoms: C_15  and  C_16
REMARK   13  A    between atoms: C_17  and  C_18
REMARK   14  A    between atoms: C_17  and  C_19
REMARK   15  A    between atoms: C_19  and  N_20
REMARK   16  A    between atoms: N_20  and  C_21
REMARK   17  A    between atoms: C_26  and  C_27
REMARK   18  A    between atoms: C_27  and  O_29
REMARK                            x       y       z     vdW  Elec       q    Type
REMARK                         _______ _______ _______ _____ _____    ______ ____
ROOT
ATOM      1  C   UNL     1       2.787   8.462  18.089  0.00  0.00    +0.000 C 
ENDROOT
BRANCH   1   3
ATOM      2  C   UNL     1       4.479   6.806  17.155  0.00  0.00    +0.000 C 
ATOM      3  C   UNL     1       3.230   7.022  17.969  0.00  0.00    +0.000 C 
ATOM      4  C   UNL     1       2.531   6.062  18.606  0.00  0.00    +0.000 C 
BRANCH   4   5
ATOM      5  C   UNL     1       2.810   4.595  18.563  0.00  0.00    +0.000 C 
BRANCH   5   6
ATOM      6  C   UNL     1       3.077   3.960  19.920  0.00  0.00    +0.000 C 
BRANCH   6   7
ATOM      7  P   UNL     1       4.147   2.476  19.865  0.00  0.00    +0.000 P 
ATOM      8  O   UNL     1       3.554   1.966  18.547  0.00  0.00    +0.000 OA
BRANCH   7   9
ATOM      9  O   UNL     1       5.158   1.073  19.811  0.00  0.00    +0.000 OA
ATOM     10  H   UNL     1       4.596   0.351  20.163  0.00  0.00    +0.000 HD
ENDBRANCH   7   9
BRANCH   7  11
ATOM     11  O   UNL     1       5.428   3.371  19.369  0.00  0.00    +0.000 OA
ATOM     12  H   UNL     1       6.182   3.247  19.977  0.00  0.00    +0.000 HD
ENDBRANCH   7  11
ENDBRANCH   6   7
BRANCH   6  13
ATOM     13  P   UNL     1       1.666   3.084  20.708  0.00  0.00    +0.000 P 
ATOM     14  O   UNL     1       1.827   2.729  22.150  0.00  0.00    +0.000 OA
BRANCH  13  15
ATOM     15  O   UNL     1       1.192   1.815  19.865  0.00  0.00    +0.000 OA
ATOM     16  H   UNL     1       1.897   1.133  19.917  0.00  0.00    +0.000 HD
ENDBRANCH  13  15
BRANCH  13  17
ATOM     17  O   UNL     1       0.386   4.018  20.461  0.00  0.00    +0.000 OA
ATOM     18  H   UNL     1       0.486   4.948  20.739  0.00  0.00    +0.000 HD
ENDBRANCH  13  17
ENDBRANCH   6  13
ENDBRANCH   5   6
ENDBRANCH   4   5
ENDBRANCH   1   3
BRANCH   1  19
ATOM     19  C   UNL     1       1.290   8.555  17.789  0.00  0.00    +0.000 C 
BRANCH  19  20
ATOM     20  C   UNL     1       0.753   9.924  18.034  0.00  0.00    +0.000 C 
ATOM     21  C   UNL     1       0.155  10.387  19.152  0.00  0.00    +0.000 C 
ATOM     22  C   UNL     1      -0.041   9.594  20.415  0.00  0.00    +0.000 C 
BRANCH  21  23
ATOM     23  C   UNL     1      -0.319  11.820  19.215  0.00  0.00    +0.000 C 
BRANCH  23  24
ATOM     24  N   UNL     1      -1.599  11.910  18.503  0.00  0.00    +0.000 N 
ATOM     25  H   UNL     1      -1.708  11.066  17.932  0.00  0.00    +0.000 HD
BRANCH  24  26
ATOM     26  C   UNL     1      -2.751  12.102  19.303  0.00  0.00    +0.000 A 
ATOM     27  C   UNL     1      -2.674  12.684  20.583  0.00  0.00    +0.000 A 
ATOM     28  C   UNL     1      -3.812  12.882  21.372  0.00  0.00    +0.000 A 
ATOM     29  C   UNL     1      -5.066  12.540  20.885  0.00  0.00    +0.000 A 
ATOM     30  C   UNL     1      -5.190  12.039  19.593  0.00  0.00    +0.000 A 
ATOM     31  C   UNL     1      -4.051  11.855  18.793  0.00  0.00    +0.000 A 
BRANCH  31  32
ATOM     32  C   UNL     1      -4.284  11.361  17.409  0.00  0.00    +0.000 C 
ATOM     33  O   UNL     1      -4.979  11.949  16.594  0.00  0.00    +0.000 OA
BRANCH  32  34
ATOM     34  O   UNL     1      -3.607  10.224  17.118  0.00  0.00    +0.000 OA
ATOM     35  H   UNL     1      -3.774   9.525  17.790  0.00  0.00    +0.000 HD
ENDBRANCH  32  34
ENDBRANCH  31  32
ENDBRANCH  24  26
ENDBRANCH  23  24
ENDBRANCH  21  23
ENDBRANCH  19  20
ENDBRANCH   1  19
TORSDOF 16
ENDMDL
MODEL 8
REMARK VINA RESULT:      -6.8      3.342      4.224
REMARK  Name = 
REMARK  18 active torsions:
REMARK  status: ('A' for Active; 'I' for Inactive)
REMARK    1  A    between atoms: C_1  and  C_2
REMARK    2  A    between atoms: C_2  and  C_14
REMARK    3  A    between atoms: C_3  and  C_4
REMARK    4  A    between atoms: C_4  and  C_5
REMARK    5  A    between atoms: C_5  and  P_6
REMARK    6  A    between atoms: C_5  and  P_10
REMARK    7  A    between atoms: P_6  and  O_8
REMARK    8  A    between atoms: P_6  and  O_9
REMARK    9  A    between atoms: P_10  and  O_12
REMARK   10  A    between atoms: P_10  and  O_13
REMARK   11  A    between atoms: C_14  and  C_15
REMARK   12  A    between atoms: C_15  and  C_16
REMARK   13  A    between atoms: C_17  and  C_18
REMARK   14  A    between atoms: C_17  and  C_19
REMARK   15  A    between atoms: C_19  and  N_20
REMARK   16  A    between atoms: N_20  and  C_21
REMARK   17  A    between atoms: C_26  and  C_27
REMARK   18  A    between atoms: C_27  and  O_29
REMARK                            x       y       z     vdW  Elec       q    Type
REMARK                         _______ _______ _______ _____ _____    ______ ____
ROOT
ATOM      1  C   UNL     1       2.292   7.624  19.259  0.00  0.00    +0.000 C 
ENDROOT
BRANCH   1   3
ATOM      2  C   UNL     1       2.147   5.144  19.818  0.00  0.00    +0.000 C 
ATOM      3  C   UNL     1       2.680   6.210  18.894  0.00  0.00    +0.000 C 
ATOM      4  C   UNL     1       3.414   5.993  17.786  0.00  0.00    +0.000 C 
BRANCH   4   5
ATOM      5  C   UNL     1       3.912   4.669  17.304  0.00  0.00    +0.000 C 
BRANCH   5   6
ATOM      6  C   UNL     1       5.417   4.594  17.095  0.00  0.00    +0.000 C 
BRANCH   6   7
ATOM      7  P   UNL     1       6.409   5.030  18.570  0.00  0.00    +0.000 P 
ATOM      8  O   UNL     1       5.737   3.983  19.464  0.00  0.00    +0.000 OA
BRANCH   7   9
ATOM      9  O   UNL     1       7.346   5.441  19.965  0.00  0.00    +0.000 OA
ATOM     10  H   UNL     1       7.251   4.670  20.562  0.00  0.00    +0.000 HD
ENDBRANCH   7   9
BRANCH   7  11
ATOM     11  O   UNL     1       7.711   4.228  17.979  0.00  0.00    +0.000 OA
ATOM     12  H   UNL     1       7.423   3.507  17.387  0.00  0.00    +0.000 HD
ENDBRANCH   7  11
ENDBRANCH   6   7
BRANCH   6  13
ATOM     13  P   UNL     1       6.165   5.897  16.036  0.00  0.00    +0.000 P 
ATOM     14  O   UNL     1       5.236   6.613  15.111  0.00  0.00    +0.000 OA
BRANCH  13  15
ATOM     15  O   UNL     1       7.452   5.377  15.250  0.00  0.00    +0.000 OA
ATOM     16  H   UNL     1       7.456   4.395  15.287  0.00  0.00    +0.000 HD
ENDBRANCH  13  15
BRANCH  13  17
ATOM     17  O   UNL     1       6.900   6.904  17.044  0.00  0.00    +0.000 OA
ATOM     18  H   UNL     1       7.857   7.023  16.894  0.00  0.00    +0.000 HD
ENDBRANCH  13  17
ENDBRANCH   6  13
ENDBRANCH   5   6
ENDBRANCH   4   5
ENDBRANCH   1   3
BRANCH   1  19
ATOM     19  C   UNL     1       1.626   8.291  18.055  0.00  0.00    +0.000 C 
BRANCH  19  20
ATOM     20  C   UNL     1       2.100   9.690  17.855  0.00  0.00    +0.000 C 
ATOM     21  C   UNL     1       1.641  10.809  18.454  0.00  0.00    +0.000 C 
ATOM     22  C   UNL     1       0.564  10.845  19.504  0.00  0.00    +0.000 C 
BRANCH  21  23
ATOM     23  C   UNL     1       2.260  12.148  18.126  0.00  0.00    +0.000 C 
BRANCH  23  24
ATOM     24  N   UNL     1       1.991  13.060  19.244  0.00  0.00    +0.000 N 
ATOM     25  H   UNL     1       2.832  13.109  19.827  0.00  0.00    +0.000 HD
BRANCH  24  26
ATOM     26  C   UNL     1       1.567  14.367  18.901  0.00  0.00    +0.000 A 
ATOM     27  C   UNL     1       0.213  14.749  18.982  0.00  0.00    +0.000 A 
ATOM     28  C   UNL     1      -0.208  16.041  18.651  0.00  0.00    +0.000 A 
ATOM     29  C   UNL     1       0.720  17.001  18.269  0.00  0.00    +0.000 A 
ATOM     30  C   UNL     1       2.075  16.682  18.257  0.00  0.00    +0.000 A 
ATOM     31  C   UNL     1       2.501  15.390  18.605  0.00  0.00    +0.000 A 
BRANCH  31  32
ATOM     32  C   UNL     1       3.971  15.156  18.612  0.00  0.00    +0.000 C 
ATOM     33  O   UNL     1       4.663  15.211  17.607  0.00  0.00    +0.000 OA
BRANCH  32  34
ATOM     34  O   UNL     1       4.478  14.931  19.848  0.00  0.00    +0.000 OA
ATOM     35  H   UNL     1       4.370  15.717  20.429  0.00  0.00    +0.000 HD
ENDBRANCH  32  34
ENDBRANCH  31  32
ENDBRANCH  24  26
ENDBRANCH  23  24
ENDBRANCH  21  23
ENDBRANCH  19  20
ENDBRANCH   1  19
TORSDOF 16
ENDMDL
MODEL 9
REMARK VINA RESULT:      -6.7      3.609      4.977
REMARK  Name = 
REMARK  18 active torsions:
REMARK  status: ('A' for Active; 'I' for Inactive)
REMARK    1  A    between atoms: C_1  and  C_2
REMARK    2  A    between atoms: C_2  and  C_14
REMARK    3  A    between atoms: C_3  and  C_4
REMARK    4  A    between atoms: C_4  and  C_5
REMARK    5  A    between atoms: C_5  and  P_6
REMARK    6  A    between atoms: C_5  and  P_10
REMARK    7  A    between atoms: P_6  and  O_8
REMARK    8  A    between atoms: P_6  and  O_9
REMARK    9  A    between atoms: P_10  and  O_12
REMARK   10  A    between atoms: P_10  and  O_13
REMARK   11  A    between atoms: C_14  and  C_15
REMARK   12  A    between atoms: C_15  and  C_16
REMARK   13  A    between atoms: C_17  and  C_18
REMARK   14  A    between atoms: C_17  and  C_19
REMARK   15  A    between atoms: C_19  and  N_20
REMARK   16  A    between atoms: N_20  and  C_21
REMARK   17  A    between atoms: C_26  and  C_27
REMARK   18  A    between atoms: C_27  and  O_29
REMARK                            x       y       z     vdW  Elec       q    Type
REMARK                         _______ _______ _______ _____ _____    ______ ____
ROOT
ATOM      1  C   UNL     1       3.622   7.430  17.536  0.00  0.00    +0.000 C 
ENDROOT
BRANCH   1   3
ATOM      2  C   UNL     1       4.851   5.398  16.620  0.00  0.00    +0.000 C 
ATOM      3  C   UNL     1       4.216   6.068  17.811  0.00  0.00    +0.000 C 
ATOM      4  C   UNL     1       4.180   5.574  19.064  0.00  0.00    +0.000 C 
BRANCH   4   5
ATOM      5  C   UNL     1       4.686   4.237  19.498  0.00  0.00    +0.000 C 
BRANCH   5   6
ATOM      6  C   UNL     1       3.600   3.236  19.868  0.00  0.00    +0.000 C 
BRANCH   6   7
ATOM      7  P   UNL     1       2.644   2.595  18.445  0.00  0.00    +0.000 P 
ATOM      8  O   UNL     1       3.872   1.995  17.753  0.00  0.00    +0.000 OA
BRANCH   7   9
ATOM      9  O   UNL     1       1.741   1.989  17.100  0.00  0.00    +0.000 OA
ATOM     10  H   UNL     1       1.734   2.728  16.455  0.00  0.00    +0.000 HD
ENDBRANCH   7   9
BRANCH   7  11
ATOM     11  O   UNL     1       2.078   1.344  19.341  0.00  0.00    +0.000 OA
ATOM     12  H   UNL     1       1.265   0.982  18.939  0.00  0.00    +0.000 HD
ENDBRANCH   7  11
ENDBRANCH   6   7
BRANCH   6  13
ATOM     13  P   UNL     1       2.126   3.910  20.734  0.00  0.00    +0.000 P 
ATOM     14  O   UNL     1       2.243   5.304  21.257  0.00  0.00    +0.000 OA
BRANCH  13  15
ATOM     15  O   UNL     1       1.585   2.926  21.868  0.00  0.00    +0.000 OA
ATOM     16  H   UNL     1       1.955   3.220  22.729  0.00  0.00    +0.000 HD
ENDBRANCH  13  15
BRANCH  13  17
ATOM     17  O   UNL     1       0.910   3.759  19.699  0.00  0.00    +0.000 OA
ATOM     18  H   UNL     1       0.056   4.123  19.999  0.00  0.00    +0.000 HD
ENDBRANCH  13  17
ENDBRANCH   6  13
ENDBRANCH   5   6
ENDBRANCH   4   5
ENDBRANCH   1   3
BRANCH   1  19
ATOM     19  C   UNL     1       2.234   7.512  18.173  0.00  0.00    +0.000 C 
BRANCH  19  20
ATOM     20  C   UNL     1       1.695   8.902  18.165  0.00  0.00    +0.000 C 
ATOM     21  C   UNL     1       1.116   9.567  19.187  0.00  0.00    +0.000 C 
ATOM     22  C   UNL     1       0.949   9.027  20.582  0.00  0.00    +0.000 C 
BRANCH  21  23
ATOM     23  C   UNL     1       0.636  10.986  18.989  0.00  0.00    +0.000 C 
BRANCH  23  24
ATOM     24  N   UNL     1      -0.452  10.965  18.005  0.00  0.00    +0.000 N 
ATOM     25  H   UNL     1      -0.524  10.016  17.625  0.00  0.00    +0.000 HD
BRANCH  24  26
ATOM     26  C   UNL     1      -1.721  11.398  18.461  0.00  0.00    +0.000 A 
ATOM     27  C   UNL     1      -1.873  12.080  19.685  0.00  0.00    +0.000 A 
ATOM     28  C   UNL     1      -3.123  12.514  20.135  0.00  0.00    +0.000 A 
ATOM     29  C   UNL     1      -4.254  12.316  19.353  0.00  0.00    +0.000 A 
ATOM     30  C   UNL     1      -4.129  11.719  18.102  0.00  0.00    +0.000 A 
ATOM     31  C   UNL     1      -2.872  11.297  17.641  0.00  0.00    +0.000 A 
BRANCH  31  32
ATOM     32  C   UNL     1      -2.828  10.715  16.272  0.00  0.00    +0.000 C 
ATOM     33  O   UNL     1      -2.470   9.570  16.041  0.00  0.00    +0.000 OA
BRANCH  32  34
ATOM     34  O   UNL     1      -3.277  11.557  15.310  0.00  0.00    +0.000 OA
ATOM     35  H   UNL     1      -2.594  12.223  15.068  0.00  0.00    +0.000 HD
ENDBRANCH  32  34
ENDBRANCH  31  32
ENDBRANCH  24  26
ENDBRANCH  23  24
ENDBRANCH  21  23
ENDBRANCH  19  20
ENDBRANCH   1  19
TORSDOF 16
ENDMDL
