MODEL 1
REMARK VINA RESULT:      -7.5      0.000      0.000
REMARK  Name = 
REMARK  4 active torsions:
REMARK  status: ('A' for Active; 'I' for Inactive)
REMARK    1  A    between atoms: C_5  and  C_6
REMARK    2  A    between atoms: C_9  and  S_10
REMARK    3  A    between atoms: S_10  and  C_11
REMARK    4  A    between atoms: C_11  and  C_12
REMARK                            x       y       z     vdW  Elec       q    Type
REMARK                         _______ _______ _______ _____ _____    ______ ____
ROOT
ATOM      1  C   UNL     1       8.121   8.562  18.199  0.00  0.00    +0.000 A 
ATOM      2  C   UNL     1       8.411   7.407  18.916  0.00  0.00    +0.000 A 
ATOM      3  C   UNL     1       7.826   6.196  18.538  0.00  0.00    +0.000 A 
ATOM      4  C   UNL     1       6.968   6.173  17.453  0.00  0.00    +0.000 A 
ATOM      5  N   UNL     1       6.676   7.306  16.787  0.00  0.00    +0.000 NA
ATOM      6  N   UNL     1       7.254   8.504  17.162  0.00  0.00    +0.000 NA
ENDROOT
BRANCH   1  11
ATOM      7 CL   UNL     1      10.475  13.967  19.427  0.00  0.00    +0.000 Cl
ATOM      8  C   UNL     1       9.828  12.418  19.060  0.00  0.00    +0.000 A 
ATOM      9  C   UNL     1       9.059  12.243  17.915  0.00  0.00    +0.000 A 
ATOM     10  C   UNL     1       8.514  10.985  17.627  0.00  0.00    +0.000 A 
ATOM     11  C   UNL     1       8.727   9.879  18.474  0.00  0.00    +0.000 A 
ATOM     12  C   UNL     1       9.517  10.090  19.621  0.00  0.00    +0.000 A 
ATOM     13  C   UNL     1      10.064  11.345  19.915  0.00  0.00    +0.000 A 
ENDBRANCH   1  11
BRANCH   4  14
ATOM     14  S   UNL     1       6.194   4.652  16.964  0.00  0.00    +0.000 S 
BRANCH  14  15
ATOM     15  C   UNL     1       4.454   5.202  16.846  0.00  0.00    +0.000 C 
BRANCH  15  16
ATOM     16  C   UNL     1       3.515   4.160  17.414  0.00  0.00    +0.000 A 
ATOM     17  C   UNL     1       2.201   4.498  17.739  0.00  0.00    +0.000 A 
ATOM     18  C   UNL     1       1.375   3.531  18.306  0.00  0.00    +0.000 A 
ATOM     19  C   UNL     1       1.877   2.257  18.537  0.00  0.00    +0.000 A 
ATOM     20  C   UNL     1       3.189   1.998  18.180  0.00  0.00    +0.000 A 
ATOM     21  N   UNL     1       4.014   2.914  17.624  0.00  0.00    +0.000 NA
ENDBRANCH  15  16
ENDBRANCH  14  15
ENDBRANCH   4  14
TORSDOF 4
ENDMDL
MODEL 2
REMARK VINA RESULT:      -7.5      0.196      1.069
REMARK  Name = 
REMARK  4 active torsions:
REMARK  status: ('A' for Active; 'I' for Inactive)
REMARK    1  A    between atoms: C_5  and  C_6
REMARK    2  A    between atoms: C_9  and  S_10
REMARK    3  A    between atoms: S_10  and  C_11
REMARK    4  A    between atoms: C_11  and  C_12
REMARK                            x       y       z     vdW  Elec       q    Type
REMARK                         _______ _______ _______ _____ _____    ______ ____
ROOT
ATOM      1  C   UNL     1       8.047   8.490  18.144  0.00  0.00    +0.000 A 
ATOM      2  C   UNL     1       8.311   7.334  18.869  0.00  0.00    +0.000 A 
ATOM      3  C   UNL     1       7.723   6.128  18.479  0.00  0.00    +0.000 A 
ATOM      4  C   UNL     1       6.890   6.111  17.375  0.00  0.00    +0.000 A 
ATOM      5  N   UNL     1       6.624   7.245  16.701  0.00  0.00    +0.000 NA
ATOM      6  N   UNL     1       7.204   8.438  17.087  0.00  0.00    +0.000 NA
ENDROOT
BRANCH   1  11
ATOM      7 CL   UNL     1      10.663  13.809  19.207  0.00  0.00    +0.000 Cl
ATOM      8  C   UNL     1       9.893  12.299  18.921  0.00  0.00    +0.000 A 
ATOM      9  C   UNL     1      10.123  11.232  19.781  0.00  0.00    +0.000 A 
ATOM     10  C   UNL     1       9.513   9.995  19.537  0.00  0.00    +0.000 A 
ATOM     11  C   UNL     1       8.660   9.801  18.431  0.00  0.00    +0.000 A 
ATOM     12  C   UNL     1       8.443  10.906  17.584  0.00  0.00    +0.000 A 
ATOM     13  C   UNL     1       9.051  12.144  17.824  0.00  0.00    +0.000 A 
ENDBRANCH   1  11
BRANCH   4  14
ATOM     14  S   UNL     1       6.113   4.596  16.870  0.00  0.00    +0.000 S 
BRANCH  14  15
ATOM     15  C   UNL     1       4.359   5.110  16.902  0.00  0.00    +0.000 C 
BRANCH  15  16
ATOM     16  C   UNL     1       3.489   4.035  17.516  0.00  0.00    +0.000 A 
ATOM     17  C   UNL     1       2.125   4.259  17.712  0.00  0.00    +0.000 A 
ATOM     18  C   UNL     1       1.360   3.270  18.324  0.00  0.00    +0.000 A 
ATOM     19  C   UNL     1       1.969   2.089  18.728  0.00  0.00    +0.000 A 
ATOM     20  C   UNL     1       3.325   1.940  18.492  0.00  0.00    +0.000 A 
ATOM     21  N   UNL     1       4.094   2.879  17.896  0.00  0.00    +0.000 NA
ENDBRANCH  15  16
ENDBRANCH  14  15
ENDBRANCH   4  14
TORSDOF 4
ENDMDL
MODEL 3
REMARK VINA RESULT:      -7.5      6.093      7.418
REMARK  Name = 
REMARK  4 active torsions:
REMARK  status: ('A' for Active; 'I' for Inactive)
REMARK    1  A    between atoms: C_5  and  C_6
REMARK    2  A    between atoms: C_9  and  S_10
REMARK    3  A    between atoms: S_10  and  C_11
REMARK    4  A    between atoms: C_11  and  C_12
REMARK                            x       y       z     vdW  Elec       q    Type
REMARK                         _______ _______ _______ _____ _____    ______ ____
ROOT
ATOM      1  C   UNL     1       0.974   9.125  20.141  0.00  0.00    +0.000 A 
ATOM      2  C   UNL     1       1.273   9.340  18.801  0.00  0.00    +0.000 A 
ATOM      3  C   UNL     1       2.044   8.404  18.109  0.00  0.00    +0.000 A 
ATOM      4  C   UNL     1       2.495   7.278  18.774  0.00  0.00    +0.000 A 
ATOM      5  N   UNL     1       2.219   7.099  20.080  0.00  0.00    +0.000 NA
ATOM      6  N   UNL     1       1.457   8.025  20.765  0.00  0.00    +0.000 NA
ENDROOT
BRANCH   1  11
ATOM      7 CL   UNL     1      -2.633  12.655  23.426  0.00  0.00    +0.000 Cl
ATOM      8  C   UNL     1      -1.581  11.666  22.495  0.00  0.00    +0.000 A 
ATOM      9  C   UNL     1      -1.390  11.938  21.146  0.00  0.00    +0.000 A 
ATOM     10  C   UNL     1      -0.548  11.120  20.381  0.00  0.00    +0.000 A 
ATOM     11  C   UNL     1       0.120  10.016  20.950  0.00  0.00    +0.000 A 
ATOM     12  C   UNL     1      -0.090   9.774  22.322  0.00  0.00    +0.000 A 
ATOM     13  C   UNL     1      -0.931  10.588  23.090  0.00  0.00    +0.000 A 
ENDBRANCH   1  11
BRANCH   4  14
ATOM     14  S   UNL     1       3.495   6.083  17.924  0.00  0.00    +0.000 S 
BRANCH  14  15
ATOM     15  C   UNL     1       2.307   4.698  17.804  0.00  0.00    +0.000 C 
BRANCH  15  16
ATOM     16  C   UNL     1       2.283   3.890  19.083  0.00  0.00    +0.000 A 
ATOM     17  C   UNL     1       1.099   3.758  19.810  0.00  0.00    +0.000 A 
ATOM     18  C   UNL     1       1.119   3.050  21.009  0.00  0.00    +0.000 A 
ATOM     19  C   UNL     1       2.312   2.496  21.454  0.00  0.00    +0.000 A 
ATOM     20  C   UNL     1       3.442   2.666  20.671  0.00  0.00    +0.000 A 
ATOM     21  N   UNL     1       3.454   3.343  19.501  0.00  0.00    +0.000 NA
ENDBRANCH  15  16
ENDBRANCH  14  15
ENDBRANCH   4  14
TORSDOF 4
ENDMDL
MODEL 4
REMARK VINA RESULT:      -7.4      5.113      6.815
REMARK  Name = 
REMARK  4 active torsions:
REMARK  status: ('A' for Active; 'I' for Inactive)
REMARK    1  A    between atoms: C_5  and  C_6
REMARK    2  A    between atoms: C_9  and  S_10
REMARK    3  A    between atoms: S_10  and  C_11
REMARK    4  A    between atoms: C_11  and  C_12
REMARK                            x       y       z     vdW  Elec       q    Type
REMARK                         _______ _______ _______ _____ _____    ______ ____
ROOT
ATOM      1  C   UNL     1       2.655   7.216  18.506  0.00  0.00    +0.000 A 
ATOM      2  C   UNL     1       2.522   5.904  18.946  0.00  0.00    +0.000 A 
ATOM      3  C   UNL     1       3.402   4.928  18.474  0.00  0.00    +0.000 A 
ATOM      4  C   UNL     1       4.391   5.290  17.576  0.00  0.00    +0.000 A 
ATOM      5  N   UNL     1       4.487   6.559  17.139  0.00  0.00    +0.000 NA
ATOM      6  N   UNL     1       3.616   7.525  17.605  0.00  0.00    +0.000 NA
ENDROOT
BRANCH   1  11
ATOM      7 CL   UNL     1      -0.886  11.685  20.445  0.00  0.00    +0.000 Cl
ATOM      8  C   UNL     1       0.149  10.427  19.897  0.00  0.00    +0.000 A 
ATOM      9  C   UNL     1       0.533  10.380  18.563  0.00  0.00    +0.000 A 
ATOM     10  C   UNL     1       1.360   9.343  18.111  0.00  0.00    +0.000 A 
ATOM     11  C   UNL     1       1.819   8.335  18.984  0.00  0.00    +0.000 A 
ATOM     12  C   UNL     1       1.416   8.418  20.331  0.00  0.00    +0.000 A 
ATOM     13  C   UNL     1       0.590   9.452  20.787  0.00  0.00    +0.000 A 
ENDBRANCH   1  11
BRANCH   4  14
ATOM     14  S   UNL     1       5.510   4.065  16.944  0.00  0.00    +0.000 S 
BRANCH  14  15
ATOM     15  C   UNL     1       6.745   5.144  16.136  0.00  0.00    +0.000 C 
BRANCH  15  16
ATOM     16  C   UNL     1       6.843   4.846  14.657  0.00  0.00    +0.000 A 
ATOM     17  C   UNL     1       6.006   3.894  14.073  0.00  0.00    +0.000 A 
ATOM     18  C   UNL     1       6.154   3.605  12.719  0.00  0.00    +0.000 A 
ATOM     19  C   UNL     1       7.129   4.265  11.983  0.00  0.00    +0.000 A 
ATOM     20  C   UNL     1       7.916   5.201  12.634  0.00  0.00    +0.000 A 
ATOM     21  N   UNL     1       7.794   5.507  13.945  0.00  0.00    +0.000 NA
ENDBRANCH  15  16
ENDBRANCH  14  15
ENDBRANCH   4  14
TORSDOF 4
ENDMDL
MODEL 5
REMARK VINA RESULT:      -7.3      0.835      1.002
REMARK  Name = 
REMARK  4 active torsions:
REMARK  status: ('A' for Active; 'I' for Inactive)
REMARK    1  A    between atoms: C_5  and  C_6
REMARK    2  A    between atoms: C_9  and  S_10
REMARK    3  A    between atoms: S_10  and  C_11
REMARK    4  A    between atoms: C_11  and  C_12
REMARK                            x       y       z     vdW  Elec       q    Type
REMARK                         _______ _______ _______ _____ _____    ______ ____
ROOT
ATOM      1  C   UNL     1       8.000   8.495  18.101  0.00  0.00    +0.000 A 
ATOM      2  C   UNL     1       8.305   7.334  18.801  0.00  0.00    +0.000 A 
ATOM      3  C   UNL     1       7.706   6.129  18.430  0.00  0.00    +0.000 A 
ATOM      4  C   UNL     1       6.818   6.116  17.369  0.00  0.00    +0.000 A 
ATOM      5  N   UNL     1       6.513   7.255  16.719  0.00  0.00    +0.000 NA
ATOM      6  N   UNL     1       7.105   8.448  17.087  0.00  0.00    +0.000 NA
ENDROOT
BRANCH   1  11
ATOM      7 CL   UNL     1      10.409  13.881  19.308  0.00  0.00    +0.000 Cl
ATOM      8  C   UNL     1       9.745  12.338  18.946  0.00  0.00    +0.000 A 
ATOM      9  C   UNL     1       8.917  12.184  17.840  0.00  0.00    +0.000 A 
ATOM     10  C   UNL     1       8.359  10.931  17.556  0.00  0.00    +0.000 A 
ATOM     11  C   UNL     1       8.619   9.808  18.369  0.00  0.00    +0.000 A 
ATOM     12  C   UNL     1       9.468   9.999  19.477  0.00  0.00    +0.000 A 
ATOM     13  C   UNL     1      10.028  11.249  19.765  0.00  0.00    +0.000 A 
ENDBRANCH   1  11
BRANCH   4  14
ATOM     14  S   UNL     1       6.026   4.602  16.890  0.00  0.00    +0.000 S 
BRANCH  14  15
ATOM     15  C   UNL     1       5.486   3.991  18.527  0.00  0.00    +0.000 C 
BRANCH  15  16
ATOM     16  C   UNL     1       3.982   3.844  18.584  0.00  0.00    +0.000 A 
ATOM     17  C   UNL     1       3.180   4.427  17.603  0.00  0.00    +0.000 A 
ATOM     18  C   UNL     1       1.796   4.317  17.708  0.00  0.00    +0.000 A 
ATOM     19  C   UNL     1       1.247   3.635  18.786  0.00  0.00    +0.000 A 
ATOM     20  C   UNL     1       2.111   3.078  19.714  0.00  0.00    +0.000 A 
ATOM     21  N   UNL     1       3.457   3.164  19.636  0.00  0.00    +0.000 NA
ENDBRANCH  15  16
ENDBRANCH  14  15
ENDBRANCH   4  14
TORSDOF 4
ENDMDL
MODEL 6
REMARK VINA RESULT:      -7.3      0.630      1.049
REMARK  Name = 
REMARK  4 active torsions:
REMARK  status: ('A' for Active; 'I' for Inactive)
REMARK    1  A    between atoms: C_5  and  C_6
REMARK    2  A    between atoms: C_9  and  S_10
REMARK    3  A    between atoms: S_10  and  C_11
REMARK    4  A    between atoms: C_11  and  C_12
REMARK                            x       y       z     vdW  Elec       q    Type
REMARK                         _______ _______ _______ _____ _____    ______ ____
ROOT
ATOM      1  C   UNL     1       8.173   8.565  18.238  0.00  0.00    +0.000 A 
ATOM      2  C   UNL     1       8.441   7.447  19.020  0.00  0.00    +0.000 A 
ATOM      3  C   UNL     1       7.869   6.218  18.683  0.00  0.00    +0.000 A 
ATOM      4  C   UNL     1       7.047   6.140  17.573  0.00  0.00    +0.000 A 
ATOM      5  N   UNL     1       6.776   7.238  16.843  0.00  0.00    +0.000 NA
ATOM      6  N   UNL     1       7.340   8.454  17.177  0.00  0.00    +0.000 NA
ENDROOT
BRANCH   1  11
ATOM      7 CL   UNL     1      10.490  14.024  19.284  0.00  0.00    +0.000 Cl
ATOM      8  C   UNL     1       9.853  12.460  18.968  0.00  0.00    +0.000 A 
ATOM      9  C   UNL     1       9.038  12.255  17.861  0.00  0.00    +0.000 A 
ATOM     10  C   UNL     1       8.501  10.985  17.614  0.00  0.00    +0.000 A 
ATOM     11  C   UNL     1       8.770   9.895  18.467  0.00  0.00    +0.000 A 
ATOM     12  C   UNL     1       9.605  10.136  19.576  0.00  0.00    +0.000 A 
ATOM     13  C   UNL     1      10.143  11.403  19.827  0.00  0.00    +0.000 A 
ENDBRANCH   1  11
BRANCH   4  14
ATOM     14  S   UNL     1       6.290   4.595  17.135  0.00  0.00    +0.000 S 
BRANCH  14  15
ATOM     15  C   UNL     1       4.583   5.158  16.800  0.00  0.00    +0.000 C 
BRANCH  15  16
ATOM     16  C   UNL     1       3.570   4.222  17.424  0.00  0.00    +0.000 A 
ATOM     17  C   UNL     1       3.835   2.856  17.514  0.00  0.00    +0.000 A 
ATOM     18  C   UNL     1       2.864   2.013  18.048  0.00  0.00    +0.000 A 
ATOM     19  C   UNL     1       1.656   2.549  18.474  0.00  0.00    +0.000 A 
ATOM     20  C   UNL     1       1.472   3.917  18.357  0.00  0.00    +0.000 A 
ATOM     21  N   UNL     1       2.397   4.761  17.848  0.00  0.00    +0.000 NA
ENDBRANCH  15  16
ENDBRANCH  14  15
ENDBRANCH   4  14
TORSDOF 4
ENDMDL
MODEL 7
REMARK VINA RESULT:      -7.3      0.650      1.496
REMARK  Name = 
REMARK  4 active torsions:
REMARK  status: ('A' for Active; 'I' for Inactive)
REMARK    1  A    between atoms: C_5  and  C_6
REMARK    2  A    between atoms: C_9  and  S_10
REMARK    3  A    between atoms: S_10  and  C_11
REMARK    4  A    between atoms: C_11  and  C_12
REMARK                            x       y       z     vdW  Elec       q    Type
REMARK                         _______ _______ _______ _____ _____    ______ ____
ROOT
ATOM      1  C   UNL     1       8.227   8.659  18.303  0.00  0.00    +0.000 A 
ATOM      2  C   UNL     1       8.488   7.514  19.048  0.00  0.00    +0.000 A 
ATOM      3  C   UNL     1       7.916   6.299  18.665  0.00  0.00    +0.000 A 
ATOM      4  C   UNL     1       7.101   6.260  17.548  0.00  0.00    +0.000 A 
ATOM      5  N   UNL     1       6.837   7.384  16.854  0.00  0.00    +0.000 NA
ATOM      6  N   UNL     1       7.401   8.586  17.233  0.00  0.00    +0.000 NA
ENDROOT
BRANCH   1  11
ATOM      7 CL   UNL     1      10.791  14.008  19.343  0.00  0.00    +0.000 Cl
ATOM      8  C   UNL     1      10.035  12.490  19.062  0.00  0.00    +0.000 A 
ATOM      9  C   UNL     1      10.193  11.458  19.979  0.00  0.00    +0.000 A 
ATOM     10  C   UNL     1       9.594  10.215  19.740  0.00  0.00    +0.000 A 
ATOM     11  C   UNL     1       8.825   9.979  18.582  0.00  0.00    +0.000 A 
ATOM     12  C   UNL     1       8.679  11.049  17.678  0.00  0.00    +0.000 A 
ATOM     13  C   UNL     1       9.276  12.294  17.912  0.00  0.00    +0.000 A 
ENDBRANCH   1  11
BRANCH   4  14
ATOM     14  S   UNL     1       6.344   4.733  17.052  0.00  0.00    +0.000 S 
BRANCH  14  15
ATOM     15  C   UNL     1       4.627   5.300  16.778  0.00  0.00    +0.000 C 
BRANCH  15  16
ATOM     16  C   UNL     1       3.632   4.330  17.375  0.00  0.00    +0.000 A 
ATOM     17  C   UNL     1       3.960   2.980  17.512  0.00  0.00    +0.000 A 
ATOM     18  C   UNL     1       3.006   2.102  18.019  0.00  0.00    +0.000 A 
ATOM     19  C   UNL     1       1.753   2.586  18.372  0.00  0.00    +0.000 A 
ATOM     20  C   UNL     1       1.508   3.939  18.212  0.00  0.00    +0.000 A 
ATOM     21  N   UNL     1       2.414   4.817  17.727  0.00  0.00    +0.000 NA
ENDBRANCH  15  16
ENDBRANCH  14  15
ENDBRANCH   4  14
TORSDOF 4
ENDMDL
MODEL 8
REMARK VINA RESULT:      -7.3      5.083      7.410
REMARK  Name = 
REMARK  4 active torsions:
REMARK  status: ('A' for Active; 'I' for Inactive)
REMARK    1  A    between atoms: C_5  and  C_6
REMARK    2  A    between atoms: C_9  and  S_10
REMARK    3  A    between atoms: S_10  and  C_11
REMARK    4  A    between atoms: C_11  and  C_12
REMARK                            x       y       z     vdW  Elec       q    Type
REMARK                         _______ _______ _______ _____ _____    ______ ____
ROOT
ATOM      1  C   UNL     1       1.704   7.997  19.832  0.00  0.00    +0.000 A 
ATOM      2  C   UNL     1       2.122   8.202  18.522  0.00  0.00    +0.000 A 
ATOM      3  C   UNL     1       2.782   7.177  17.842  0.00  0.00    +0.000 A 
ATOM      4  C   UNL     1       3.006   5.974  18.489  0.00  0.00    +0.000 A 
ATOM      5  N   UNL     1       2.619   5.802  19.767  0.00  0.00    +0.000 NA
ATOM      6  N   UNL     1       1.966   6.817  20.440  0.00  0.00    +0.000 NA
ENDROOT
BRANCH   1  11
ATOM      7 CL   UNL     1      -1.245  12.121  23.083  0.00  0.00    +0.000 Cl
ATOM      8  C   UNL     1      -0.430  10.932  22.147  0.00  0.00    +0.000 A 
ATOM      9  C   UNL     1      -0.081   9.716  22.725  0.00  0.00    +0.000 A 
ATOM     10  C   UNL     1       0.601   8.755  21.969  0.00  0.00    +0.000 A 
ATOM     11  C   UNL     1       0.947   8.988  20.622  0.00  0.00    +0.000 A 
ATOM     12  C   UNL     1       0.572  10.227  20.066  0.00  0.00    +0.000 A 
ATOM     13  C   UNL     1      -0.110  11.191  20.818  0.00  0.00    +0.000 A 
ENDBRANCH   1  11
BRANCH   4  14
ATOM     14  S   UNL     1       3.862   4.662  17.655  0.00  0.00    +0.000 S 
BRANCH  14  15
ATOM     15  C   UNL     1       4.927   5.636  16.532  0.00  0.00    +0.000 C 
BRANCH  15  16
ATOM     16  C   UNL     1       6.142   6.167  17.261  0.00  0.00    +0.000 A 
ATOM     17  C   UNL     1       6.700   5.447  18.318  0.00  0.00    +0.000 A 
ATOM     18  C   UNL     1       7.788   5.984  19.001  0.00  0.00    +0.000 A 
ATOM     19  C   UNL     1       8.289   7.222  18.619  0.00  0.00    +0.000 A 
ATOM     20  C   UNL     1       7.684   7.870  17.556  0.00  0.00    +0.000 A 
ATOM     21  N   UNL     1       6.630   7.373  16.870  0.00  0.00    +0.000 NA
ENDBRANCH  15  16
ENDBRANCH  14  15
ENDBRANCH   4  14
TORSDOF 4
ENDMDL
MODEL 9
REMARK VINA RESULT:      -7.3      5.394      6.432
REMARK  Name = 
REMARK  4 active torsions:
REMARK  status: ('A' for Active; 'I' for Inactive)
REMARK    1  A    between atoms: C_5  and  C_6
REMARK    2  A    between atoms: C_9  and  S_10
REMARK    3  A    between atoms: S_10  and  C_11
REMARK    4  A    between atoms: C_11  and  C_12
REMARK                            x       y       z     vdW  Elec       q    Type
REMARK                         _______ _______ _______ _____ _____    ______ ____
ROOT
ATOM      1  C   UNL     1       2.225   7.987  18.873  0.00  0.00    +0.000 A 
ATOM      2  C   UNL     1       2.930   7.893  17.680  0.00  0.00    +0.000 A 
ATOM      3  C   UNL     1       3.833   6.843  17.495  0.00  0.00    +0.000 A 
ATOM      4  C   UNL     1       4.005   5.917  18.508  0.00  0.00    +0.000 A 
ATOM      5  N   UNL     1       3.335   6.040  19.669  0.00  0.00    +0.000 NA
ATOM      6  N   UNL     1       2.442   7.078  19.852  0.00  0.00    +0.000 NA
ENDROOT
BRANCH   1  11
ATOM      7 CL   UNL     1      -2.048  12.076  20.015  0.00  0.00    +0.000 Cl
ATOM      8  C   UNL     1      -0.808  10.930  19.691  0.00  0.00    +0.000 A 
ATOM      9  C   UNL     1      -0.411  10.694  18.380  0.00  0.00    +0.000 A 
ATOM     10  C   UNL     1       0.585   9.746  18.114  0.00  0.00    +0.000 A 
ATOM     11  C   UNL     1       1.205   9.018  19.150  0.00  0.00    +0.000 A 
ATOM     12  C   UNL     1       0.784   9.289  20.467  0.00  0.00    +0.000 A 
ATOM     13  C   UNL     1      -0.212  10.235  20.739  0.00  0.00    +0.000 A 
ENDBRANCH   1  11
BRANCH   4  14
ATOM     14  S   UNL     1       5.162   4.586  18.308  0.00  0.00    +0.000 S 
BRANCH  14  15
ATOM     15  C   UNL     1       4.012   3.215  17.931  0.00  0.00    +0.000 C 
BRANCH  15  16
ATOM     16  C   UNL     1       3.017   3.016  19.053  0.00  0.00    +0.000 A 
ATOM     17  C   UNL     1       1.649   3.147  18.812  0.00  0.00    +0.000 A 
ATOM     18  C   UNL     1       0.760   3.007  19.875  0.00  0.00    +0.000 A 
ATOM     19  C   UNL     1       1.254   2.745  21.146  0.00  0.00    +0.000 A 
ATOM     20  C   UNL     1       2.624   2.622  21.302  0.00  0.00    +0.000 A 
ATOM     21  N   UNL     1       3.512   2.748  20.289  0.00  0.00    +0.000 NA
ENDBRANCH  15  16
ENDBRANCH  14  15
ENDBRANCH   4  14
TORSDOF 4
ENDMDL
