MODEL 1
REMARK VINA RESULT:      -6.9      0.000      0.000
REMARK  Name = 
REMARK  14 active torsions:
REMARK  status: ('A' for Active; 'I' for Inactive)
REMARK    1  A    between atoms: C_1  and  C_2
REMARK    2  A    between atoms: C_2  and  O_3
REMARK    3  A    between atoms: O_3  and  C_4
REMARK    4  A    between atoms: C_6  and  C_7
REMARK    5  A    between atoms: C_12  and  O_13
REMARK    6  A    between atoms: C_19  and  C_20
REMARK    7  A    between atoms: C_25  and  O_26
REMARK    8  A    between atoms: O_26  and  C_27
REMARK    9  A    between atoms: C_29  and  O_30
REMARK   10  A    between atoms: O_30  and  C_31
REMARK   11  A    between atoms: C_31  and  C_32
REMARK   12  A    between atoms: C_33  and  O_34
REMARK   13  A    between atoms: O_34  and  C_35
REMARK   14  A    between atoms: C_35  and  C_36
REMARK                            x       y       z     vdW  Elec       q    Type
REMARK                         _______ _______ _______ _____ _____    ______ ____
ROOT
ATOM      1  C   UNL     1       2.705   7.576  18.513  0.00  0.00    +0.000 C 
ATOM      2  O   UNL     1       3.609   7.920  17.757  0.00  0.00    +0.000 OA
ATOM      3  N   UNL     1       2.597   6.281  19.097  0.00  0.00    +0.000 N 
ATOM      4  C   UNL     1       1.475   5.942  19.974  0.00  0.00    +0.000 C 
ATOM      5  C   UNL     1       1.805   4.961  21.076  0.00  0.00    +0.000 C 
ATOM      6  C   UNL     1       2.369   3.675  20.507  0.00  0.00    +0.000 C 
ATOM      7  C   UNL     1       2.782   2.755  21.672  0.00  0.00    +0.000 C 
ATOM      8  C   UNL     1       3.432   1.462  21.191  0.00  0.00    +0.000 C 
ATOM      9  C   UNL     1       4.567   1.729  20.209  0.00  0.00    +0.000 C 
ATOM     10  C   UNL     1       4.147   2.655  19.061  0.00  0.00    +0.000 C 
ATOM     11  C   UNL     1       3.588   3.987  19.613  0.00  0.00    +0.000 C 
ATOM     12  C   UNL     1       3.299   5.079  18.500  0.00  0.00    +0.000 C 
ENDROOT
BRANCH   1  15
ATOM     13  C   UNL     1      -0.124  10.127  18.156  0.00  0.00    +0.000 A 
ATOM     14  C   UNL     1       0.944   9.272  17.841  0.00  0.00    +0.000 A 
ATOM     15  C   UNL     1       1.715   8.665  18.829  0.00  0.00    +0.000 A 
ATOM     16  C   UNL     1       1.606   9.156  20.132  0.00  0.00    +0.000 A 
ATOM     17  C   UNL     1       0.695  10.183  20.432  0.00  0.00    +0.000 A 
ATOM     18  C   UNL     1      -0.236  10.631  19.464  0.00  0.00    +0.000 A 
BRANCH  13  19
ATOM     19  O   UNL     1      -1.018  10.481  17.172  0.00  0.00    +0.000 OA
BRANCH  19  21
ATOM     20  C   UNL     1      -2.942   9.803  15.874  0.00  0.00    +0.000 C 
ATOM     21  C   UNL     1      -2.284   9.799  17.241  0.00  0.00    +0.000 C 
ENDBRANCH  19  21
ENDBRANCH  13  19
BRANCH  17  22
ATOM     22  O   UNL     1       0.784  10.636  21.732  0.00  0.00    +0.000 OA
BRANCH  22  23
ATOM     23  C   UNL     1       0.168   9.806  22.724  0.00  0.00    +0.000 C 
ATOM     24  C   UNL     1      -1.100  10.483  23.219  0.00  0.00    +0.000 C 
ENDBRANCH  22  23
ENDBRANCH  17  22
BRANCH  18  25
ATOM     25  O   UNL     1      -1.180  11.506  19.932  0.00  0.00    +0.000 OA
BRANCH  25  26
ATOM     26  C   UNL     1      -1.078  12.898  19.665  0.00  0.00    +0.000 C 
ATOM     27  C   UNL     1      -0.947  13.612  21.004  0.00  0.00    +0.000 C 
ENDBRANCH  25  26
ENDBRANCH  18  25
ENDBRANCH   1  15
BRANCH  12  28
ATOM     28  C   UNL     1       4.589   5.369  17.714  0.00  0.00    +0.000 A 
ATOM     29  C   UNL     1       4.480   5.335  16.296  0.00  0.00    +0.000 A 
ATOM     30  C   UNL     1       5.548   5.635  15.440  0.00  0.00    +0.000 A 
ATOM     31  C   UNL     1       6.784   5.944  15.976  0.00  0.00    +0.000 A 
ATOM     32  C   UNL     1       6.935   5.938  17.360  0.00  0.00    +0.000 A 
ATOM     33  C   UNL     1       5.865   5.659  18.244  0.00  0.00    +0.000 A 
BRANCH  33  34
ATOM     34  O   UNL     1       6.338   5.717  19.524  0.00  0.00    +0.000 OA
ATOM     35  C   UNL     1       7.705   5.643  19.847  0.00  0.00    +0.000 C 
ENDBRANCH  33  34
ENDBRANCH  12  28
BRANCH   6  36
ATOM     36  O   UNL     1       1.351   3.032  19.736  0.00  0.00    +0.000 OA
ATOM     37  H   UNL     1       0.501   3.475  19.920  0.00  0.00    +0.000 HD
ENDBRANCH   6  36
TORSDOF 10
ENDMDL
MODEL 2
REMARK VINA RESULT:      -6.7      0.412      2.709
REMARK  Name = 
REMARK  14 active torsions:
REMARK  status: ('A' for Active; 'I' for Inactive)
REMARK    1  A    between atoms: C_1  and  C_2
REMARK    2  A    between atoms: C_2  and  O_3
REMARK    3  A    between atoms: O_3  and  C_4
REMARK    4  A    between atoms: C_6  and  C_7
REMARK    5  A    between atoms: C_12  and  O_13
REMARK    6  A    between atoms: C_19  and  C_20
REMARK    7  A    between atoms: C_25  and  O_26
REMARK    8  A    between atoms: O_26  and  C_27
REMARK    9  A    between atoms: C_29  and  O_30
REMARK   10  A    between atoms: O_30  and  C_31
REMARK   11  A    between atoms: C_31  and  C_32
REMARK   12  A    between atoms: C_33  and  O_34
REMARK   13  A    between atoms: O_34  and  C_35
REMARK   14  A    between atoms: C_35  and  C_36
REMARK                            x       y       z     vdW  Elec       q    Type
REMARK                         _______ _______ _______ _____ _____    ______ ____
ROOT
ATOM      1  C   UNL     1       2.626   7.601  18.605  0.00  0.00    +0.000 C 
ATOM      2  O   UNL     1       3.523   7.975  17.856  0.00  0.00    +0.000 OA
ATOM      3  N   UNL     1       2.545   6.296  19.169  0.00  0.00    +0.000 N 
ATOM      4  C   UNL     1       1.430   5.920  20.040  0.00  0.00    +0.000 C 
ATOM      5  C   UNL     1       1.779   4.929  21.127  0.00  0.00    +0.000 C 
ATOM      6  C   UNL     1       2.370   3.663  20.538  0.00  0.00    +0.000 C 
ATOM      7  C   UNL     1       2.801   2.734  21.689  0.00  0.00    +0.000 C 
ATOM      8  C   UNL     1       3.477   1.463  21.188  0.00  0.00    +0.000 C 
ATOM      9  C   UNL     1       4.607   1.768  20.210  0.00  0.00    +0.000 C 
ATOM     10  C   UNL     1       4.169   2.703  19.077  0.00  0.00    +0.000 C 
ATOM     11  C   UNL     1       3.583   4.015  19.649  0.00  0.00    +0.000 C 
ATOM     12  C   UNL     1       3.272   5.117  18.554  0.00  0.00    +0.000 C 
ENDROOT
BRANCH   1  15
ATOM     13  C   UNL     1       0.636  10.247  20.523  0.00  0.00    +0.000 A 
ATOM     14  C   UNL     1       1.416   9.114  20.241  0.00  0.00    +0.000 A 
ATOM     15  C   UNL     1       1.614   8.665  18.938  0.00  0.00    +0.000 A 
ATOM     16  C   UNL     1       0.780   9.174  17.941  0.00  0.00    +0.000 A 
ATOM     17  C   UNL     1      -0.177  10.157  18.246  0.00  0.00    +0.000 A 
ATOM     18  C   UNL     1      -0.211  10.761  19.526  0.00  0.00    +0.000 A 
BRANCH  13  19
ATOM     19  O   UNL     1       0.691  10.809  21.778  0.00  0.00    +0.000 OA
BRANCH  19  21
ATOM     20  C   UNL     1      -1.312  11.119  23.097  0.00  0.00    +0.000 C 
ATOM     21  C   UNL     1      -0.168  10.185  22.750  0.00  0.00    +0.000 C 
ENDBRANCH  19  21
ENDBRANCH  13  19
BRANCH  17  22
ATOM     22  O   UNL     1      -0.997  10.476  17.184  0.00  0.00    +0.000 OA
BRANCH  22  23
ATOM     23  C   UNL     1      -2.297   9.874  17.197  0.00  0.00    +0.000 C 
ATOM     24  C   UNL     1      -2.868   9.894  15.788  0.00  0.00    +0.000 C 
ENDBRANCH  22  23
ENDBRANCH  17  22
BRANCH  18  25
ATOM     25  O   UNL     1      -1.070  11.823  19.641  0.00  0.00    +0.000 OA
BRANCH  25  26
ATOM     26  C   UNL     1      -0.771  13.071  19.031  0.00  0.00    +0.000 C 
ATOM     27  C   UNL     1       0.652  13.444  19.428  0.00  0.00    +0.000 C 
ENDBRANCH  25  26
ENDBRANCH  18  25
ENDBRANCH   1  15
BRANCH  12  28
ATOM     28  C   UNL     1       4.555   5.447  17.773  0.00  0.00    +0.000 A 
ATOM     29  C   UNL     1       4.435   5.486  16.356  0.00  0.00    +0.000 A 
ATOM     30  C   UNL     1       5.496   5.829  15.508  0.00  0.00    +0.000 A 
ATOM     31  C   UNL     1       6.737   6.108  16.050  0.00  0.00    +0.000 A 
ATOM     32  C   UNL     1       6.899   6.030  17.430  0.00  0.00    +0.000 A 
ATOM     33  C   UNL     1       5.837   5.707  18.307  0.00  0.00    +0.000 A 
BRANCH  33  34
ATOM     34  O   UNL     1       6.320   5.698  19.585  0.00  0.00    +0.000 OA
ATOM     35  C   UNL     1       7.686   5.568  19.893  0.00  0.00    +0.000 C 
ENDBRANCH  33  34
ENDBRANCH  12  28
BRANCH   6  36
ATOM     36  O   UNL     1       1.365   3.012  19.756  0.00  0.00    +0.000 OA
ATOM     37  H   UNL     1       1.523   2.050  19.792  0.00  0.00    +0.000 HD
ENDBRANCH   6  36
TORSDOF 10
ENDMDL
MODEL 3
REMARK VINA RESULT:      -6.6      1.387      1.910
REMARK  Name = 
REMARK  14 active torsions:
REMARK  status: ('A' for Active; 'I' for Inactive)
REMARK    1  A    between atoms: C_1  and  C_2
REMARK    2  A    between atoms: C_2  and  O_3
REMARK    3  A    between atoms: O_3  and  C_4
REMARK    4  A    between atoms: C_6  and  C_7
REMARK    5  A    between atoms: C_12  and  O_13
REMARK    6  A    between atoms: C_19  and  C_20
REMARK    7  A    between atoms: C_25  and  O_26
REMARK    8  A    between atoms: O_26  and  C_27
REMARK    9  A    between atoms: C_29  and  O_30
REMARK   10  A    between atoms: O_30  and  C_31
REMARK   11  A    between atoms: C_31  and  C_32
REMARK   12  A    between atoms: C_33  and  O_34
REMARK   13  A    between atoms: O_34  and  C_35
REMARK   14  A    between atoms: C_35  and  C_36
REMARK                            x       y       z     vdW  Elec       q    Type
REMARK                         _______ _______ _______ _____ _____    ______ ____
ROOT
ATOM      1  C   UNL     1       2.792   7.784  17.906  0.00  0.00    +0.000 C 
ATOM      2  O   UNL     1       3.730   7.968  17.136  0.00  0.00    +0.000 OA
ATOM      3  N   UNL     1       2.591   6.587  18.652  0.00  0.00    +0.000 N 
ATOM      4  C   UNL     1       1.434   6.438  19.537  0.00  0.00    +0.000 C 
ATOM      5  C   UNL     1       1.680   5.593  20.766  0.00  0.00    +0.000 C 
ATOM      6  C   UNL     1       2.170   4.210  20.386  0.00  0.00    +0.000 C 
ATOM      7  C   UNL     1       2.502   3.429  21.672  0.00  0.00    +0.000 C 
ATOM      8  C   UNL     1       3.075   2.047  21.382  0.00  0.00    +0.000 C 
ATOM      9  C   UNL     1       4.242   2.110  20.403  0.00  0.00    +0.000 C 
ATOM     10  C   UNL     1       3.903   2.899  19.133  0.00  0.00    +0.000 C 
ATOM     11  C   UNL     1       3.423   4.325  19.490  0.00  0.00    +0.000 C 
ATOM     12  C   UNL     1       3.224   5.275  18.237  0.00  0.00    +0.000 C 
ENDROOT
BRANCH   1  15
ATOM     13  C   UNL     1      -0.356   9.957  17.876  0.00  0.00    +0.000 A 
ATOM     14  C   UNL     1       0.569   8.950  17.556  0.00  0.00    +0.000 A 
ATOM     15  C   UNL     1       1.870   8.964  18.051  0.00  0.00    +0.000 A 
ATOM     16  C   UNL     1       2.335  10.151  18.622  0.00  0.00    +0.000 A 
ATOM     17  C   UNL     1       1.484  11.262  18.746  0.00  0.00    +0.000 A 
ATOM     18  C   UNL     1       0.105  11.156  18.444  0.00  0.00    +0.000 A 
BRANCH  13  19
ATOM     19  O   UNL     1      -1.690   9.762  17.595  0.00  0.00    +0.000 OA
BRANCH  19  21
ATOM     20  C   UNL     1      -2.983   9.745  15.552  0.00  0.00    +0.000 C 
ATOM     21  C   UNL     1      -2.206  10.595  16.540  0.00  0.00    +0.000 C 
ENDBRANCH  19  21
ENDBRANCH  13  19
BRANCH  17  22
ATOM     22  O   UNL     1       2.118  12.391  19.224  0.00  0.00    +0.000 OA
BRANCH  22  23
ATOM     23  C   UNL     1       2.910  13.111  18.272  0.00  0.00    +0.000 C 
ATOM     24  C   UNL     1       2.601  14.595  18.391  0.00  0.00    +0.000 C 
ENDBRANCH  22  23
ENDBRANCH  17  22
BRANCH  18  25
ATOM     25  O   UNL     1      -0.644  12.255  18.774  0.00  0.00    +0.000 OA
BRANCH  25  26
ATOM     26  C   UNL     1      -1.290  12.344  20.037  0.00  0.00    +0.000 C 
ATOM     27  C   UNL     1      -2.791  12.372  19.782  0.00  0.00    +0.000 C 
ENDBRANCH  25  26
ENDBRANCH  18  25
ENDBRANCH   1  15
BRANCH  12  28
ATOM     28  C   UNL     1       4.543   5.378  17.453  0.00  0.00    +0.000 A 
ATOM     29  C   UNL     1       4.465   5.122  16.056  0.00  0.00    +0.000 A 
ATOM     30  C   UNL     1       5.565   5.233  15.195  0.00  0.00    +0.000 A 
ATOM     31  C   UNL     1       6.802   5.569  15.712  0.00  0.00    +0.000 A 
ATOM     32  C   UNL     1       6.921   5.780  17.083  0.00  0.00    +0.000 A 
ATOM     33  C   UNL     1       5.820   5.693  17.968  0.00  0.00    +0.000 A 
BRANCH  33  34
ATOM     34  O   UNL     1       6.266   5.936  19.236  0.00  0.00    +0.000 OA
ATOM     35  C   UNL     1       7.590   5.695  19.648  0.00  0.00    +0.000 C 
ENDBRANCH  33  34
ENDBRANCH  12  28
BRANCH   6  36
ATOM     36  O   UNL     1       1.126   3.535  19.680  0.00  0.00    +0.000 OA
ATOM     37  H   UNL     1       1.406   2.614  19.523  0.00  0.00    +0.000 HD
ENDBRANCH   6  36
TORSDOF 10
ENDMDL
MODEL 4
REMARK VINA RESULT:      -6.3      1.453      2.784
REMARK  Name = 
REMARK  14 active torsions:
REMARK  status: ('A' for Active; 'I' for Inactive)
REMARK    1  A    between atoms: C_1  and  C_2
REMARK    2  A    between atoms: C_2  and  O_3
REMARK    3  A    between atoms: O_3  and  C_4
REMARK    4  A    between atoms: C_6  and  C_7
REMARK    5  A    between atoms: C_12  and  O_13
REMARK    6  A    between atoms: C_19  and  C_20
REMARK    7  A    between atoms: C_25  and  O_26
REMARK    8  A    between atoms: O_26  and  C_27
REMARK    9  A    between atoms: C_29  and  O_30
REMARK   10  A    between atoms: O_30  and  C_31
REMARK   11  A    between atoms: C_31  and  C_32
REMARK   12  A    between atoms: C_33  and  O_34
REMARK   13  A    between atoms: O_34  and  C_35
REMARK   14  A    between atoms: C_35  and  C_36
REMARK                            x       y       z     vdW  Elec       q    Type
REMARK                         _______ _______ _______ _____ _____    ______ ____
ROOT
ATOM      1  C   UNL     1       2.755   7.906  18.048  0.00  0.00    +0.000 C 
ATOM      2  O   UNL     1       3.689   8.104  17.277  0.00  0.00    +0.000 OA
ATOM      3  N   UNL     1       2.547   6.690  18.760  0.00  0.00    +0.000 N 
ATOM      4  C   UNL     1       1.395   6.526  19.648  0.00  0.00    +0.000 C 
ATOM      5  C   UNL     1       1.641   5.643  20.850  0.00  0.00    +0.000 C 
ATOM      6  C   UNL     1       2.114   4.267  20.426  0.00  0.00    +0.000 C 
ATOM      7  C   UNL     1       2.448   3.446  21.687  0.00  0.00    +0.000 C 
ATOM      8  C   UNL     1       3.005   2.067  21.352  0.00  0.00    +0.000 C 
ATOM      9  C   UNL     1       4.166   2.147  20.367  0.00  0.00    +0.000 C 
ATOM     10  C   UNL     1       3.827   2.977  19.123  0.00  0.00    +0.000 C 
ATOM     11  C   UNL     1       3.362   4.397  19.526  0.00  0.00    +0.000 C 
ATOM     12  C   UNL     1       3.165   5.385  18.302  0.00  0.00    +0.000 C 
ENDROOT
BRANCH   1  15
ATOM     13  C   UNL     1       1.508  11.445  18.796  0.00  0.00    +0.000 A 
ATOM     14  C   UNL     1       2.285  10.275  18.817  0.00  0.00    +0.000 A 
ATOM     15  C   UNL     1       1.845   9.090  18.233  0.00  0.00    +0.000 A 
ATOM     16  C   UNL     1       0.495   8.996  17.892  0.00  0.00    +0.000 A 
ATOM     17  C   UNL     1      -0.365  10.093  18.076  0.00  0.00    +0.000 A 
ATOM     18  C   UNL     1       0.146  11.356  18.460  0.00  0.00    +0.000 A 
BRANCH  13  19
ATOM     19  O   UNL     1       2.087  12.646  19.136  0.00  0.00    +0.000 OA
BRANCH  19  21
ATOM     20  C   UNL     1       2.677  14.847  18.328  0.00  0.00    +0.000 C 
ATOM     21  C   UNL     1       2.676  13.360  18.032  0.00  0.00    +0.000 C 
ENDBRANCH  19  21
ENDBRANCH  13  19
BRANCH  17  22
ATOM     22  O   UNL     1      -1.686   9.811  17.799  0.00  0.00    +0.000 OA
BRANCH  22  23
ATOM     23  C   UNL     1      -2.038   9.773  16.411  0.00  0.00    +0.000 C 
ATOM     24  C   UNL     1      -2.907  10.976  16.086  0.00  0.00    +0.000 C 
ENDBRANCH  22  23
ENDBRANCH  17  22
BRANCH  18  25
ATOM     25  O   UNL     1      -0.765  12.380  18.433  0.00  0.00    +0.000 OA
BRANCH  25  26
ATOM     26  C   UNL     1      -1.291  12.918  19.639  0.00  0.00    +0.000 C 
ATOM     27  C   UNL     1      -2.731  12.438  19.763  0.00  0.00    +0.000 C 
ENDBRANCH  25  26
ENDBRANCH  18  25
ENDBRANCH   1  15
BRANCH  12  28
ATOM     28  C   UNL     1       4.480   5.499  17.513  0.00  0.00    +0.000 A 
ATOM     29  C   UNL     1       4.380   5.345  16.102  0.00  0.00    +0.000 A 
ATOM     30  C   UNL     1       5.475   5.479  15.239  0.00  0.00    +0.000 A 
ATOM     31  C   UNL     1       6.728   5.736  15.764  0.00  0.00    +0.000 A 
ATOM     32  C   UNL     1       6.867   5.844  17.145  0.00  0.00    +0.000 A 
ATOM     33  C   UNL     1       5.771   5.732  18.034  0.00  0.00    +0.000 A 
BRANCH  33  34
ATOM     34  O   UNL     1       6.237   5.869  19.311  0.00  0.00    +0.000 OA
ATOM     35  C   UNL     1       7.586   5.685  19.664  0.00  0.00    +0.000 C 
ENDBRANCH  33  34
ENDBRANCH  12  28
BRANCH   6  36
ATOM     36  O   UNL     1       1.059   3.623  19.707  0.00  0.00    +0.000 OA
ATOM     37  H   UNL     1       0.319   4.253  19.618  0.00  0.00    +0.000 HD
ENDBRANCH   6  36
TORSDOF 10
ENDMDL
MODEL 5
REMARK VINA RESULT:      -6.2      1.159      1.807
REMARK  Name = 
REMARK  14 active torsions:
REMARK  status: ('A' for Active; 'I' for Inactive)
REMARK    1  A    between atoms: C_1  and  C_2
REMARK    2  A    between atoms: C_2  and  O_3
REMARK    3  A    between atoms: O_3  and  C_4
REMARK    4  A    between atoms: C_6  and  C_7
REMARK    5  A    between atoms: C_12  and  O_13
REMARK    6  A    between atoms: C_19  and  C_20
REMARK    7  A    between atoms: C_25  and  O_26
REMARK    8  A    between atoms: O_26  and  C_27
REMARK    9  A    between atoms: C_29  and  O_30
REMARK   10  A    between atoms: O_30  and  C_31
REMARK   11  A    between atoms: C_31  and  C_32
REMARK   12  A    between atoms: C_33  and  O_34
REMARK   13  A    between atoms: O_34  and  C_35
REMARK   14  A    between atoms: C_35  and  C_36
REMARK                            x       y       z     vdW  Elec       q    Type
REMARK                         _______ _______ _______ _____ _____    ______ ____
ROOT
ATOM      1  C   UNL     1       2.816   7.572  18.404  0.00  0.00    +0.000 C 
ATOM      2  O   UNL     1       3.904   8.014  18.048  0.00  0.00    +0.000 OA
ATOM      3  N   UNL     1       2.516   6.185  18.526  0.00  0.00    +0.000 N 
ATOM      4  C   UNL     1       1.185   5.736  18.939  0.00  0.00    +0.000 C 
ATOM      5  C   UNL     1       1.168   4.457  19.744  0.00  0.00    +0.000 C 
ATOM      6  C   UNL     1       1.836   3.328  18.985  0.00  0.00    +0.000 C 
ATOM      7  C   UNL     1       1.882   2.080  19.888  0.00  0.00    +0.000 C 
ATOM      8  C   UNL     1       2.607   0.912  19.230  0.00  0.00    +0.000 C 
ATOM      9  C   UNL     1       3.979   1.320  18.703  0.00  0.00    +0.000 C 
ATOM     10  C   UNL     1       3.921   2.569  17.815  0.00  0.00    +0.000 C 
ATOM     11  C   UNL     1       3.264   3.746  18.574  0.00  0.00    +0.000 C 
ATOM     12  C   UNL     1       3.327   5.129  17.802  0.00  0.00    +0.000 C 
ENDROOT
BRANCH   1  15
ATOM     13  C   UNL     1      -0.061  10.080  18.145  0.00  0.00    +0.000 A 
ATOM     14  C   UNL     1       1.023   9.258  17.798  0.00  0.00    +0.000 A 
ATOM     15  C   UNL     1       1.806   8.628  18.762  0.00  0.00    +0.000 A 
ATOM     16  C   UNL     1       1.687   9.066  20.082  0.00  0.00    +0.000 A 
ATOM     17  C   UNL     1       0.757  10.063  20.421  0.00  0.00    +0.000 A 
ATOM     18  C   UNL     1      -0.183  10.530  19.471  0.00  0.00    +0.000 A 
BRANCH  13  19
ATOM     19  O   UNL     1      -0.962  10.455  17.174  0.00  0.00    +0.000 OA
BRANCH  19  21
ATOM     20  C   UNL     1      -2.968   9.983  15.909  0.00  0.00    +0.000 C 
ATOM     21  C   UNL     1      -2.198   9.717  17.189  0.00  0.00    +0.000 C 
ENDBRANCH  19  21
ENDBRANCH  13  19
BRANCH  17  22
ATOM     22  O   UNL     1       0.836  10.467  21.738  0.00  0.00    +0.000 OA
BRANCH  22  23
ATOM     23  C   UNL     1       0.138   9.648  22.684  0.00  0.00    +0.000 C 
ATOM     24  C   UNL     1      -1.039  10.430  23.243  0.00  0.00    +0.000 C 
ENDBRANCH  22  23
ENDBRANCH  17  22
BRANCH  18  25
ATOM     25  O   UNL     1      -1.144  11.368  19.972  0.00  0.00    +0.000 OA
BRANCH  25  26
ATOM     26  C   UNL     1      -1.034  12.777  19.818  0.00  0.00    +0.000 C 
ATOM     27  C   UNL     1      -2.201  13.410  20.565  0.00  0.00    +0.000 C 
ENDBRANCH  25  26
ENDBRANCH  18  25
ENDBRANCH   1  15
BRANCH  12  28
ATOM     28  C   UNL     1       4.791   5.488  17.503  0.00  0.00    +0.000 A 
ATOM     29  C   UNL     1       5.601   5.811  18.627  0.00  0.00    +0.000 A 
ATOM     30  C   UNL     1       6.968   6.102  18.527  0.00  0.00    +0.000 A 
ATOM     31  C   UNL     1       7.570   6.119  17.283  0.00  0.00    +0.000 A 
ATOM     32  C   UNL     1       6.794   5.855  16.158  0.00  0.00    +0.000 A 
ATOM     33  C   UNL     1       5.417   5.538  16.237  0.00  0.00    +0.000 A 
BRANCH  33  34
ATOM     34  O   UNL     1       4.944   5.350  14.970  0.00  0.00    +0.000 OA
ATOM     35  C   UNL     1       5.452   4.374  14.093  0.00  0.00    +0.000 C 
ENDBRANCH  33  34
ENDBRANCH  12  28
BRANCH   6  36
ATOM     36  O   UNL     1       1.058   3.040  17.820  0.00  0.00    +0.000 OA
ATOM     37  H   UNL     1       1.668   2.846  17.084  0.00  0.00    +0.000 HD
ENDBRANCH   6  36
TORSDOF 10
ENDMDL
MODEL 6
REMARK VINA RESULT:      -6.2      1.440      2.607
REMARK  Name = 
REMARK  14 active torsions:
REMARK  status: ('A' for Active; 'I' for Inactive)
REMARK    1  A    between atoms: C_1  and  C_2
REMARK    2  A    between atoms: C_2  and  O_3
REMARK    3  A    between atoms: O_3  and  C_4
REMARK    4  A    between atoms: C_6  and  C_7
REMARK    5  A    between atoms: C_12  and  O_13
REMARK    6  A    between atoms: C_19  and  C_20
REMARK    7  A    between atoms: C_25  and  O_26
REMARK    8  A    between atoms: O_26  and  C_27
REMARK    9  A    between atoms: C_29  and  O_30
REMARK   10  A    between atoms: O_30  and  C_31
REMARK   11  A    between atoms: C_31  and  C_32
REMARK   12  A    between atoms: C_33  and  O_34
REMARK   13  A    between atoms: O_34  and  C_35
REMARK   14  A    between atoms: C_35  and  C_36
REMARK                            x       y       z     vdW  Elec       q    Type
REMARK                         _______ _______ _______ _____ _____    ______ ____
ROOT
ATOM      1  C   UNL     1       3.060   7.670  18.241  0.00  0.00    +0.000 C 
ATOM      2  O   UNL     1       3.961   7.885  17.436  0.00  0.00    +0.000 OA
ATOM      3  N   UNL     1       2.839   6.416  18.880  0.00  0.00    +0.000 N 
ATOM      4  C   UNL     1       1.728   6.234  19.815  0.00  0.00    +0.000 C 
ATOM      5  C   UNL     1       1.999   5.262  20.941  0.00  0.00    +0.000 C 
ATOM      6  C   UNL     1       2.394   3.902  20.402  0.00  0.00    +0.000 C 
ATOM      7  C   UNL     1       2.757   2.984  21.585  0.00  0.00    +0.000 C 
ATOM      8  C   UNL     1       3.240   1.612  21.129  0.00  0.00    +0.000 C 
ATOM      9  C   UNL     1       4.352   1.717  20.092  0.00  0.00    +0.000 C 
ATOM     10  C   UNL     1       3.984   2.643  18.925  0.00  0.00    +0.000 C 
ATOM     11  C   UNL     1       3.599   4.047  19.446  0.00  0.00    +0.000 C 
ATOM     12  C   UNL     1       3.380   5.124  18.303  0.00  0.00    +0.000 C 
ENDROOT
BRANCH   1  15
ATOM     13  C   UNL     1       0.369   9.913  19.777  0.00  0.00    +0.000 A 
ATOM     14  C   UNL     1       1.042   8.775  19.305  0.00  0.00    +0.000 A 
ATOM     15  C   UNL     1       2.210   8.872  18.553  0.00  0.00    +0.000 A 
ATOM     16  C   UNL     1       2.536  10.119  18.017  0.00  0.00    +0.000 A 
ATOM     17  C   UNL     1       1.738  11.243  18.292  0.00  0.00    +0.000 A 
ATOM     18  C   UNL     1       0.687  11.171  19.237  0.00  0.00    +0.000 A 
BRANCH  13  19
ATOM     19  O   UNL     1      -0.611   9.769  20.734  0.00  0.00    +0.000 OA
BRANCH  19  21
ATOM     20  C   UNL     1      -0.296   9.657  23.128  0.00  0.00    +0.000 C 
ATOM     21  C   UNL     1      -0.262   8.891  21.819  0.00  0.00    +0.000 C 
ENDBRANCH  19  21
ENDBRANCH  13  19
BRANCH  17  22
ATOM     22  O   UNL     1       2.123  12.374  17.602  0.00  0.00    +0.000 OA
BRANCH  22  23
ATOM     23  C   UNL     1       3.053  13.230  18.278  0.00  0.00    +0.000 C 
ATOM     24  C   UNL     1       2.493  14.642  18.312  0.00  0.00    +0.000 C 
ENDBRANCH  22  23
ENDBRANCH  17  22
BRANCH  18  25
ATOM     25  O   UNL     1       0.103  12.372  19.544  0.00  0.00    +0.000 OA
BRANCH  25  26
ATOM     26  C   UNL     1      -1.088  12.791  18.890  0.00  0.00    +0.000 C 
ATOM     27  C   UNL     1      -2.227  12.670  19.894  0.00  0.00    +0.000 C 
ENDBRANCH  25  26
ENDBRANCH  18  25
ENDBRANCH   1  15
BRANCH  12  28
ATOM     28  C   UNL     1       4.656   5.243  17.454  0.00  0.00    +0.000 A 
ATOM     29  C   UNL     1       4.513   4.973  16.065  0.00  0.00    +0.000 A 
ATOM     30  C   UNL     1       5.566   5.095  15.149  0.00  0.00    +0.000 A 
ATOM     31  C   UNL     1       6.821   5.457  15.602  0.00  0.00    +0.000 A 
ATOM     32  C   UNL     1       7.005   5.681  16.963  0.00  0.00    +0.000 A 
ATOM     33  C   UNL     1       5.951   5.584  17.903  0.00  0.00    +0.000 A 
BRANCH  33  34
ATOM     34  O   UNL     1       6.456   5.845  19.144  0.00  0.00    +0.000 OA
ATOM     35  C   UNL     1       7.815   5.693  19.474  0.00  0.00    +0.000 C 
ENDBRANCH  33  34
ENDBRANCH  12  28
BRANCH   6  36
ATOM     36  O   UNL     1       1.278   3.349  19.699  0.00  0.00    +0.000 OA
ATOM     37  H   UNL     1       0.741   2.835  20.331  0.00  0.00    +0.000 HD
ENDBRANCH   6  36
TORSDOF 10
ENDMDL
MODEL 7
REMARK VINA RESULT:      -6.1      1.173      3.243
REMARK  Name = 
REMARK  14 active torsions:
REMARK  status: ('A' for Active; 'I' for Inactive)
REMARK    1  A    between atoms: C_1  and  C_2
REMARK    2  A    between atoms: C_2  and  O_3
REMARK    3  A    between atoms: O_3  and  C_4
REMARK    4  A    between atoms: C_6  and  C_7
REMARK    5  A    between atoms: C_12  and  O_13
REMARK    6  A    between atoms: C_19  and  C_20
REMARK    7  A    between atoms: C_25  and  O_26
REMARK    8  A    between atoms: O_26  and  C_27
REMARK    9  A    between atoms: C_29  and  O_30
REMARK   10  A    between atoms: O_30  and  C_31
REMARK   11  A    between atoms: C_31  and  C_32
REMARK   12  A    between atoms: C_33  and  O_34
REMARK   13  A    between atoms: O_34  and  C_35
REMARK   14  A    between atoms: C_35  and  C_36
REMARK                            x       y       z     vdW  Elec       q    Type
REMARK                         _______ _______ _______ _____ _____    ______ ____
ROOT
ATOM      1  C   UNL     1       2.803   7.541  18.480  0.00  0.00    +0.000 C 
ATOM      2  O   UNL     1       3.872   7.997  18.086  0.00  0.00    +0.000 OA
ATOM      3  N   UNL     1       2.519   6.151  18.596  0.00  0.00    +0.000 N 
ATOM      4  C   UNL     1       1.209   5.686  19.057  0.00  0.00    +0.000 C 
ATOM      5  C   UNL     1       1.234   4.396  19.845  0.00  0.00    +0.000 C 
ATOM      6  C   UNL     1       1.879   3.283  19.044  0.00  0.00    +0.000 C 
ATOM      7  C   UNL     1       1.972   2.024  19.928  0.00  0.00    +0.000 C 
ATOM      8  C   UNL     1       2.678   0.870  19.225  0.00  0.00    +0.000 C 
ATOM      9  C   UNL     1       4.024   1.295  18.648  0.00  0.00    +0.000 C 
ATOM     10  C   UNL     1       3.920   2.556  17.780  0.00  0.00    +0.000 C 
ATOM     11  C   UNL     1       3.286   3.717  18.581  0.00  0.00    +0.000 C 
ATOM     12  C   UNL     1       3.307   5.111  17.826  0.00  0.00    +0.000 C 
ENDROOT
BRANCH   1  15
ATOM     13  C   UNL     1       0.812  10.026  20.601  0.00  0.00    +0.000 A 
ATOM     14  C   UNL     1       1.582   8.913  20.228  0.00  0.00    +0.000 A 
ATOM     15  C   UNL     1       1.800   8.585  18.892  0.00  0.00    +0.000 A 
ATOM     16  C   UNL     1       0.995   9.201  17.932  0.00  0.00    +0.000 A 
ATOM     17  C   UNL     1       0.045  10.166  18.311  0.00  0.00    +0.000 A 
ATOM     18  C   UNL     1      -0.006  10.647  19.641  0.00  0.00    +0.000 A 
BRANCH  13  19
ATOM     19  O   UNL     1       0.849  10.466  21.905  0.00  0.00    +0.000 OA
BRANCH  19  21
ATOM     20  C   UNL     1      -1.197  10.752  23.160  0.00  0.00    +0.000 C 
ATOM     21  C   UNL     1      -0.076   9.802  22.786  0.00  0.00    +0.000 C 
ENDBRANCH  19  21
ENDBRANCH  13  19
BRANCH  17  22
ATOM     22  O   UNL     1      -0.748  10.598  17.268  0.00  0.00    +0.000 OA
BRANCH  22  23
ATOM     23  C   UNL     1      -1.970   9.876  17.074  0.00  0.00    +0.000 C 
ATOM     24  C   UNL     1      -2.680  10.423  15.847  0.00  0.00    +0.000 C 
ENDBRANCH  22  23
ENDBRANCH  17  22
BRANCH  18  25
ATOM     25  O   UNL     1      -0.852  11.706  19.840  0.00  0.00    +0.000 OA
BRANCH  25  26
ATOM     26  C   UNL     1      -0.341  13.013  20.066  0.00  0.00    +0.000 C 
ATOM     27  C   UNL     1      -0.560  13.816  18.790  0.00  0.00    +0.000 C 
ENDBRANCH  25  26
ENDBRANCH  18  25
ENDBRANCH   1  15
BRANCH  12  28
ATOM     28  C   UNL     1       4.755   5.486  17.471  0.00  0.00    +0.000 A 
ATOM     29  C   UNL     1       5.593   5.854  18.560  0.00  0.00    +0.000 A 
ATOM     30  C   UNL     1       6.950   6.165  18.410  0.00  0.00    +0.000 A 
ATOM     31  C   UNL     1       7.514   6.156  17.148  0.00  0.00    +0.000 A 
ATOM     32  C   UNL     1       6.710   5.846  16.056  0.00  0.00    +0.000 A 
ATOM     33  C   UNL     1       5.341   5.509  16.186  0.00  0.00    +0.000 A 
BRANCH  33  34
ATOM     34  O   UNL     1       4.834   5.276  14.940  0.00  0.00    +0.000 OA
ATOM     35  C   UNL     1       5.399   4.357  14.036  0.00  0.00    +0.000 C 
ENDBRANCH  33  34
ENDBRANCH  12  28
BRANCH   6  36
ATOM     36  O   UNL     1       1.057   3.003  17.908  0.00  0.00    +0.000 OA
ATOM     37  H   UNL     1       0.740   3.850  17.542  0.00  0.00    +0.000 HD
ENDBRANCH   6  36
TORSDOF 10
ENDMDL
MODEL 8
REMARK VINA RESULT:      -6.1      1.542      4.069
REMARK  Name = 
REMARK  14 active torsions:
REMARK  status: ('A' for Active; 'I' for Inactive)
REMARK    1  A    between atoms: C_1  and  C_2
REMARK    2  A    between atoms: C_2  and  O_3
REMARK    3  A    between atoms: O_3  and  C_4
REMARK    4  A    between atoms: C_6  and  C_7
REMARK    5  A    between atoms: C_12  and  O_13
REMARK    6  A    between atoms: C_19  and  C_20
REMARK    7  A    between atoms: C_25  and  O_26
REMARK    8  A    between atoms: O_26  and  C_27
REMARK    9  A    between atoms: C_29  and  O_30
REMARK   10  A    between atoms: O_30  and  C_31
REMARK   11  A    between atoms: C_31  and  C_32
REMARK   12  A    between atoms: C_33  and  O_34
REMARK   13  A    between atoms: O_34  and  C_35
REMARK   14  A    between atoms: C_35  and  C_36
REMARK                            x       y       z     vdW  Elec       q    Type
REMARK                         _______ _______ _______ _____ _____    ______ ____
ROOT
ATOM      1  C   UNL     1       1.529   7.336  19.837  0.00  0.00    +0.000 C 
ATOM      2  O   UNL     1       0.944   6.506  20.526  0.00  0.00    +0.000 OA
ATOM      3  N   UNL     1       2.619   7.034  18.971  0.00  0.00    +0.000 N 
ATOM      4  C   UNL     1       3.278   8.086  18.195  0.00  0.00    +0.000 C 
ATOM      5  C   UNL     1       3.811   7.645  16.851  0.00  0.00    +0.000 C 
ATOM      6  C   UNL     1       4.781   6.490  17.005  0.00  0.00    +0.000 C 
ATOM      7  C   UNL     1       5.213   6.014  15.604  0.00  0.00    +0.000 C 
ATOM      8  C   UNL     1       6.135   4.801  15.661  0.00  0.00    +0.000 C 
ATOM      9  C   UNL     1       5.551   3.683  16.518  0.00  0.00    +0.000 C 
ATOM     10  C   UNL     1       5.114   4.172  17.905  0.00  0.00    +0.000 C 
ATOM     11  C   UNL     1       4.104   5.337  17.778  0.00  0.00    +0.000 C 
ATOM     12  C   UNL     1       3.457   5.785  19.154  0.00  0.00    +0.000 C 
ENDROOT
BRANCH   1  15
ATOM     13  C   UNL     1       0.022  10.719  18.875  0.00  0.00    +0.000 A 
ATOM     14  C   UNL     1       0.742   9.515  18.807  0.00  0.00    +0.000 A 
ATOM     15  C   UNL     1       0.965   8.728  19.934  0.00  0.00    +0.000 A 
ATOM     16  C   UNL     1       0.726   9.301  21.185  0.00  0.00    +0.000 A 
ATOM     17  C   UNL     1       0.214  10.606  21.284  0.00  0.00    +0.000 A 
ATOM     18  C   UNL     1      -0.216  11.304  20.130  0.00  0.00    +0.000 A 
BRANCH  13  19
ATOM     19  O   UNL     1      -0.406  11.316  17.711  0.00  0.00    +0.000 OA
BRANCH  19  21
ATOM     20  C   UNL     1      -2.190   9.970  16.789  0.00  0.00    +0.000 C 
ATOM     21  C   UNL     1      -1.829  11.260  17.499  0.00  0.00    +0.000 C 
ENDBRANCH  19  21
ENDBRANCH  13  19
BRANCH  17  22
ATOM     22  O   UNL     1       0.139  11.072  22.580  0.00  0.00    +0.000 OA
BRANCH  22  23
ATOM     23  C   UNL     1      -0.973  10.597  23.349  0.00  0.00    +0.000 C 
ATOM     24  C   UNL     1      -2.070  11.649  23.338  0.00  0.00    +0.000 C 
ENDBRANCH  22  23
ENDBRANCH  17  22
BRANCH  18  25
ATOM     25  O   UNL     1      -0.856  12.491  20.378  0.00  0.00    +0.000 OA
BRANCH  25  26
ATOM     26  C   UNL     1      -0.128  13.710  20.446  0.00  0.00    +0.000 C 
ATOM     27  C   UNL     1      -0.335  14.440  19.125  0.00  0.00    +0.000 C 
ENDBRANCH  25  26
ENDBRANCH  18  25
ENDBRANCH   1  15
BRANCH  12  28
ATOM     28  C   UNL     1       2.751   4.586  19.808  0.00  0.00    +0.000 A 
ATOM     29  C   UNL     1       2.910   4.455  21.215  0.00  0.00    +0.000 A 
ATOM     30  C   UNL     1       2.284   3.452  21.966  0.00  0.00    +0.000 A 
ATOM     31  C   UNL     1       1.499   2.512  21.324  0.00  0.00    +0.000 A 
ATOM     32  C   UNL     1       1.362   2.584  19.941  0.00  0.00    +0.000 A 
ATOM     33  C   UNL     1       1.969   3.600  19.165  0.00  0.00    +0.000 A 
BRANCH  33  34
ATOM     34  O   UNL     1       1.659   3.385  17.853  0.00  0.00    +0.000 OA
ATOM     35  C   UNL     1       2.193   2.325  17.097  0.00  0.00    +0.000 C 
ENDBRANCH  33  34
ENDBRANCH  12  28
BRANCH   6  36
ATOM     36  O   UNL     1       5.928   6.950  17.723  0.00  0.00    +0.000 OA
ATOM     37  H   UNL     1       6.264   7.754  17.283  0.00  0.00    +0.000 HD
ENDBRANCH   6  36
TORSDOF 10
ENDMDL
MODEL 9
REMARK VINA RESULT:      -6.0      2.055      4.701
REMARK  Name = 
REMARK  14 active torsions:
REMARK  status: ('A' for Active; 'I' for Inactive)
REMARK    1  A    between atoms: C_1  and  C_2
REMARK    2  A    between atoms: C_2  and  O_3
REMARK    3  A    between atoms: O_3  and  C_4
REMARK    4  A    between atoms: C_6  and  C_7
REMARK    5  A    between atoms: C_12  and  O_13
REMARK    6  A    between atoms: C_19  and  C_20
REMARK    7  A    between atoms: C_25  and  O_26
REMARK    8  A    between atoms: O_26  and  C_27
REMARK    9  A    between atoms: C_29  and  O_30
REMARK   10  A    between atoms: O_30  and  C_31
REMARK   11  A    between atoms: C_31  and  C_32
REMARK   12  A    between atoms: C_33  and  O_34
REMARK   13  A    between atoms: O_34  and  C_35
REMARK   14  A    between atoms: C_35  and  C_36
REMARK                            x       y       z     vdW  Elec       q    Type
REMARK                         _______ _______ _______ _____ _____    ______ ____
ROOT
ATOM      1  C   UNL     1       2.205   6.671  19.343  0.00  0.00    +0.000 C 
ATOM      2  O   UNL     1       1.570   5.757  19.860  0.00  0.00    +0.000 OA
ATOM      3  N   UNL     1       3.240   6.485  18.383  0.00  0.00    +0.000 N 
ATOM      4  C   UNL     1       3.965   7.629  17.827  0.00  0.00    +0.000 C 
ATOM      5  C   UNL     1       4.420   7.458  16.396  0.00  0.00    +0.000 C 
ATOM      6  C   UNL     1       5.290   6.225  16.246  0.00  0.00    +0.000 C 
ATOM      7  C   UNL     1       5.640   6.041  14.757  0.00  0.00    +0.000 C 
ATOM      8  C   UNL     1       6.455   4.778  14.503  0.00  0.00    +0.000 C 
ATOM      9  C   UNL     1       5.801   3.547  15.120  0.00  0.00    +0.000 C 
ATOM     10  C   UNL     1       5.447   3.747  16.599  0.00  0.00    +0.000 C 
ATOM     11  C   UNL     1       4.539   4.986  16.778  0.00  0.00    +0.000 C 
ATOM     12  C   UNL     1       3.972   5.166  18.247  0.00  0.00    +0.000 C 
ENDROOT
BRANCH   1  15
ATOM     13  C   UNL     1       1.072   9.611  21.515  0.00  0.00    +0.000 A 
ATOM     14  C   UNL     1       1.277   8.302  21.048  0.00  0.00    +0.000 A 
ATOM     15  C   UNL     1       1.767   8.046  19.770  0.00  0.00    +0.000 A 
ATOM     16  C   UNL     1       1.766   9.098  18.851  0.00  0.00    +0.000 A 
ATOM     17  C   UNL     1       1.344  10.382  19.238  0.00  0.00    +0.000 A 
ATOM     18  C   UNL     1       1.064  10.673  20.595  0.00  0.00    +0.000 A 
BRANCH  13  19
ATOM     19  O   UNL     1       0.852   9.821  22.857  0.00  0.00    +0.000 OA
BRANCH  19  21
ATOM     20  C   UNL     1      -1.323  10.792  23.273  0.00  0.00    +0.000 C 
ATOM     21  C   UNL     1      -0.487   9.526  23.296  0.00  0.00    +0.000 C 
ENDBRANCH  19  21
ENDBRANCH  13  19
BRANCH  17  22
ATOM     22  O   UNL     1       1.294  11.283  18.195  0.00  0.00    +0.000 OA
BRANCH  22  23
ATOM     23  C   UNL     1       2.538  11.900  17.844  0.00  0.00    +0.000 C 
ATOM     24  C   UNL     1       2.484  13.373  18.215  0.00  0.00    +0.000 C 
ENDBRANCH  22  23
ENDBRANCH  17  22
BRANCH  18  25
ATOM     25  O   UNL     1       0.835  11.996  20.866  0.00  0.00    +0.000 OA
BRANCH  25  26
ATOM     26  C   UNL     1      -0.394  12.612  20.505  0.00  0.00    +0.000 C 
ATOM     27  C   UNL     1      -0.390  14.018  21.093  0.00  0.00    +0.000 C 
ENDBRANCH  25  26
ENDBRANCH  18  25
ENDBRANCH   1  15
BRANCH  12  28
ATOM     28  C   UNL     1       3.183   3.910  18.654  0.00  0.00    +0.000 A 
ATOM     29  C   UNL     1       1.878   3.783  18.104  0.00  0.00    +0.000 A 
ATOM     30  C   UNL     1       1.057   2.671  18.330  0.00  0.00    +0.000 A 
ATOM     31  C   UNL     1       1.502   1.654  19.155  0.00  0.00    +0.000 A 
ATOM     32  C   UNL     1       2.756   1.771  19.747  0.00  0.00    +0.000 A 
ATOM     33  C   UNL     1       3.610   2.876  19.516  0.00  0.00    +0.000 A 
BRANCH  33  34
ATOM     34  O   UNL     1       4.749   2.700  20.248  0.00  0.00    +0.000 OA
ATOM     35  C   UNL     1       5.042   1.516  20.950  0.00  0.00    +0.000 C 
ENDBRANCH  33  34
ENDBRANCH  12  28
BRANCH   6  36
ATOM     36  O   UNL     1       6.493   6.424  16.994  0.00  0.00    +0.000 OA
ATOM     37  H   UNL     1       7.240   6.074  16.473  0.00  0.00    +0.000 HD
ENDBRANCH   6  36
TORSDOF 10
ENDMDL
