MODEL 1
REMARK VINA RESULT:      -7.0      0.000      0.000
REMARK  Name = 
REMARK  8 active torsions:
REMARK  status: ('A' for Active; 'I' for Inactive)
REMARK    1  A    between atoms: C_1  and  C_2
REMARK    2  A    between atoms: C_2  and  C_3
REMARK    3  A    between atoms: C_2  and  O_4
REMARK    4  A    between atoms: O_4  and  C_5
REMARK    5  A    between atoms: C_5  and  C_6
REMARK    6  A    between atoms: N_8  and  C_9
REMARK    7  A    between atoms: N_14  and  C_15
REMARK    8  A    between atoms: C_15  and  C_16
REMARK                            x       y       z     vdW  Elec       q    Type
REMARK                         _______ _______ _______ _____ _____    ______ ____
ROOT
ATOM      1  C   UNL     1       2.931   5.722  19.683  0.00  0.00    +0.000 A 
ATOM      2  N   UNL     1       2.233   6.762  19.190  0.00  0.00    +0.000 NA
ATOM      3  N   UNL     1       3.028   7.280  18.233  0.00  0.00    +0.000 N 
ATOM      4  C   UNL     1       2.640   8.498  17.563  0.00  0.00    +0.000 C 
ATOM      5  C   UNL     1       4.165   6.558  18.045  0.00  0.00    +0.000 A 
ATOM      6  C   UNL     1       4.145   5.556  18.989  0.00  0.00    +0.000 A 
ATOM      7  C   UNL     1       5.245   4.565  19.098  0.00  0.00    +0.000 C 
ATOM      8  C   UNL     1       6.447   5.030  18.231  0.00  0.00    +0.000 C 
ATOM      9  N   UNL     1       6.099   5.593  16.892  0.00  0.00    +0.000 NA
ATOM     10  C   UNL     1       5.249   6.802  17.057  0.00  0.00    +0.000 C 
ENDROOT
BRANCH   1  11
ATOM     11  C   UNL     1       2.409   4.908  20.826  0.00  0.00    +0.000 C 
BRANCH  11  12
ATOM     12  O   UNL     1       1.061   4.444  20.655  0.00  0.00    +0.000 OA
BRANCH  12  14
ATOM     13  C   UNL     1       1.061   2.498  19.153  0.00  0.00    +0.000 C 
ATOM     14  C   UNL     1       0.916   3.021  20.580  0.00  0.00    +0.000 C 
ATOM     15  C   UNL     1       1.999   2.417  21.470  0.00  0.00    +0.000 C 
ENDBRANCH  12  14
ENDBRANCH  11  12
ENDBRANCH   1  11
BRANCH   9  16
ATOM     16  C   UNL     1       5.409   4.612  16.027  0.00  0.00    +0.000 C 
BRANCH  16  17
ATOM     17  C   UNL     1       6.014   4.482  14.670  0.00  0.00    +0.000 A 
ATOM     18  C   UNL     1       5.712   3.715  13.562  0.00  0.00    +0.000 A 
ATOM     19  C   UNL     1       6.687   4.028  12.585  0.00  0.00    +0.000 A 
ATOM     20  C   UNL     1       7.516   4.966  13.153  0.00  0.00    +0.000 A 
ATOM     21  O   UNL     1       7.114   5.252  14.420  0.00  0.00    +0.000 OA
ENDBRANCH  16  17
ENDBRANCH   9  16
TORSDOF 5
ENDMDL
MODEL 2
REMARK VINA RESULT:      -6.9      0.890      1.127
REMARK  Name = 
REMARK  8 active torsions:
REMARK  status: ('A' for Active; 'I' for Inactive)
REMARK    1  A    between atoms: C_1  and  C_2
REMARK    2  A    between atoms: C_2  and  C_3
REMARK    3  A    between atoms: C_2  and  O_4
REMARK    4  A    between atoms: O_4  and  C_5
REMARK    5  A    between atoms: C_5  and  C_6
REMARK    6  A    between atoms: N_8  and  C_9
REMARK    7  A    between atoms: N_14  and  C_15
REMARK    8  A    between atoms: C_15  and  C_16
REMARK                            x       y       z     vdW  Elec       q    Type
REMARK                         _______ _______ _______ _____ _____    ______ ____
ROOT
ATOM      1  C   UNL     1       3.262   5.250  19.587  0.00  0.00    +0.000 A 
ATOM      2  N   UNL     1       2.462   6.254  19.181  0.00  0.00    +0.000 NA
ATOM      3  N   UNL     1       3.181   6.901  18.242  0.00  0.00    +0.000 N 
ATOM      4  C   UNL     1       2.669   8.120  17.665  0.00  0.00    +0.000 C 
ATOM      5  C   UNL     1       4.370   6.296  17.980  0.00  0.00    +0.000 A 
ATOM      6  C   UNL     1       4.465   5.238  18.856  0.00  0.00    +0.000 A 
ATOM      7  C   UNL     1       5.649   4.342  18.873  0.00  0.00    +0.000 C 
ATOM      8  C   UNL     1       6.781   4.968  18.011  0.00  0.00    +0.000 C 
ATOM      9  N   UNL     1       6.347   5.582  16.720  0.00  0.00    +0.000 NA
ATOM     10  C   UNL     1       5.400   6.699  16.986  0.00  0.00    +0.000 C 
ENDROOT
BRANCH   1  11
ATOM     11  C   UNL     1       2.847   4.321  20.686  0.00  0.00    +0.000 C 
BRANCH  11  12
ATOM     12  O   UNL     1       2.546   2.986  20.249  0.00  0.00    +0.000 OA
BRANCH  12  14
ATOM     13  C   UNL     1       3.035   1.823  18.139  0.00  0.00    +0.000 C 
ATOM     14  C   UNL     1       2.192   2.868  18.865  0.00  0.00    +0.000 C 
ATOM     15  C   UNL     1       0.718   2.475  18.816  0.00  0.00    +0.000 C 
ENDBRANCH  12  14
ENDBRANCH  11  12
ENDBRANCH   1  11
BRANCH   9  16
ATOM     16  C   UNL     1       5.719   4.602  15.809  0.00  0.00    +0.000 C 
BRANCH  16  17
ATOM     17  C   UNL     1       6.357   4.547  14.461  0.00  0.00    +0.000 A 
ATOM     18  C   UNL     1       6.100   3.820  13.316  0.00  0.00    +0.000 A 
ATOM     19  C   UNL     1       7.085   4.202  12.374  0.00  0.00    +0.000 A 
ATOM     20  C   UNL     1       7.875   5.137  13.000  0.00  0.00    +0.000 A 
ATOM     21  O   UNL     1       7.439   5.357  14.268  0.00  0.00    +0.000 OA
ENDBRANCH  16  17
ENDBRANCH   9  16
TORSDOF 5
ENDMDL
MODEL 3
REMARK VINA RESULT:      -6.8      1.505      6.641
REMARK  Name = 
REMARK  8 active torsions:
REMARK  status: ('A' for Active; 'I' for Inactive)
REMARK    1  A    between atoms: C_1  and  C_2
REMARK    2  A    between atoms: C_2  and  C_3
REMARK    3  A    between atoms: C_2  and  O_4
REMARK    4  A    between atoms: O_4  and  C_5
REMARK    5  A    between atoms: C_5  and  C_6
REMARK    6  A    between atoms: N_8  and  C_9
REMARK    7  A    between atoms: N_14  and  C_15
REMARK    8  A    between atoms: C_15  and  C_16
REMARK                            x       y       z     vdW  Elec       q    Type
REMARK                         _______ _______ _______ _____ _____    ______ ____
ROOT
ATOM      1  C   UNL     1       6.364   5.005  15.722  0.00  0.00    +0.000 A 
ATOM      2  N   UNL     1       7.365   5.847  16.043  0.00  0.00    +0.000 NA
ATOM      3  N   UNL     1       6.849   6.632  17.010  0.00  0.00    +0.000 N 
ATOM      4  C   UNL     1       7.620   7.743  17.516  0.00  0.00    +0.000 C 
ATOM      5  C   UNL     1       5.590   6.266  17.371  0.00  0.00    +0.000 A 
ATOM      6  C   UNL     1       5.236   5.231  16.535  0.00  0.00    +0.000 A 
ATOM      7  C   UNL     1       3.908   4.573  16.625  0.00  0.00    +0.000 C 
ATOM      8  C   UNL     1       2.979   5.413  17.544  0.00  0.00    +0.000 C 
ATOM      9  N   UNL     1       3.613   5.955  18.783  0.00  0.00    +0.000 NA
ATOM     10  C   UNL     1       4.729   6.870  18.421  0.00  0.00    +0.000 C 
ENDROOT
BRANCH   1  11
ATOM     11  C   UNL     1       6.518   3.998  14.625  0.00  0.00    +0.000 C 
BRANCH  11  12
ATOM     12  O   UNL     1       5.436   3.983  13.681  0.00  0.00    +0.000 OA
BRANCH  12  14
ATOM     13  C   UNL     1       4.527   3.313  11.497  0.00  0.00    +0.000 C 
ATOM     14  C   UNL     1       5.688   3.234  12.485  0.00  0.00    +0.000 C 
ATOM     15  C   UNL     1       6.950   3.816  11.854  0.00  0.00    +0.000 C 
ENDBRANCH  12  14
ENDBRANCH  11  12
ENDBRANCH   1  11
BRANCH   9  16
ATOM     16  C   UNL     1       4.111   4.889  19.677  0.00  0.00    +0.000 C 
BRANCH  16  17
ATOM     17  C   UNL     1       3.033   4.014  20.224  0.00  0.00    +0.000 A 
ATOM     18  C   UNL     1       2.092   4.174  21.221  0.00  0.00    +0.000 A 
ATOM     19  C   UNL     1       1.366   2.960  21.280  0.00  0.00    +0.000 A 
ATOM     20  C   UNL     1       1.905   2.142  20.315  0.00  0.00    +0.000 A 
ATOM     21  O   UNL     1       2.917   2.774  19.665  0.00  0.00    +0.000 OA
ENDBRANCH  16  17
ENDBRANCH   9  16
TORSDOF 5
ENDMDL
MODEL 4
REMARK VINA RESULT:      -6.8      1.028      1.287
REMARK  Name = 
REMARK  8 active torsions:
REMARK  status: ('A' for Active; 'I' for Inactive)
REMARK    1  A    between atoms: C_1  and  C_2
REMARK    2  A    between atoms: C_2  and  C_3
REMARK    3  A    between atoms: C_2  and  O_4
REMARK    4  A    between atoms: O_4  and  C_5
REMARK    5  A    between atoms: C_5  and  C_6
REMARK    6  A    between atoms: N_8  and  C_9
REMARK    7  A    between atoms: N_14  and  C_15
REMARK    8  A    between atoms: C_15  and  C_16
REMARK                            x       y       z     vdW  Elec       q    Type
REMARK                         _______ _______ _______ _____ _____    ______ ____
ROOT
ATOM      1  C   UNL     1       3.610   4.937  19.424  0.00  0.00    +0.000 A 
ATOM      2  N   UNL     1       2.701   5.917  19.264  0.00  0.00    +0.000 NA
ATOM      3  N   UNL     1       3.220   6.705  18.301  0.00  0.00    +0.000 N 
ATOM      4  C   UNL     1       2.555   7.937  17.950  0.00  0.00    +0.000 C 
ATOM      5  C   UNL     1       4.381   6.216  17.789  0.00  0.00    +0.000 A 
ATOM      6  C   UNL     1       4.675   5.084  18.515  0.00  0.00    +0.000 A 
ATOM      7  C   UNL     1       5.893   4.278  18.245  0.00  0.00    +0.000 C 
ATOM      8  C   UNL     1       6.831   5.066  17.290  0.00  0.00    +0.000 C 
ATOM      9  N   UNL     1       6.158   5.775  16.161  0.00  0.00    +0.000 NA
ATOM     10  C   UNL     1       5.210   6.789  16.696  0.00  0.00    +0.000 C 
ENDROOT
BRANCH   1  11
ATOM     11  C   UNL     1       3.431   3.875  20.464  0.00  0.00    +0.000 C 
BRANCH  11  12
ATOM     12  O   UNL     1       3.135   2.573  19.934  0.00  0.00    +0.000 OA
BRANCH  12  14
ATOM     13  C   UNL     1       0.960   3.044  20.979  0.00  0.00    +0.000 C 
ATOM     14  C   UNL     1       1.753   2.199  19.984  0.00  0.00    +0.000 C 
ATOM     15  C   UNL     1       1.191   2.386  18.578  0.00  0.00    +0.000 C 
ENDBRANCH  12  14
ENDBRANCH  11  12
ENDBRANCH   1  11
BRANCH   9  16
ATOM     16  C   UNL     1       5.443   4.851  15.257  0.00  0.00    +0.000 C 
BRANCH  16  17
ATOM     17  C   UNL     1       6.171   4.580  13.982  0.00  0.00    +0.000 A 
ATOM     18  C   UNL     1       5.974   3.692  12.944  0.00  0.00    +0.000 A 
ATOM     19  C   UNL     1       7.032   3.908  12.030  0.00  0.00    +0.000 A 
ATOM     20  C   UNL     1       7.802   4.915  12.562  0.00  0.00    +0.000 A 
ATOM     21  O   UNL     1       7.286   5.333  13.748  0.00  0.00    +0.000 OA
ENDBRANCH  16  17
ENDBRANCH   9  16
TORSDOF 5
ENDMDL
MODEL 5
REMARK VINA RESULT:      -6.6      1.054      1.380
REMARK  Name = 
REMARK  8 active torsions:
REMARK  status: ('A' for Active; 'I' for Inactive)
REMARK    1  A    between atoms: C_1  and  C_2
REMARK    2  A    between atoms: C_2  and  C_3
REMARK    3  A    between atoms: C_2  and  O_4
REMARK    4  A    between atoms: O_4  and  C_5
REMARK    5  A    between atoms: C_5  and  C_6
REMARK    6  A    between atoms: N_8  and  C_9
REMARK    7  A    between atoms: N_14  and  C_15
REMARK    8  A    between atoms: C_15  and  C_16
REMARK                            x       y       z     vdW  Elec       q    Type
REMARK                         _______ _______ _______ _____ _____    ______ ____
ROOT
ATOM      1  C   UNL     1       3.166   5.214  19.503  0.00  0.00    +0.000 A 
ATOM      2  N   UNL     1       2.420   6.296  19.209  0.00  0.00    +0.000 NA
ATOM      3  N   UNL     1       3.138   6.961  18.282  0.00  0.00    +0.000 N 
ATOM      4  C   UNL     1       2.686   8.250  17.817  0.00  0.00    +0.000 C 
ATOM      5  C   UNL     1       4.269   6.300  17.918  0.00  0.00    +0.000 A 
ATOM      6  C   UNL     1       4.331   5.176  18.712  0.00  0.00    +0.000 A 
ATOM      7  C   UNL     1       5.449   4.206  18.606  0.00  0.00    +0.000 C 
ATOM      8  C   UNL     1       6.581   4.816  17.733  0.00  0.00    +0.000 C 
ATOM      9  N   UNL     1       6.131   5.550  16.513  0.00  0.00    +0.000 NA
ATOM     10  C   UNL     1       5.278   6.705  16.903  0.00  0.00    +0.000 C 
ENDROOT
BRANCH   1  11
ATOM     11  C   UNL     1       2.738   4.238  20.553  0.00  0.00    +0.000 C 
BRANCH  11  12
ATOM     12  O   UNL     1       3.056   2.870  20.253  0.00  0.00    +0.000 OA
BRANCH  12  14
ATOM     13  C   UNL     1       0.694   2.890  19.571  0.00  0.00    +0.000 C 
ATOM     14  C   UNL     1       2.028   2.146  19.566  0.00  0.00    +0.000 C 
ATOM     15  C   UNL     1       2.508   1.947  18.131  0.00  0.00    +0.000 C 
ENDBRANCH  12  14
ENDBRANCH  11  12
ENDBRANCH   1  11
BRANCH   9  16
ATOM     16  C   UNL     1       5.396   4.683  15.568  0.00  0.00    +0.000 C 
BRANCH  16  17
ATOM     17  C   UNL     1       6.108   4.471  14.274  0.00  0.00    +0.000 A 
ATOM     18  C   UNL     1       7.281   4.965  13.740  0.00  0.00    +0.000 A 
ATOM     19  C   UNL     1       7.399   4.399  12.449  0.00  0.00    +0.000 A 
ATOM     20  C   UNL     1       6.297   3.594  12.278  0.00  0.00    +0.000 A 
ATOM     21  O   UNL     1       5.507   3.627  13.383  0.00  0.00    +0.000 OA
ENDBRANCH  16  17
ENDBRANCH   9  16
TORSDOF 5
ENDMDL
MODEL 6
REMARK VINA RESULT:      -6.5      2.767      6.843
REMARK  Name = 
REMARK  8 active torsions:
REMARK  status: ('A' for Active; 'I' for Inactive)
REMARK    1  A    between atoms: C_1  and  C_2
REMARK    2  A    between atoms: C_2  and  C_3
REMARK    3  A    between atoms: C_2  and  O_4
REMARK    4  A    between atoms: O_4  and  C_5
REMARK    5  A    between atoms: C_5  and  C_6
REMARK    6  A    between atoms: N_8  and  C_9
REMARK    7  A    between atoms: N_14  and  C_15
REMARK    8  A    between atoms: C_15  and  C_16
REMARK                            x       y       z     vdW  Elec       q    Type
REMARK                         _______ _______ _______ _____ _____    ______ ____
ROOT
ATOM      1  C   UNL     1       7.386   6.667  17.418  0.00  0.00    +0.000 A 
ATOM      2  N   UNL     1       7.592   6.581  16.090  0.00  0.00    +0.000 NA
ATOM      3  N   UNL     1       6.920   5.474  15.715  0.00  0.00    +0.000 N 
ATOM      4  C   UNL     1       7.019   5.005  14.353  0.00  0.00    +0.000 C 
ATOM      5  C   UNL     1       6.229   4.905  16.738  0.00  0.00    +0.000 A 
ATOM      6  C   UNL     1       6.532   5.639  17.863  0.00  0.00    +0.000 A 
ATOM      7  C   UNL     1       5.964   5.301  19.192  0.00  0.00    +0.000 C 
ATOM      8  C   UNL     1       5.283   3.907  19.123  0.00  0.00    +0.000 C 
ATOM      9  N   UNL     1       4.476   3.642  17.894  0.00  0.00    +0.000 NA
ATOM     10  C   UNL     1       5.351   3.706  16.692  0.00  0.00    +0.000 C 
ENDROOT
BRANCH   1  11
ATOM     11  C   UNL     1       8.027   7.745  18.235  0.00  0.00    +0.000 C 
BRANCH  11  12
ATOM     12  O   UNL     1       7.788   9.076  17.750  0.00  0.00    +0.000 OA
BRANCH  12  14
ATOM     13  C   UNL     1       8.395  11.458  17.763  0.00  0.00    +0.000 C 
ATOM     14  C   UNL     1       8.828  10.019  18.035  0.00  0.00    +0.000 C 
ATOM     15  C   UNL     1       9.189   9.852  19.508  0.00  0.00    +0.000 C 
ENDBRANCH  12  14
ENDBRANCH  11  12
ENDBRANCH   1  11
BRANCH   9  16
ATOM     16  C   UNL     1       3.349   4.585  17.741  0.00  0.00    +0.000 C 
BRANCH  16  17
ATOM     17  C   UNL     1       2.418   4.597  18.907  0.00  0.00    +0.000 A 
ATOM     18  C   UNL     1       1.471   3.710  19.379  0.00  0.00    +0.000 A 
ATOM     19  C   UNL     1       0.895   4.314  20.521  0.00  0.00    +0.000 A 
ATOM     20  C   UNL     1       1.527   5.525  20.678  0.00  0.00    +0.000 A 
ATOM     21  O   UNL     1       2.457   5.706  19.704  0.00  0.00    +0.000 OA
ENDBRANCH  16  17
ENDBRANCH   9  16
TORSDOF 5
ENDMDL
MODEL 7
REMARK VINA RESULT:      -6.3      1.626      6.973
REMARK  Name = 
REMARK  8 active torsions:
REMARK  status: ('A' for Active; 'I' for Inactive)
REMARK    1  A    between atoms: C_1  and  C_2
REMARK    2  A    between atoms: C_2  and  C_3
REMARK    3  A    between atoms: C_2  and  O_4
REMARK    4  A    between atoms: O_4  and  C_5
REMARK    5  A    between atoms: C_5  and  C_6
REMARK    6  A    between atoms: N_8  and  C_9
REMARK    7  A    between atoms: N_14  and  C_15
REMARK    8  A    between atoms: C_15  and  C_16
REMARK                            x       y       z     vdW  Elec       q    Type
REMARK                         _______ _______ _______ _____ _____    ______ ____
ROOT
ATOM      1  C   UNL     1       6.809   4.871  15.786  0.00  0.00    +0.000 A 
ATOM      2  N   UNL     1       7.885   4.610  16.553  0.00  0.00    +0.000 NA
ATOM      3  N   UNL     1       7.462   4.828  17.814  0.00  0.00    +0.000 N 
ATOM      4  C   UNL     1       8.403   4.754  18.906  0.00  0.00    +0.000 C 
ATOM      5  C   UNL     1       6.139   5.134  17.881  0.00  0.00    +0.000 A 
ATOM      6  C   UNL     1       5.692   5.197  16.580  0.00  0.00    +0.000 A 
ATOM      7  C   UNL     1       4.282   5.525  16.254  0.00  0.00    +0.000 C 
ATOM      8  C   UNL     1       3.563   6.040  17.531  0.00  0.00    +0.000 C 
ATOM      9  N   UNL     1       3.870   5.297  18.790  0.00  0.00    +0.000 NA
ATOM     10  C   UNL     1       5.322   5.398  19.095  0.00  0.00    +0.000 C 
ENDROOT
BRANCH   1  11
ATOM     11  C   UNL     1       6.885   4.804  14.293  0.00  0.00    +0.000 C 
BRANCH  11  12
ATOM     12  O   UNL     1       6.288   3.628  13.722  0.00  0.00    +0.000 OA
BRANCH  12  14
ATOM     13  C   UNL     1       7.076   2.587  11.639  0.00  0.00    +0.000 C 
ATOM     14  C   UNL     1       6.181   3.637  12.294  0.00  0.00    +0.000 C 
ATOM     15  C   UNL     1       4.719   3.360  11.956  0.00  0.00    +0.000 C 
ENDBRANCH  12  14
ENDBRANCH  11  12
ENDBRANCH   1  11
BRANCH   9  16
ATOM     16  C   UNL     1       3.472   3.876  18.720  0.00  0.00    +0.000 C 
BRANCH  16  17
ATOM     17  C   UNL     1       2.658   3.425  19.887  0.00  0.00    +0.000 A 
ATOM     18  C   UNL     1       1.362   3.670  20.295  0.00  0.00    +0.000 A 
ATOM     19  C   UNL     1       1.189   2.967  21.511  0.00  0.00    +0.000 A 
ATOM     20  C   UNL     1       2.384   2.334  21.764  0.00  0.00    +0.000 A 
ATOM     21  O   UNL     1       3.283   2.603  20.781  0.00  0.00    +0.000 OA
ENDBRANCH  16  17
ENDBRANCH   9  16
TORSDOF 5
ENDMDL
MODEL 8
REMARK VINA RESULT:      -6.3      2.656      6.909
REMARK  Name = 
REMARK  8 active torsions:
REMARK  status: ('A' for Active; 'I' for Inactive)
REMARK    1  A    between atoms: C_1  and  C_2
REMARK    2  A    between atoms: C_2  and  C_3
REMARK    3  A    between atoms: C_2  and  O_4
REMARK    4  A    between atoms: O_4  and  C_5
REMARK    5  A    between atoms: C_5  and  C_6
REMARK    6  A    between atoms: N_8  and  C_9
REMARK    7  A    between atoms: N_14  and  C_15
REMARK    8  A    between atoms: C_15  and  C_16
REMARK                            x       y       z     vdW  Elec       q    Type
REMARK                         _______ _______ _______ _____ _____    ______ ____
ROOT
ATOM      1  C   UNL     1       7.383   6.461  17.509  0.00  0.00    +0.000 A 
ATOM      2  N   UNL     1       7.618   6.389  16.185  0.00  0.00    +0.000 NA
ATOM      3  N   UNL     1       6.880   5.342  15.767  0.00  0.00    +0.000 N 
ATOM      4  C   UNL     1       6.981   4.897  14.397  0.00  0.00    +0.000 C 
ATOM      5  C   UNL     1       6.124   4.800  16.759  0.00  0.00    +0.000 A 
ATOM      6  C   UNL     1       6.448   5.486  17.908  0.00  0.00    +0.000 A 
ATOM      7  C   UNL     1       5.823   5.161  19.215  0.00  0.00    +0.000 C 
ATOM      8  C   UNL     1       5.047   3.820  19.095  0.00  0.00    +0.000 C 
ATOM      9  N   UNL     1       4.257   3.640  17.840  0.00  0.00    +0.000 NA
ATOM     10  C   UNL     1       5.165   3.668  16.662  0.00  0.00    +0.000 C 
ENDROOT
BRANCH   1  11
ATOM     11  C   UNL     1       8.077   7.472  18.367  0.00  0.00    +0.000 C 
BRANCH  11  12
ATOM     12  O   UNL     1       8.409   8.695  17.690  0.00  0.00    +0.000 OA
BRANCH  12  14
ATOM     13  C   UNL     1       9.525  10.064  19.400  0.00  0.00    +0.000 C 
ATOM     14  C   UNL     1       8.311   9.877  18.493  0.00  0.00    +0.000 C 
ATOM     15  C   UNL     1       8.190  11.057  17.533  0.00  0.00    +0.000 C 
ENDBRANCH  12  14
ENDBRANCH  11  12
ENDBRANCH   1  11
BRANCH   9  16
ATOM     16  C   UNL     1       3.203   4.664  17.683  0.00  0.00    +0.000 C 
BRANCH  16  17
ATOM     17  C   UNL     1       2.399   4.890  18.919  0.00  0.00    +0.000 A 
ATOM     18  C   UNL     1       2.286   5.945  19.802  0.00  0.00    +0.000 A 
ATOM     19  C   UNL     1       1.370   5.533  20.799  0.00  0.00    +0.000 A 
ATOM     20  C   UNL     1       0.980   4.259  20.461  0.00  0.00    +0.000 A 
ATOM     21  O   UNL     1       1.597   3.859  19.318  0.00  0.00    +0.000 OA
ENDBRANCH  16  17
ENDBRANCH   9  16
TORSDOF 5
ENDMDL
MODEL 9
REMARK VINA RESULT:      -6.2      1.714      6.687
REMARK  Name = 
REMARK  8 active torsions:
REMARK  status: ('A' for Active; 'I' for Inactive)
REMARK    1  A    between atoms: C_1  and  C_2
REMARK    2  A    between atoms: C_2  and  C_3
REMARK    3  A    between atoms: C_2  and  O_4
REMARK    4  A    between atoms: O_4  and  C_5
REMARK    5  A    between atoms: C_5  and  C_6
REMARK    6  A    between atoms: N_8  and  C_9
REMARK    7  A    between atoms: N_14  and  C_15
REMARK    8  A    between atoms: C_15  and  C_16
REMARK                            x       y       z     vdW  Elec       q    Type
REMARK                         _______ _______ _______ _____ _____    ______ ____
ROOT
ATOM      1  C   UNL     1       6.716   4.792  15.968  0.00  0.00    +0.000 A 
ATOM      2  N   UNL     1       7.905   4.684  16.590  0.00  0.00    +0.000 NA
ATOM      3  N   UNL     1       7.621   4.862  17.895  0.00  0.00    +0.000 N 
ATOM      4  C   UNL     1       8.695   4.927  18.858  0.00  0.00    +0.000 C 
ATOM      5  C   UNL     1       6.289   4.997  18.131  0.00  0.00    +0.000 A 
ATOM      6  C   UNL     1       5.677   4.983  16.898  0.00  0.00    +0.000 A 
ATOM      7  C   UNL     1       4.205   5.121  16.755  0.00  0.00    +0.000 C 
ATOM      8  C   UNL     1       3.594   5.557  18.116  0.00  0.00    +0.000 C 
ATOM      9  N   UNL     1       4.152   4.878  19.323  0.00  0.00    +0.000 NA
ATOM     10  C   UNL     1       5.606   5.169  19.440  0.00  0.00    +0.000 C 
ENDROOT
BRANCH   1  11
ATOM     11  C   UNL     1       6.610   4.715  14.476  0.00  0.00    +0.000 C 
BRANCH  11  12
ATOM     12  O   UNL     1       5.799   3.631  13.997  0.00  0.00    +0.000 OA
BRANCH  12  14
ATOM     13  C   UNL     1       4.805   3.254  11.780  0.00  0.00    +0.000 C 
ATOM     14  C   UNL     1       6.062   3.230  12.647  0.00  0.00    +0.000 C 
ATOM     15  C   UNL     1       7.098   4.201  12.089  0.00  0.00    +0.000 C 
ENDBRANCH  12  14
ENDBRANCH  11  12
ENDBRANCH   1  11
BRANCH   9  16
ATOM     16  C   UNL     1       3.936   3.416  19.301  0.00  0.00    +0.000 C 
BRANCH  16  17
ATOM     17  C   UNL     1       2.497   3.024  19.246  0.00  0.00    +0.000 A 
ATOM     18  C   UNL     1       1.740   2.306  18.343  0.00  0.00    +0.000 A 
ATOM     19  C   UNL     1       0.417   2.305  18.847  0.00  0.00    +0.000 A 
ATOM     20  C   UNL     1       0.452   3.015  20.023  0.00  0.00    +0.000 A 
ATOM     21  O   UNL     1       1.712   3.455  20.277  0.00  0.00    +0.000 OA
ENDBRANCH  16  17
ENDBRANCH   9  16
TORSDOF 5
ENDMDL
