MODEL 1
REMARK VINA RESULT:      -6.9      0.000      0.000
REMARK  Name = 
REMARK  7 active torsions:
REMARK  status: ('A' for Active; 'I' for Inactive)
REMARK    1  A    between atoms: C_1  and  C_2
REMARK    2  A    between atoms: C_2  and  N_3
REMARK    3  A    between atoms: C_11  and  C_12
REMARK    4  A    between atoms: C_12  and  N_13
REMARK    5  A    between atoms: C_22  and  N_23
REMARK    6  A    between atoms: N_23  and  C_24
REMARK    7  A    between atoms: C_24  and  C_25
REMARK                            x       y       z     vdW  Elec       q    Type
REMARK                         _______ _______ _______ _____ _____    ______ ____
ROOT
ATOM      1  N   UNL     1      -5.082  16.036  24.316  0.00  0.00    +0.000 NA
ATOM      2  C   UNL     1      -3.629  16.035  24.560  0.00  0.00    +0.000 C 
ATOM      3  C   UNL     1      -3.016  14.638  24.378  0.00  0.00    +0.000 C 
ATOM      4  C   UNL     1      -3.390  14.006  23.068  0.00  0.00    +0.000 A 
ATOM      5  C   UNL     1      -4.549  14.419  22.432  0.00  0.00    +0.000 A 
ATOM      6  N   UNL     1      -4.981  13.876  21.267  0.00  0.00    +0.000 NA
ATOM      7  C   UNL     1      -4.213  12.928  20.711  0.00  0.00    +0.000 A 
ATOM      8  N   UNL     1      -4.579  12.404  19.416  0.00  0.00    +0.000 N 
ATOM      9  C   UNL     1      -5.838  12.477  18.803  0.00  0.00    +0.000 A 
ATOM     10  C   UNL     1      -5.765  11.781  17.610  0.00  0.00    +0.000 A 
ATOM     11  C   UNL     1      -4.451  11.298  17.443  0.00  0.00    +0.000 A 
ATOM     12  C   UNL     1      -3.828  10.540  16.430  0.00  0.00    +0.000 A 
ATOM     13  C   UNL     1      -2.468  10.239  16.525  0.00  0.00    +0.000 A 
ATOM     14  C   UNL     1      -1.725  10.694  17.606  0.00  0.00    +0.000 A 
ATOM     15  C   UNL     1      -2.326  11.441  18.625  0.00  0.00    +0.000 A 
ATOM     16  C   UNL     1      -3.710  11.715  18.551  0.00  0.00    +0.000 A 
ATOM     17  N   UNL     1      -3.098  12.449  21.293  0.00  0.00    +0.000 NA
ATOM     18  C   UNL     1      -2.699  12.954  22.481  0.00  0.00    +0.000 A 
ATOM     19  C   UNL     1      -5.365  15.593  22.938  0.00  0.00    +0.000 C 
ENDROOT
BRANCH   1  21
ATOM     20  C   UNL     1      -6.585  17.901  23.497  0.00  0.00    +0.000 C 
ATOM     21  C   UNL     1      -5.621  17.390  24.565  0.00  0.00    +0.000 C 
ENDBRANCH   1  21
BRANCH  18  22
ATOM     22  N   UNL     1      -1.481  12.488  23.002  0.00  0.00    +0.000 N 
ATOM     23  H   UNL     1      -1.204  12.972  23.846  0.00  0.00    +0.000 HD
BRANCH  22  24
ATOM     24  C   UNL     1      -1.417  11.036  23.220  0.00  0.00    +0.000 C 
BRANCH  24  25
ATOM     25  C   UNL     1      -0.472  10.363  22.242  0.00  0.00    +0.000 A 
ATOM     26  C   UNL     1      -0.311   8.967  22.259  0.00  0.00    +0.000 A 
ATOM     27  C   UNL     1       0.484   8.324  21.305  0.00  0.00    +0.000 A 
ATOM     28  C   UNL     1       1.122   9.068  20.314  0.00  0.00    +0.000 A 
ATOM     29  C   UNL     1       0.957  10.450  20.272  0.00  0.00    +0.000 A 
ATOM     30  C   UNL     1       0.160  11.091  21.223  0.00  0.00    +0.000 A 
ENDBRANCH  24  25
ENDBRANCH  22  24
ENDBRANCH  18  22
BRANCH   9  31
ATOM     31  C   UNL     1      -7.069  13.070  19.399  0.00  0.00    +0.000 C 
BRANCH  31  32
ATOM     32  N   UNL     1      -7.580  14.172  18.599  0.00  0.00    +0.000 NA
ATOM     33  H   UNL     1      -7.766  13.787  17.668  0.00  0.00    +0.000 HD
ATOM     34  H   UNL     1      -6.826  14.842  18.462  0.00  0.00    +0.000 HD
ENDBRANCH  31  32
ENDBRANCH   9  31
TORSDOF 6
ENDMDL
MODEL 2
REMARK VINA RESULT:      -6.9      9.965     12.260
REMARK  Name = 
REMARK  7 active torsions:
REMARK  status: ('A' for Active; 'I' for Inactive)
REMARK    1  A    between atoms: C_1  and  C_2
REMARK    2  A    between atoms: C_2  and  N_3
REMARK    3  A    between atoms: C_11  and  C_12
REMARK    4  A    between atoms: C_12  and  N_13
REMARK    5  A    between atoms: C_22  and  N_23
REMARK    6  A    between atoms: N_23  and  C_24
REMARK    7  A    between atoms: C_24  and  C_25
REMARK                            x       y       z     vdW  Elec       q    Type
REMARK                         _______ _______ _______ _____ _____    ______ ____
ROOT
ATOM      1  N   UNL     1       5.621  12.319  25.289  0.00  0.00    +0.000 NA
ATOM      2  C   UNL     1       6.953  11.715  25.471  0.00  0.00    +0.000 C 
ATOM      3  C   UNL     1       7.603  11.340  24.131  0.00  0.00    +0.000 C 
ATOM      4  C   UNL     1       7.605  12.476  23.149  0.00  0.00    +0.000 A 
ATOM      5  C   UNL     1       6.660  13.479  23.283  0.00  0.00    +0.000 A 
ATOM      6  N   UNL     1       6.566  14.521  22.419  0.00  0.00    +0.000 NA
ATOM      7  C   UNL     1       7.464  14.575  21.425  0.00  0.00    +0.000 A 
ATOM      8  N   UNL     1       7.468  15.725  20.551  0.00  0.00    +0.000 N 
ATOM      9  C   UNL     1       6.424  16.639  20.357  0.00  0.00    +0.000 A 
ATOM     10  C   UNL     1       6.824  17.533  19.381  0.00  0.00    +0.000 A 
ATOM     11  C   UNL     1       8.138  17.213  18.980  0.00  0.00    +0.000 A 
ATOM     12  C   UNL     1       9.020  17.781  18.037  0.00  0.00    +0.000 A 
ATOM     13  C   UNL     1      10.304  17.256  17.884  0.00  0.00    +0.000 A 
ATOM     14  C   UNL     1      10.721  16.188  18.666  0.00  0.00    +0.000 A 
ATOM     15  C   UNL     1       9.859  15.607  19.603  0.00  0.00    +0.000 A 
ATOM     16  C   UNL     1       8.545  16.110  19.733  0.00  0.00    +0.000 A 
ATOM     17  N   UNL     1       8.382  13.615  21.209  0.00  0.00    +0.000 NA
ATOM     18  C   UNL     1       8.438  12.551  22.039  0.00  0.00    +0.000 A 
ATOM     19  C   UNL     1       5.728  13.547  24.478  0.00  0.00    +0.000 C 
ENDROOT
BRANCH   1  21
ATOM     20  C   UNL     1       4.479  11.377  27.342  0.00  0.00    +0.000 C 
ATOM     21  C   UNL     1       5.025  12.602  26.612  0.00  0.00    +0.000 C 
ENDBRANCH   1  21
BRANCH  18  22
ATOM     22  N   UNL     1       9.471  11.623  21.829  0.00  0.00    +0.000 N 
ATOM     23  H   UNL     1       9.593  10.987  22.606  0.00  0.00    +0.000 HD
BRANCH  22  24
ATOM     24  C   UNL     1       9.372  10.862  20.575  0.00  0.00    +0.000 C 
BRANCH  24  25
ATOM     25  C   UNL     1      10.192  11.496  19.468  0.00  0.00    +0.000 A 
ATOM     26  C   UNL     1       9.570  11.921  18.280  0.00  0.00    +0.000 A 
ATOM     27  C   UNL     1      10.296  12.591  17.290  0.00  0.00    +0.000 A 
ATOM     28  C   UNL     1      11.652  12.854  17.477  0.00  0.00    +0.000 A 
ATOM     29  C   UNL     1      12.278  12.456  18.656  0.00  0.00    +0.000 A 
ATOM     30  C   UNL     1      11.551  11.791  19.646  0.00  0.00    +0.000 A 
ENDBRANCH  24  25
ENDBRANCH  22  24
ENDBRANCH  18  22
BRANCH   9  31
ATOM     31  C   UNL     1       5.073  16.572  20.983  0.00  0.00    +0.000 C 
BRANCH  31  32
ATOM     32  N   UNL     1       5.040  17.240  22.274  0.00  0.00    +0.000 NA
ATOM     33  H   UNL     1       5.975  17.636  22.414  0.00  0.00    +0.000 HD
ATOM     34  H   UNL     1       4.942  16.531  22.997  0.00  0.00    +0.000 HD
ENDBRANCH  31  32
ENDBRANCH   9  31
TORSDOF 6
ENDMDL
MODEL 3
REMARK VINA RESULT:      -6.8      2.340      6.485
REMARK  Name = 
REMARK  7 active torsions:
REMARK  status: ('A' for Active; 'I' for Inactive)
REMARK    1  A    between atoms: C_1  and  C_2
REMARK    2  A    between atoms: C_2  and  N_3
REMARK    3  A    between atoms: C_11  and  C_12
REMARK    4  A    between atoms: C_12  and  N_13
REMARK    5  A    between atoms: C_22  and  N_23
REMARK    6  A    between atoms: N_23  and  C_24
REMARK    7  A    between atoms: C_24  and  C_25
REMARK                            x       y       z     vdW  Elec       q    Type
REMARK                         _______ _______ _______ _____ _____    ______ ____
ROOT
ATOM      1  N   UNL     1       1.536   9.780  18.007  0.00  0.00    +0.000 NA
ATOM      2  C   UNL     1       1.881  10.167  19.386  0.00  0.00    +0.000 C 
ATOM      3  C   UNL     1       1.310  11.543  19.758  0.00  0.00    +0.000 C 
ATOM      4  C   UNL     1      -0.159  11.660  19.469  0.00  0.00    +0.000 A 
ATOM      5  C   UNL     1      -0.719  10.838  18.506  0.00  0.00    +0.000 A 
ATOM      6  N   UNL     1      -2.028  10.902  18.154  0.00  0.00    +0.000 NA
ATOM      7  C   UNL     1      -2.795  11.783  18.811  0.00  0.00    +0.000 A 
ATOM      8  N   UNL     1      -4.215  11.805  18.546  0.00  0.00    +0.000 N 
ATOM      9  C   UNL     1      -4.870  11.284  17.422  0.00  0.00    +0.000 A 
ATOM     10  C   UNL     1      -6.213  11.591  17.539  0.00  0.00    +0.000 A 
ATOM     11  C   UNL     1      -6.421  12.274  18.755  0.00  0.00    +0.000 A 
ATOM     12  C   UNL     1      -7.571  12.811  19.371  0.00  0.00    +0.000 A 
ATOM     13  C   UNL     1      -7.469  13.412  20.626  0.00  0.00    +0.000 A 
ATOM     14  C   UNL     1      -6.244  13.470  21.276  0.00  0.00    +0.000 A 
ATOM     15  C   UNL     1      -5.091  12.950  20.680  0.00  0.00    +0.000 A 
ATOM     16  C   UNL     1      -5.182  12.375  19.392  0.00  0.00    +0.000 A 
ATOM     17  N   UNL     1      -2.311  12.642  19.727  0.00  0.00    +0.000 NA
ATOM     18  C   UNL     1      -0.996  12.612  20.036  0.00  0.00    +0.000 A 
ATOM     19  C   UNL     1       0.070   9.720  17.849  0.00  0.00    +0.000 C 
ENDROOT
BRANCH   1  21
ATOM     20  C   UNL     1       2.332   7.543  18.885  0.00  0.00    +0.000 C 
ATOM     21  C   UNL     1       2.162   8.479  17.691  0.00  0.00    +0.000 C 
ENDBRANCH   1  21
BRANCH  18  22
ATOM     22  N   UNL     1      -0.556  13.463  21.063  0.00  0.00    +0.000 N 
ATOM     23  H   UNL     1      -1.009  14.367  21.048  0.00  0.00    +0.000 HD
BRANCH  22  24
ATOM     24  C   UNL     1      -0.635  12.891  22.415  0.00  0.00    +0.000 C 
BRANCH  24  25
ATOM     25  C   UNL     1      -1.972  13.181  23.070  0.00  0.00    +0.000 A 
ATOM     26  C   UNL     1      -2.800  12.125  23.491  0.00  0.00    +0.000 A 
ATOM     27  C   UNL     1      -3.991  12.376  24.179  0.00  0.00    +0.000 A 
ATOM     28  C   UNL     1      -4.367  13.688  24.465  0.00  0.00    +0.000 A 
ATOM     29  C   UNL     1      -3.549  14.744  24.071  0.00  0.00    +0.000 A 
ATOM     30  C   UNL     1      -2.358  14.492  23.388  0.00  0.00    +0.000 A 
ENDBRANCH  24  25
ENDBRANCH  22  24
ENDBRANCH  18  22
BRANCH   9  31
ATOM     31  C   UNL     1      -4.216  10.645  16.245  0.00  0.00    +0.000 C 
BRANCH  31  32
ATOM     32  N   UNL     1      -3.470  11.607  15.451  0.00  0.00    +0.000 NA
ATOM     33  H   UNL     1      -2.806  11.063  14.891  0.00  0.00    +0.000 HD
ATOM     34  H   UNL     1      -2.894  12.161  16.080  0.00  0.00    +0.000 HD
ENDBRANCH  31  32
ENDBRANCH   9  31
TORSDOF 6
ENDMDL
MODEL 4
REMARK VINA RESULT:      -6.8      5.419      9.828
REMARK  Name = 
REMARK  7 active torsions:
REMARK  status: ('A' for Active; 'I' for Inactive)
REMARK    1  A    between atoms: C_1  and  C_2
REMARK    2  A    between atoms: C_2  and  N_3
REMARK    3  A    between atoms: C_11  and  C_12
REMARK    4  A    between atoms: C_12  and  N_13
REMARK    5  A    between atoms: C_22  and  N_23
REMARK    6  A    between atoms: N_23  and  C_24
REMARK    7  A    between atoms: C_24  and  C_25
REMARK                            x       y       z     vdW  Elec       q    Type
REMARK                         _______ _______ _______ _____ _____    ______ ____
ROOT
ATOM      1  N   UNL     1       2.356   3.960  20.474  0.00  0.00    +0.000 NA
ATOM      2  C   UNL     1       3.537   4.086  19.603  0.00  0.00    +0.000 C 
ATOM      3  C   UNL     1       3.263   4.986  18.389  0.00  0.00    +0.000 C 
ATOM      4  C   UNL     1       2.673   6.313  18.770  0.00  0.00    +0.000 A 
ATOM      5  C   UNL     1       1.987   6.421  19.968  0.00  0.00    +0.000 A 
ATOM      6  N   UNL     1       1.391   7.571  20.373  0.00  0.00    +0.000 NA
ATOM      7  C   UNL     1       1.519   8.640  19.575  0.00  0.00    +0.000 A 
ATOM      8  N   UNL     1       0.995   9.910  20.022  0.00  0.00    +0.000 N 
ATOM      9  C   UNL     1       0.035  10.120  21.021  0.00  0.00    +0.000 A 
ATOM     10  C   UNL     1      -0.230  11.477  21.070  0.00  0.00    +0.000 A 
ATOM     11  C   UNL     1       0.588  12.136  20.129  0.00  0.00    +0.000 A 
ATOM     12  C   UNL     1       0.731  13.490  19.762  0.00  0.00    +0.000 A 
ATOM     13  C   UNL     1       1.674  13.853  18.800  0.00  0.00    +0.000 A 
ATOM     14  C   UNL     1       2.482  12.888  18.214  0.00  0.00    +0.000 A 
ATOM     15  C   UNL     1       2.351  11.539  18.559  0.00  0.00    +0.000 A 
ATOM     16  C   UNL     1       1.371  11.162  19.505  0.00  0.00    +0.000 A 
ATOM     17  N   UNL     1       2.134   8.597  18.378  0.00  0.00    +0.000 NA
ATOM     18  C   UNL     1       2.680   7.437  17.954  0.00  0.00    +0.000 A 
ATOM     19  C   UNL     1       1.950   5.287  20.976  0.00  0.00    +0.000 C 
ENDROOT
BRANCH   1  21
ATOM     20  C   UNL     1       1.460   2.275  22.137  0.00  0.00    +0.000 C 
ATOM     21  C   UNL     1       2.663   3.038  21.588  0.00  0.00    +0.000 C 
ENDBRANCH   1  21
BRANCH  18  22
ATOM     22  N   UNL     1       3.390   7.465  16.743  0.00  0.00    +0.000 N 
ATOM     23  H   UNL     1       3.006   8.121  16.076  0.00  0.00    +0.000 HD
BRANCH  22  24
ATOM     24  C   UNL     1       4.837   7.685  16.880  0.00  0.00    +0.000 C 
BRANCH  24  25
ATOM     25  C   UNL     1       5.633   6.463  16.465  0.00  0.00    +0.000 A 
ATOM     26  C   UNL     1       6.607   5.926  17.325  0.00  0.00    +0.000 A 
ATOM     27  C   UNL     1       7.284   4.746  16.997  0.00  0.00    +0.000 A 
ATOM     28  C   UNL     1       6.988   4.082  15.808  0.00  0.00    +0.000 A 
ATOM     29  C   UNL     1       6.012   4.590  14.954  0.00  0.00    +0.000 A 
ATOM     30  C   UNL     1       5.334   5.766  15.285  0.00  0.00    +0.000 A 
ENDBRANCH  24  25
ENDBRANCH  22  24
ENDBRANCH  18  22
BRANCH   9  31
ATOM     31  C   UNL     1      -0.677   9.060  21.789  0.00  0.00    +0.000 C 
BRANCH  31  32
ATOM     32  N   UNL     1      -0.736   9.367  23.209  0.00  0.00    +0.000 NA
ATOM     33  H   UNL     1      -0.279   8.586  23.690  0.00  0.00    +0.000 HD
ATOM     34  H   UNL     1      -1.709   9.326  23.503  0.00  0.00    +0.000 HD
ENDBRANCH  31  32
ENDBRANCH   9  31
TORSDOF 6
ENDMDL
MODEL 5
REMARK VINA RESULT:      -6.7      2.088      5.288
REMARK  Name = 
REMARK  7 active torsions:
REMARK  status: ('A' for Active; 'I' for Inactive)
REMARK    1  A    between atoms: C_1  and  C_2
REMARK    2  A    between atoms: C_2  and  N_3
REMARK    3  A    between atoms: C_11  and  C_12
REMARK    4  A    between atoms: C_12  and  N_13
REMARK    5  A    between atoms: C_22  and  N_23
REMARK    6  A    between atoms: N_23  and  C_24
REMARK    7  A    between atoms: C_24  and  C_25
REMARK                            x       y       z     vdW  Elec       q    Type
REMARK                         _______ _______ _______ _____ _____    ______ ____
ROOT
ATOM      1  N   UNL     1      -1.667  15.567  24.657  0.00  0.00    +0.000 NA
ATOM      2  C   UNL     1      -3.118  15.789  24.538  0.00  0.00    +0.000 C 
ATOM      3  C   UNL     1      -3.545  16.039  23.084  0.00  0.00    +0.000 C 
ATOM      4  C   UNL     1      -3.036  14.988  22.140  0.00  0.00    +0.000 A 
ATOM      5  C   UNL     1      -1.908  14.265  22.489  0.00  0.00    +0.000 A 
ATOM      6  N   UNL     1      -1.359  13.324  21.681  0.00  0.00    +0.000 NA
ATOM      7  C   UNL     1      -1.977  13.080  20.517  0.00  0.00    +0.000 A 
ATOM      8  N   UNL     1      -1.490  12.010  19.678  0.00  0.00    +0.000 N 
ATOM      9  C   UNL     1      -0.222  11.413  19.727  0.00  0.00    +0.000 A 
ATOM     10  C   UNL     1      -0.153  10.490  18.700  0.00  0.00    +0.000 A 
ATOM     11  C   UNL     1      -1.389  10.470  18.020  0.00  0.00    +0.000 A 
ATOM     12  C   UNL     1      -1.866   9.733  16.916  0.00  0.00    +0.000 A 
ATOM     13  C   UNL     1      -3.181   9.907  16.482  0.00  0.00    +0.000 A 
ATOM     14  C   UNL     1      -4.024  10.791  17.142  0.00  0.00    +0.000 A 
ATOM     15  C   UNL     1      -3.568  11.537  18.234  0.00  0.00    +0.000 A 
ATOM     16  C   UNL     1      -2.226  11.392  18.653  0.00  0.00    +0.000 A 
ATOM     17  N   UNL     1      -3.051  13.773  20.094  0.00  0.00    +0.000 NA
ATOM     18  C   UNL     1      -3.564  14.747  20.878  0.00  0.00    +0.000 A 
ATOM     19  C   UNL     1      -1.267  14.391  23.858  0.00  0.00    +0.000 C 
ENDROOT
BRANCH   1  21
ATOM     20  C   UNL     1      -0.795  16.653  26.770  0.00  0.00    +0.000 C 
ATOM     21  C   UNL     1      -1.311  15.392  26.081  0.00  0.00    +0.000 C 
ENDBRANCH   1  21
BRANCH  18  22
ATOM     22  N   UNL     1      -4.738  15.378  20.437  0.00  0.00    +0.000 N 
ATOM     23  H   UNL     1      -4.822  15.393  19.429  0.00  0.00    +0.000 HD
BRANCH  22  24
ATOM     24  C   UNL     1      -5.979  14.858  21.030  0.00  0.00    +0.000 C 
BRANCH  24  25
ATOM     25  C   UNL     1      -6.475  13.623  20.302  0.00  0.00    +0.000 A 
ATOM     26  C   UNL     1      -6.855  13.702  18.951  0.00  0.00    +0.000 A 
ATOM     27  C   UNL     1      -7.225  12.555  18.240  0.00  0.00    +0.000 A 
ATOM     28  C   UNL     1      -7.212  11.312  18.870  0.00  0.00    +0.000 A 
ATOM     29  C   UNL     1      -6.820  11.214  20.203  0.00  0.00    +0.000 A 
ATOM     30  C   UNL     1      -6.446  12.360  20.909  0.00  0.00    +0.000 A 
ENDBRANCH  24  25
ENDBRANCH  22  24
ENDBRANCH  18  22
BRANCH   9  31
ATOM     31  C   UNL     1       0.897  11.807  20.629  0.00  0.00    +0.000 C 
BRANCH  31  32
ATOM     32  N   UNL     1       0.884  11.048  21.870  0.00  0.00    +0.000 NA
ATOM     33  H   UNL     1       1.121  11.713  22.613  0.00  0.00    +0.000 HD
ATOM     34  H   UNL     1       1.659  10.389  21.848  0.00  0.00    +0.000 HD
ENDBRANCH  31  32
ENDBRANCH   9  31
TORSDOF 6
ENDMDL
MODEL 6
REMARK VINA RESULT:      -6.7      1.296      1.819
REMARK  Name = 
REMARK  7 active torsions:
REMARK  status: ('A' for Active; 'I' for Inactive)
REMARK    1  A    between atoms: C_1  and  C_2
REMARK    2  A    between atoms: C_2  and  N_3
REMARK    3  A    between atoms: C_11  and  C_12
REMARK    4  A    between atoms: C_12  and  N_13
REMARK    5  A    between atoms: C_22  and  N_23
REMARK    6  A    between atoms: N_23  and  C_24
REMARK    7  A    between atoms: C_24  and  C_25
REMARK                            x       y       z     vdW  Elec       q    Type
REMARK                         _______ _______ _______ _____ _____    ______ ____
ROOT
ATOM      1  N   UNL     1      -3.834  15.571  24.371  0.00  0.00    +0.000 NA
ATOM      2  C   UNL     1      -2.361  15.582  24.333  0.00  0.00    +0.000 C 
ATOM      3  C   UNL     1      -1.784  14.213  23.946  0.00  0.00    +0.000 C 
ATOM      4  C   UNL     1      -2.397  13.657  22.694  0.00  0.00    +0.000 A 
ATOM      5  C   UNL     1      -3.660  14.085  22.319  0.00  0.00    +0.000 A 
ATOM      6  N   UNL     1      -4.303  13.608  21.224  0.00  0.00    +0.000 NA
ATOM      7  C   UNL     1      -3.649  12.712  20.472  0.00  0.00    +0.000 A 
ATOM      8  N   UNL     1      -4.252  12.263  19.238  0.00  0.00    +0.000 N 
ATOM      9  C   UNL     1      -5.605  12.349  18.883  0.00  0.00    +0.000 A 
ATOM     10  C   UNL     1      -5.757  11.731  17.655  0.00  0.00    +0.000 A 
ATOM     11  C   UNL     1      -4.496  11.285  17.210  0.00  0.00    +0.000 A 
ATOM     12  C   UNL     1      -4.073  10.605  16.049  0.00  0.00    +0.000 A 
ATOM     13  C   UNL     1      -2.718  10.325  15.864  0.00  0.00    +0.000 A 
ATOM     14  C   UNL     1      -1.785  10.726  16.810  0.00  0.00    +0.000 A 
ATOM     15  C   UNL     1      -2.185  11.396  17.971  0.00  0.00    +0.000 A 
ATOM     16  C   UNL     1      -3.560  11.647  18.181  0.00  0.00    +0.000 A 
ATOM     17  N   UNL     1      -2.439  12.219  20.797  0.00  0.00    +0.000 NA
ATOM     18  C   UNL     1      -1.824  12.657  21.918  0.00  0.00    +0.000 A 
ATOM     19  C   UNL     1      -4.373  15.210  23.045  0.00  0.00    +0.000 C 
ENDROOT
BRANCH   1  21
ATOM     20  C   UNL     1      -4.764  17.818  23.672  0.00  0.00    +0.000 C 
ATOM     21  C   UNL     1      -4.325  16.896  24.806  0.00  0.00    +0.000 C 
ENDBRANCH   1  21
BRANCH  18  22
ATOM     22  N   UNL     1      -0.526  12.184  22.166  0.00  0.00    +0.000 N 
ATOM     23  H   UNL     1      -0.475  11.174  22.207  0.00  0.00    +0.000 HD
BRANCH  22  24
ATOM     24  C   UNL     1       0.504  12.696  21.251  0.00  0.00    +0.000 C 
BRANCH  24  25
ATOM     25  C   UNL     1       0.841  11.690  20.166  0.00  0.00    +0.000 A 
ATOM     26  C   UNL     1       1.560  12.091  19.026  0.00  0.00    +0.000 A 
ATOM     27  C   UNL     1       1.958  11.159  18.063  0.00  0.00    +0.000 A 
ATOM     28  C   UNL     1       1.650   9.810  18.231  0.00  0.00    +0.000 A 
ATOM     29  C   UNL     1       0.955   9.394  19.363  0.00  0.00    +0.000 A 
ATOM     30  C   UNL     1       0.562  10.326  20.326  0.00  0.00    +0.000 A 
ENDBRANCH  24  25
ENDBRANCH  22  24
ENDBRANCH  18  22
BRANCH   9  31
ATOM     31  C   UNL     1      -6.704  12.880  19.739  0.00  0.00    +0.000 C 
BRANCH  31  32
ATOM     32  N   UNL     1      -7.075  11.943  20.787  0.00  0.00    +0.000 NA
ATOM     33  H   UNL     1      -8.048  12.155  21.029  0.00  0.00    +0.000 HD
ATOM     34  H   UNL     1      -6.539  12.170  21.622  0.00  0.00    +0.000 HD
ENDBRANCH  31  32
ENDBRANCH   9  31
TORSDOF 6
ENDMDL
MODEL 7
REMARK VINA RESULT:      -6.7      2.143      6.700
REMARK  Name = 
REMARK  7 active torsions:
REMARK  status: ('A' for Active; 'I' for Inactive)
REMARK    1  A    between atoms: C_1  and  C_2
REMARK    2  A    between atoms: C_2  and  N_3
REMARK    3  A    between atoms: C_11  and  C_12
REMARK    4  A    between atoms: C_12  and  N_13
REMARK    5  A    between atoms: C_22  and  N_23
REMARK    6  A    between atoms: N_23  and  C_24
REMARK    7  A    between atoms: C_24  and  C_25
REMARK                            x       y       z     vdW  Elec       q    Type
REMARK                         _______ _______ _______ _____ _____    ______ ____
ROOT
ATOM      1  N   UNL     1       1.786   9.059  18.864  0.00  0.00    +0.000 NA
ATOM      2  C   UNL     1       1.657   8.994  20.330  0.00  0.00    +0.000 C 
ATOM      3  C   UNL     1       1.042  10.276  20.911  0.00  0.00    +0.000 C 
ATOM      4  C   UNL     1      -0.237  10.668  20.227  0.00  0.00    +0.000 A 
ATOM      5  C   UNL     1      -0.465  10.233  18.933  0.00  0.00    +0.000 A 
ATOM      6  N   UNL     1      -1.574  10.571  18.228  0.00  0.00    +0.000 NA
ATOM      7  C   UNL     1      -2.487  11.329  18.851  0.00  0.00    +0.000 A 
ATOM      8  N   UNL     1      -3.731  11.618  18.176  0.00  0.00    +0.000 N 
ATOM      9  C   UNL     1      -3.983  11.527  16.800  0.00  0.00    +0.000 A 
ATOM     10  C   UNL     1      -5.275  11.969  16.580  0.00  0.00    +0.000 A 
ATOM     11  C   UNL     1      -5.859  12.306  17.818  0.00  0.00    +0.000 A 
ATOM     12  C   UNL     1      -7.131  12.801  18.178  0.00  0.00    +0.000 A 
ATOM     13  C   UNL     1      -7.439  13.008  19.523  0.00  0.00    +0.000 A 
ATOM     14  C   UNL     1      -6.507  12.714  20.508  0.00  0.00    +0.000 A 
ATOM     15  C   UNL     1      -5.238  12.229  20.172  0.00  0.00    +0.000 A 
ATOM     16  C   UNL     1      -4.908  12.055  18.809  0.00  0.00    +0.000 A 
ATOM     17  N   UNL     1      -2.313  11.823  20.091  0.00  0.00    +0.000 NA
ATOM     18  C   UNL     1      -1.183  11.529  20.770  0.00  0.00    +0.000 A 
ATOM     19  C   UNL     1       0.459   9.246  18.245  0.00  0.00    +0.000 C 
ENDROOT
BRANCH   1  21
ATOM     20  C   UNL     1       2.442   6.667  19.366  0.00  0.00    +0.000 C 
ATOM     21  C   UNL     1       2.437   7.826  18.372  0.00  0.00    +0.000 C 
ENDBRANCH   1  21
BRANCH  18  22
ATOM     22  N   UNL     1      -1.088  11.990  22.093  0.00  0.00    +0.000 N 
ATOM     23  H   UNL     1      -0.178  11.824  22.503  0.00  0.00    +0.000 HD
BRANCH  22  24
ATOM     24  C   UNL     1      -1.470  13.396  22.286  0.00  0.00    +0.000 C 
BRANCH  24  25
ATOM     25  C   UNL     1      -2.894  13.526  22.792  0.00  0.00    +0.000 A 
ATOM     26  C   UNL     1      -3.453  12.521  23.602  0.00  0.00    +0.000 A 
ATOM     27  C   UNL     1      -4.731  12.670  24.152  0.00  0.00    +0.000 A 
ATOM     28  C   UNL     1      -5.463  13.830  23.908  0.00  0.00    +0.000 A 
ATOM     29  C   UNL     1      -4.917  14.842  23.123  0.00  0.00    +0.000 A 
ATOM     30  C   UNL     1      -3.639  14.694  22.578  0.00  0.00    +0.000 A 
ENDBRANCH  24  25
ENDBRANCH  22  24
ENDBRANCH  18  22
BRANCH   9  31
ATOM     31  C   UNL     1      -2.992  11.159  15.750  0.00  0.00    +0.000 C 
BRANCH  31  32
ATOM     32  N   UNL     1      -2.963   9.725  15.511  0.00  0.00    +0.000 NA
ATOM     33  H   UNL     1      -2.277   9.573  14.765  0.00  0.00    +0.000 HD
ATOM     34  H   UNL     1      -3.856   9.451  15.109  0.00  0.00    +0.000 HD
ENDBRANCH  31  32
ENDBRANCH   9  31
TORSDOF 6
ENDMDL
MODEL 8
REMARK VINA RESULT:      -6.7      3.327      5.829
REMARK  Name = 
REMARK  7 active torsions:
REMARK  status: ('A' for Active; 'I' for Inactive)
REMARK    1  A    between atoms: C_1  and  C_2
REMARK    2  A    between atoms: C_2  and  N_3
REMARK    3  A    between atoms: C_11  and  C_12
REMARK    4  A    between atoms: C_12  and  N_13
REMARK    5  A    between atoms: C_22  and  N_23
REMARK    6  A    between atoms: N_23  and  C_24
REMARK    7  A    between atoms: C_24  and  C_25
REMARK                            x       y       z     vdW  Elec       q    Type
REMARK                         _______ _______ _______ _____ _____    ______ ____
ROOT
ATOM      1  N   UNL     1      -4.200  14.071  22.747  0.00  0.00    +0.000 NA
ATOM      2  C   UNL     1      -4.276  14.744  21.438  0.00  0.00    +0.000 C 
ATOM      3  C   UNL     1      -2.887  14.948  20.815  0.00  0.00    +0.000 C 
ATOM      4  C   UNL     1      -2.077  13.684  20.776  0.00  0.00    +0.000 A 
ATOM      5  C   UNL     1      -2.365  12.676  21.681  0.00  0.00    +0.000 A 
ATOM      6  N   UNL     1      -1.660  11.519  21.741  0.00  0.00    +0.000 NA
ATOM      7  C   UNL     1      -0.672  11.357  20.851  0.00  0.00    +0.000 A 
ATOM      8  N   UNL     1       0.030  10.095  20.808  0.00  0.00    +0.000 N 
ATOM      9  C   UNL     1       0.078   9.124  21.818  0.00  0.00    +0.000 A 
ATOM     10  C   UNL     1       0.922   8.116  21.391  0.00  0.00    +0.000 A 
ATOM     11  C   UNL     1       1.382   8.424  20.095  0.00  0.00    +0.000 A 
ATOM     12  C   UNL     1       2.247   7.761  19.199  0.00  0.00    +0.000 A 
ATOM     13  C   UNL     1       2.491   8.306  17.938  0.00  0.00    +0.000 A 
ATOM     14  C   UNL     1       1.874   9.489  17.556  0.00  0.00    +0.000 A 
ATOM     15  C   UNL     1       1.019  10.166  18.432  0.00  0.00    +0.000 A 
ATOM     16  C   UNL     1       0.799   9.638  19.724  0.00  0.00    +0.000 A 
ATOM     17  N   UNL     1      -0.308  12.310  19.972  0.00  0.00    +0.000 NA
ATOM     18  C   UNL     1      -0.977  13.483  19.951  0.00  0.00    +0.000 A 
ATOM     19  C   UNL     1      -3.570  12.745  22.599  0.00  0.00    +0.000 C 
ENDROOT
BRANCH   1  21
ATOM     20  C   UNL     1      -6.451  12.917  22.651  0.00  0.00    +0.000 C 
ATOM     21  C   UNL     1      -5.558  13.959  23.321  0.00  0.00    +0.000 C 
ENDBRANCH   1  21
BRANCH  18  22
ATOM     22  N   UNL     1      -0.623  14.409  18.956  0.00  0.00    +0.000 N 
ATOM     23  H   UNL     1      -1.424  14.792  18.471  0.00  0.00    +0.000 HD
BRANCH  22  24
ATOM     24  C   UNL     1       0.250  15.501  19.411  0.00  0.00    +0.000 C 
BRANCH  24  25
ATOM     25  C   UNL     1       1.613  15.443  18.749  0.00  0.00    +0.000 A 
ATOM     26  C   UNL     1       2.277  16.629  18.388  0.00  0.00    +0.000 A 
ATOM     27  C   UNL     1       3.573  16.595  17.862  0.00  0.00    +0.000 A 
ATOM     28  C   UNL     1       4.226  15.375  17.699  0.00  0.00    +0.000 A 
ATOM     29  C   UNL     1       3.590  14.193  18.069  0.00  0.00    +0.000 A 
ATOM     30  C   UNL     1       2.298  14.229  18.598  0.00  0.00    +0.000 A 
ENDBRANCH  24  25
ENDBRANCH  22  24
ENDBRANCH  18  22
BRANCH   9  31
ATOM     31  C   UNL     1      -0.551   9.230  23.166  0.00  0.00    +0.000 C 
BRANCH  31  32
ATOM     32  N   UNL     1       0.435   9.477  24.205  0.00  0.00    +0.000 NA
ATOM     33  H   UNL     1       0.622  10.485  24.187  0.00  0.00    +0.000 HD
ATOM     34  H   UNL     1       1.310   9.041  23.924  0.00  0.00    +0.000 HD
ENDBRANCH  31  32
ENDBRANCH   9  31
TORSDOF 6
ENDMDL
MODEL 9
REMARK VINA RESULT:      -6.6      1.068      1.414
REMARK  Name = 
REMARK  7 active torsions:
REMARK  status: ('A' for Active; 'I' for Inactive)
REMARK    1  A    between atoms: C_1  and  C_2
REMARK    2  A    between atoms: C_2  and  N_3
REMARK    3  A    between atoms: C_11  and  C_12
REMARK    4  A    between atoms: C_12  and  N_13
REMARK    5  A    between atoms: C_22  and  N_23
REMARK    6  A    between atoms: N_23  and  C_24
REMARK    7  A    between atoms: C_24  and  C_25
REMARK                            x       y       z     vdW  Elec       q    Type
REMARK                         _______ _______ _______ _____ _____    ______ ____
ROOT
ATOM      1  N   UNL     1      -3.997  15.580  24.499  0.00  0.00    +0.000 NA
ATOM      2  C   UNL     1      -2.525  15.612  24.466  0.00  0.00    +0.000 C 
ATOM      3  C   UNL     1      -1.929  14.252  24.072  0.00  0.00    +0.000 C 
ATOM      4  C   UNL     1      -2.530  13.697  22.814  0.00  0.00    +0.000 A 
ATOM      5  C   UNL     1      -3.797  14.111  22.437  0.00  0.00    +0.000 A 
ATOM      6  N   UNL     1      -4.430  13.632  21.337  0.00  0.00    +0.000 NA
ATOM      7  C   UNL     1      -3.761  12.751  20.581  0.00  0.00    +0.000 A 
ATOM      8  N   UNL     1      -4.355  12.302  19.343  0.00  0.00    +0.000 N 
ATOM      9  C   UNL     1      -5.708  12.373  18.983  0.00  0.00    +0.000 A 
ATOM     10  C   UNL     1      -5.847  11.761  17.751  0.00  0.00    +0.000 A 
ATOM     11  C   UNL     1      -4.578  11.335  17.307  0.00  0.00    +0.000 A 
ATOM     12  C   UNL     1      -4.142  10.668  16.143  0.00  0.00    +0.000 A 
ATOM     13  C   UNL     1      -2.783  10.407  15.960  0.00  0.00    +0.000 A 
ATOM     14  C   UNL     1      -1.859  10.815  16.913  0.00  0.00    +0.000 A 
ATOM     15  C   UNL     1      -2.272  11.471  18.077  0.00  0.00    +0.000 A 
ATOM     16  C   UNL     1      -3.651  11.703  18.284  0.00  0.00    +0.000 A 
ATOM     17  N   UNL     1      -2.547  12.272  20.908  0.00  0.00    +0.000 NA
ATOM     18  C   UNL     1      -1.941  12.710  22.033  0.00  0.00    +0.000 A 
ATOM     19  C   UNL     1      -4.527  15.221  23.169  0.00  0.00    +0.000 C 
ENDROOT
BRANCH   1  21
ATOM     20  C   UNL     1      -5.624  17.473  24.074  0.00  0.00    +0.000 C 
ATOM     21  C   UNL     1      -4.508  16.896  24.941  0.00  0.00    +0.000 C 
ENDBRANCH   1  21
BRANCH  18  22
ATOM     22  N   UNL     1      -0.637  12.252  22.283  0.00  0.00    +0.000 N 
ATOM     23  H   UNL     1      -0.566  11.244  22.278  0.00  0.00    +0.000 HD
BRANCH  22  24
ATOM     24  C   UNL     1       0.397  12.827  21.410  0.00  0.00    +0.000 C 
BRANCH  24  25
ATOM     25  C   UNL     1       0.863  11.833  20.364  0.00  0.00    +0.000 A 
ATOM     26  C   UNL     1       0.539  10.470  20.486  0.00  0.00    +0.000 A 
ATOM     27  C   UNL     1       0.881   9.557  19.483  0.00  0.00    +0.000 A 
ATOM     28  C   UNL     1       1.545   9.997  18.339  0.00  0.00    +0.000 A 
ATOM     29  C   UNL     1       1.858  11.346  18.194  0.00  0.00    +0.000 A 
ATOM     30  C   UNL     1       1.511  12.257  19.195  0.00  0.00    +0.000 A 
ENDBRANCH  24  25
ENDBRANCH  22  24
ENDBRANCH  18  22
BRANCH   9  31
ATOM     31  C   UNL     1      -6.816  12.883  19.839  0.00  0.00    +0.000 C 
BRANCH  31  32
ATOM     32  N   UNL     1      -7.610  13.890  19.153  0.00  0.00    +0.000 NA
ATOM     33  H   UNL     1      -7.216  13.970  18.211  0.00  0.00    +0.000 HD
ATOM     34  H   UNL     1      -7.432  14.790  19.593  0.00  0.00    +0.000 HD
ENDBRANCH  31  32
ENDBRANCH   9  31
TORSDOF 6
ENDMDL
