MODEL 1
REMARK VINA RESULT:      -8.1      0.000      0.000
REMARK  Name = 
REMARK  9 active torsions:
REMARK  status: ('A' for Active; 'I' for Inactive)
REMARK    1  A    between atoms: C_1  and  O_2
REMARK    2  A    between atoms: O_2  and  C_3
REMARK    3  A    between atoms: C_7  and  C_8
REMARK    4  A    between atoms: C_10  and  C_11
REMARK    5  A    between atoms: C_12  and  C_13
REMARK    6  A    between atoms: C_13  and  O_14
REMARK    7  A    between atoms: O_14  and  C_15
REMARK    8  A    between atoms: C_18  and  C_19
REMARK    9  A    between atoms: C_19  and  O_21
REMARK                            x       y       z     vdW  Elec       q    Type
REMARK                         _______ _______ _______ _____ _____    ______ ____
ROOT
ATOM      1  C   UNL     1       2.233   6.121  19.946  0.00  0.00    +0.000 A 
ATOM      2  N   UNL     1       1.664   5.390  20.886  0.00  0.00    +0.000 NA
ATOM      3  C   UNL     1       2.330   4.190  20.839  0.00  0.00    +0.000 A 
ATOM      4  C   UNL     1       1.971   3.093  21.760  0.00  0.00    +0.000 C 
ATOM      5  C   UNL     1       3.310   4.240  19.870  0.00  0.00    +0.000 A 
ATOM      6  O   UNL     1       3.253   5.481  19.286  0.00  0.00    +0.000 OA
ENDROOT
BRANCH   1  11
ATOM      7  C   UNL     1       1.020   9.709  20.013  0.00  0.00    +0.000 A 
ATOM      8  C   UNL     1       1.403  10.125  18.735  0.00  0.00    +0.000 A 
ATOM      9  C   UNL     1       2.036   9.243  17.863  0.00  0.00    +0.000 A 
ATOM     10  C   UNL     1       2.296   7.936  18.271  0.00  0.00    +0.000 A 
ATOM     11  C   UNL     1       1.931   7.497  19.555  0.00  0.00    +0.000 A 
ATOM     12  C   UNL     1       1.289   8.399  20.421  0.00  0.00    +0.000 A 
BRANCH   7  14
ATOM     13  C   UNL     1       0.954  11.976  20.736  0.00  0.00    +0.000 C 
ATOM     14  O   UNL     1       0.391  10.671  20.754  0.00  0.00    +0.000 OA
ENDBRANCH   7  14
ENDBRANCH   1  11
BRANCH   5  15
ATOM     15  C   UNL     1       4.362   3.306  19.402  0.00  0.00    +0.000 C 
BRANCH  15  16
ATOM     16  O   UNL     1       5.513   4.090  19.093  0.00  0.00    +0.000 OA
BRANCH  16  17
ATOM     17  C   UNL     1       5.793   4.275  17.765  0.00  0.00    +0.000 A 
ATOM     18  C   UNL     1       7.023   4.879  17.505  0.00  0.00    +0.000 A 
ATOM     19  C   UNL     1       7.456   5.084  16.191  0.00  0.00    +0.000 A 
ATOM     20  C   UNL     1       6.662   4.668  15.112  0.00  0.00    +0.000 A 
ATOM     21  C   UNL     1       5.432   4.053  15.368  0.00  0.00    +0.000 A 
ATOM     22  C   UNL     1       4.999   3.860  16.693  0.00  0.00    +0.000 A 
BRANCH  20  23
ATOM     23  C   UNL     1       7.225   4.850  13.743  0.00  0.00    +0.000 C 
ATOM     24  O   UNL     1       8.085   5.679  13.492  0.00  0.00    +0.000 OA
BRANCH  23  25
ATOM     25  O   UNL     1       6.691   4.054  12.793  0.00  0.00    +0.000 OA
ATOM     26  H   UNL     1       6.362   3.189  13.093  0.00  0.00    +0.000 HD
ENDBRANCH  23  25
ENDBRANCH  20  23
ENDBRANCH  16  17
ENDBRANCH  15  16
ENDBRANCH   5  15
TORSDOF 7
ENDMDL
MODEL 2
REMARK VINA RESULT:      -8.0      0.437      1.052
REMARK  Name = 
REMARK  9 active torsions:
REMARK  status: ('A' for Active; 'I' for Inactive)
REMARK    1  A    between atoms: C_1  and  O_2
REMARK    2  A    between atoms: O_2  and  C_3
REMARK    3  A    between atoms: C_7  and  C_8
REMARK    4  A    between atoms: C_10  and  C_11
REMARK    5  A    between atoms: C_12  and  C_13
REMARK    6  A    between atoms: C_13  and  O_14
REMARK    7  A    between atoms: O_14  and  C_15
REMARK    8  A    between atoms: C_18  and  C_19
REMARK    9  A    between atoms: C_19  and  O_21
REMARK                            x       y       z     vdW  Elec       q    Type
REMARK                         _______ _______ _______ _____ _____    ______ ____
ROOT
ATOM      1  C   UNL     1       2.186   6.297  19.958  0.00  0.00    +0.000 A 
ATOM      2  N   UNL     1       1.606   5.557  20.884  0.00  0.00    +0.000 NA
ATOM      3  C   UNL     1       2.288   4.365  20.850  0.00  0.00    +0.000 A 
ATOM      4  C   UNL     1       1.922   3.262  21.761  0.00  0.00    +0.000 C 
ATOM      5  C   UNL     1       3.288   4.430  19.902  0.00  0.00    +0.000 A 
ATOM      6  O   UNL     1       3.228   5.671  19.319  0.00  0.00    +0.000 OA
ENDROOT
BRANCH   1  11
ATOM      7  C   UNL     1       0.940   9.874  20.010  0.00  0.00    +0.000 A 
ATOM      8  C   UNL     1       1.330  10.292  18.735  0.00  0.00    +0.000 A 
ATOM      9  C   UNL     1       1.980   9.415  17.870  0.00  0.00    +0.000 A 
ATOM     10  C   UNL     1       2.248   8.110  18.282  0.00  0.00    +0.000 A 
ATOM     11  C   UNL     1       1.875   7.669  19.563  0.00  0.00    +0.000 A 
ATOM     12  C   UNL     1       1.216   8.566  20.421  0.00  0.00    +0.000 A 
BRANCH   7  14
ATOM     13  C   UNL     1      -0.514  11.758  20.033  0.00  0.00    +0.000 C 
ATOM     14  O   UNL     1       0.294  10.830  20.744  0.00  0.00    +0.000 OA
ENDBRANCH   7  14
ENDBRANCH   1  11
BRANCH   5  15
ATOM     15  C   UNL     1       4.362   3.510  19.455  0.00  0.00    +0.000 C 
BRANCH  15  16
ATOM     16  O   UNL     1       5.523   4.304  19.218  0.00  0.00    +0.000 OA
BRANCH  16  17
ATOM     17  C   UNL     1       5.997   4.332  17.933  0.00  0.00    +0.000 A 
ATOM     18  C   UNL     1       5.066   3.976  16.958  0.00  0.00    +0.000 A 
ATOM     19  C   UNL     1       5.403   4.008  15.602  0.00  0.00    +0.000 A 
ATOM     20  C   UNL     1       6.684   4.414  15.200  0.00  0.00    +0.000 A 
ATOM     21  C   UNL     1       7.619   4.781  16.174  0.00  0.00    +0.000 A 
ATOM     22  C   UNL     1       7.274   4.736  17.538  0.00  0.00    +0.000 A 
BRANCH  20  23
ATOM     23  C   UNL     1       6.945   4.496  13.734  0.00  0.00    +0.000 C 
ATOM     24  O   UNL     1       7.576   5.411  13.231  0.00  0.00    +0.000 OA
BRANCH  23  25
ATOM     25  O   UNL     1       6.404   3.503  12.999  0.00  0.00    +0.000 OA
ATOM     26  H   UNL     1       7.030   2.930  12.523  0.00  0.00    +0.000 HD
ENDBRANCH  23  25
ENDBRANCH  20  23
ENDBRANCH  16  17
ENDBRANCH  15  16
ENDBRANCH   5  15
TORSDOF 7
ENDMDL
MODEL 3
REMARK VINA RESULT:      -8.0      2.108      7.518
REMARK  Name = 
REMARK  9 active torsions:
REMARK  status: ('A' for Active; 'I' for Inactive)
REMARK    1  A    between atoms: C_1  and  O_2
REMARK    2  A    between atoms: O_2  and  C_3
REMARK    3  A    between atoms: C_7  and  C_8
REMARK    4  A    between atoms: C_10  and  C_11
REMARK    5  A    between atoms: C_12  and  C_13
REMARK    6  A    between atoms: C_13  and  O_14
REMARK    7  A    between atoms: O_14  and  C_15
REMARK    8  A    between atoms: C_18  and  C_19
REMARK    9  A    between atoms: C_19  and  O_21
REMARK                            x       y       z     vdW  Elec       q    Type
REMARK                         _______ _______ _______ _____ _____    ______ ____
ROOT
ATOM      1  C   UNL     1       3.618   4.883  18.453  0.00  0.00    +0.000 A 
ATOM      2  N   UNL     1       2.827   3.862  18.729  0.00  0.00    +0.000 NA
ATOM      3  C   UNL     1       1.936   4.356  19.650  0.00  0.00    +0.000 A 
ATOM      4  C   UNL     1       0.874   3.494  20.208  0.00  0.00    +0.000 C 
ATOM      5  C   UNL     1       2.209   5.686  19.894  0.00  0.00    +0.000 A 
ATOM      6  O   UNL     1       3.294   6.034  19.129  0.00  0.00    +0.000 OA
ENDROOT
BRANCH   1  11
ATOM      7  C   UNL     1       6.753   5.996  16.642  0.00  0.00    +0.000 A 
ATOM      8  C   UNL     1       6.891   4.954  15.721  0.00  0.00    +0.000 A 
ATOM      9  C   UNL     1       5.967   3.912  15.686  0.00  0.00    +0.000 A 
ATOM     10  C   UNL     1       4.899   3.906  16.582  0.00  0.00    +0.000 A 
ATOM     11  C   UNL     1       4.746   4.935  17.525  0.00  0.00    +0.000 A 
ATOM     12  C   UNL     1       5.684   5.981  17.543  0.00  0.00    +0.000 A 
BRANCH   7  14
ATOM     13  C   UNL     1       7.782   7.914  17.603  0.00  0.00    +0.000 C 
ATOM     14  O   UNL     1       7.718   6.960  16.551  0.00  0.00    +0.000 OA
ENDBRANCH   7  14
ENDBRANCH   1  11
BRANCH   5  15
ATOM     15  C   UNL     1       1.581   6.745  20.721  0.00  0.00    +0.000 C 
BRANCH  15  16
ATOM     16  O   UNL     1       2.107   7.993  20.274  0.00  0.00    +0.000 OA
BRANCH  16  17
ATOM     17  C   UNL     1       1.227   8.852  19.670  0.00  0.00    +0.000 A 
ATOM     18  C   UNL     1       0.323   9.466  20.536  0.00  0.00    +0.000 A 
ATOM     19  C   UNL     1      -0.600  10.402  20.059  0.00  0.00    +0.000 A 
ATOM     20  C   UNL     1      -0.620  10.747  18.700  0.00  0.00    +0.000 A 
ATOM     21  C   UNL     1       0.291  10.140  17.830  0.00  0.00    +0.000 A 
ATOM     22  C   UNL     1       1.210   9.192  18.316  0.00  0.00    +0.000 A 
BRANCH  20  23
ATOM     23  C   UNL     1      -1.581  11.808  18.280  0.00  0.00    +0.000 C 
ATOM     24  O   UNL     1      -2.741  11.829  18.658  0.00  0.00    +0.000 OA
BRANCH  23  25
ATOM     25  O   UNL     1      -1.083  12.726  17.425  0.00  0.00    +0.000 OA
ATOM     26  H   UNL     1      -0.379  12.420  16.829  0.00  0.00    +0.000 HD
ENDBRANCH  23  25
ENDBRANCH  20  23
ENDBRANCH  16  17
ENDBRANCH  15  16
ENDBRANCH   5  15
TORSDOF 7
ENDMDL
MODEL 4
REMARK VINA RESULT:      -7.9      3.249      8.084
REMARK  Name = 
REMARK  9 active torsions:
REMARK  status: ('A' for Active; 'I' for Inactive)
REMARK    1  A    between atoms: C_1  and  O_2
REMARK    2  A    between atoms: O_2  and  C_3
REMARK    3  A    between atoms: C_7  and  C_8
REMARK    4  A    between atoms: C_10  and  C_11
REMARK    5  A    between atoms: C_12  and  C_13
REMARK    6  A    between atoms: C_13  and  O_14
REMARK    7  A    between atoms: O_14  and  C_15
REMARK    8  A    between atoms: C_18  and  C_19
REMARK    9  A    between atoms: C_19  and  O_21
REMARK                            x       y       z     vdW  Elec       q    Type
REMARK                         _______ _______ _______ _____ _____    ______ ____
ROOT
ATOM      1  C   UNL     1       6.730   5.179  15.432  0.00  0.00    +0.000 A 
ATOM      2  N   UNL     1       7.501   4.828  16.445  0.00  0.00    +0.000 NA
ATOM      3  C   UNL     1       7.040   5.571  17.503  0.00  0.00    +0.000 A 
ATOM      4  C   UNL     1       7.663   5.451  18.836  0.00  0.00    +0.000 C 
ATOM      5  C   UNL     1       5.974   6.347  17.096  0.00  0.00    +0.000 A 
ATOM      6  O   UNL     1       5.770   6.104  15.761  0.00  0.00    +0.000 OA
ENDROOT
BRANCH   1  11
ATOM      7  C   UNL     1       5.872   3.350  12.228  0.00  0.00    +0.000 A 
ATOM      8  C   UNL     1       6.884   3.828  11.391  0.00  0.00    +0.000 A 
ATOM      9  C   UNL     1       7.837   4.724  11.870  0.00  0.00    +0.000 A 
ATOM     10  C   UNL     1       7.776   5.152  13.195  0.00  0.00    +0.000 A 
ATOM     11  C   UNL     1       6.762   4.695  14.054  0.00  0.00    +0.000 A 
ATOM     12  C   UNL     1       5.812   3.787  13.555  0.00  0.00    +0.000 A 
BRANCH   7  14
ATOM     13  C   UNL     1       3.806   2.982  11.106  0.00  0.00    +0.000 C 
ATOM     14  O   UNL     1       5.020   2.462  11.632  0.00  0.00    +0.000 OA
ENDBRANCH   7  14
ENDBRANCH   1  11
BRANCH   5  15
ATOM     15  C   UNL     1       5.049   7.286  17.775  0.00  0.00    +0.000 C 
BRANCH  15  16
ATOM     16  O   UNL     1       3.723   6.905  17.412  0.00  0.00    +0.000 OA
BRANCH  16  17
ATOM     17  C   UNL     1       3.068   6.061  18.270  0.00  0.00    +0.000 A 
ATOM     18  C   UNL     1       2.276   5.096  17.650  0.00  0.00    +0.000 A 
ATOM     19  C   UNL     1       1.590   4.141  18.406  0.00  0.00    +0.000 A 
ATOM     20  C   UNL     1       1.701   4.132  19.804  0.00  0.00    +0.000 A 
ATOM     21  C   UNL     1       2.502   5.093  20.430  0.00  0.00    +0.000 A 
ATOM     22  C   UNL     1       3.181   6.057  19.662  0.00  0.00    +0.000 A 
BRANCH  20  23
ATOM     23  C   UNL     1       1.003   3.036  20.536  0.00  0.00    +0.000 C 
ATOM     24  O   UNL     1       1.341   2.674  21.651  0.00  0.00    +0.000 OA
BRANCH  23  25
ATOM     25  O   UNL     1      -0.010   2.452  19.863  0.00  0.00    +0.000 OA
ATOM     26  H   UNL     1       0.235   1.957  19.063  0.00  0.00    +0.000 HD
ENDBRANCH  23  25
ENDBRANCH  20  23
ENDBRANCH  16  17
ENDBRANCH  15  16
ENDBRANCH   5  15
TORSDOF 7
ENDMDL
MODEL 5
REMARK VINA RESULT:      -7.8      2.120      7.428
REMARK  Name = 
REMARK  9 active torsions:
REMARK  status: ('A' for Active; 'I' for Inactive)
REMARK    1  A    between atoms: C_1  and  O_2
REMARK    2  A    between atoms: O_2  and  C_3
REMARK    3  A    between atoms: C_7  and  C_8
REMARK    4  A    between atoms: C_10  and  C_11
REMARK    5  A    between atoms: C_12  and  C_13
REMARK    6  A    between atoms: C_13  and  O_14
REMARK    7  A    between atoms: O_14  and  C_15
REMARK    8  A    between atoms: C_18  and  C_19
REMARK    9  A    between atoms: C_19  and  O_21
REMARK                            x       y       z     vdW  Elec       q    Type
REMARK                         _______ _______ _______ _____ _____    ______ ____
ROOT
ATOM      1  C   UNL     1       3.848   4.960  18.959  0.00  0.00    +0.000 A 
ATOM      2  N   UNL     1       3.496   3.911  19.679  0.00  0.00    +0.000 NA
ATOM      3  C   UNL     1       2.528   4.386  20.529  0.00  0.00    +0.000 A 
ATOM      4  C   UNL     1       1.877   3.490  21.506  0.00  0.00    +0.000 C 
ATOM      5  C   UNL     1       2.307   5.725  20.279  0.00  0.00    +0.000 A 
ATOM      6  O   UNL     1       3.157   6.105  19.271  0.00  0.00    +0.000 OA
ENDROOT
BRANCH   1  11
ATOM      7  C   UNL     1       6.744   6.089  16.793  0.00  0.00    +0.000 A 
ATOM      8  C   UNL     1       6.713   5.103  15.804  0.00  0.00    +0.000 A 
ATOM      9  C   UNL     1       5.754   4.094  15.838  0.00  0.00    +0.000 A 
ATOM     10  C   UNL     1       4.821   4.063  16.874  0.00  0.00    +0.000 A 
ATOM     11  C   UNL     1       4.838   5.036  17.887  0.00  0.00    +0.000 A 
ATOM     12  C   UNL     1       5.810   6.051  17.833  0.00  0.00    +0.000 A 
BRANCH   7  14
ATOM     13  C   UNL     1       7.785   8.080  17.579  0.00  0.00    +0.000 C 
ATOM     14  O   UNL     1       7.723   7.029  16.624  0.00  0.00    +0.000 OA
ENDBRANCH   7  14
ENDBRANCH   1  11
BRANCH   5  15
ATOM     15  C   UNL     1       1.372   6.745  20.814  0.00  0.00    +0.000 C 
BRANCH  15  16
ATOM     16  O   UNL     1       1.944   8.022  20.538  0.00  0.00    +0.000 OA
BRANCH  16  17
ATOM     17  C   UNL     1       1.109   8.969  20.006  0.00  0.00    +0.000 A 
ATOM     18  C   UNL     1       1.163   9.082  18.617  0.00  0.00    +0.000 A 
ATOM     19  C   UNL     1       0.328   9.975  17.939  0.00  0.00    +0.000 A 
ATOM     20  C   UNL     1      -0.590  10.763  18.649  0.00  0.00    +0.000 A 
ATOM     21  C   UNL     1      -0.653  10.647  20.042  0.00  0.00    +0.000 A 
ATOM     22  C   UNL     1       0.197   9.753  20.717  0.00  0.00    +0.000 A 
BRANCH  20  23
ATOM     23  C   UNL     1      -1.499  11.636  17.851  0.00  0.00    +0.000 C 
ATOM     24  O   UNL     1      -2.567  11.242  17.413  0.00  0.00    +0.000 OA
BRANCH  23  25
ATOM     25  O   UNL     1      -1.040  12.884  17.621  0.00  0.00    +0.000 OA
ATOM     26  H   UNL     1      -1.567  13.430  17.013  0.00  0.00    +0.000 HD
ENDBRANCH  23  25
ENDBRANCH  20  23
ENDBRANCH  16  17
ENDBRANCH  15  16
ENDBRANCH   5  15
TORSDOF 7
ENDMDL
MODEL 6
REMARK VINA RESULT:      -7.8      2.274      7.962
REMARK  Name = 
REMARK  9 active torsions:
REMARK  status: ('A' for Active; 'I' for Inactive)
REMARK    1  A    between atoms: C_1  and  O_2
REMARK    2  A    between atoms: O_2  and  C_3
REMARK    3  A    between atoms: C_7  and  C_8
REMARK    4  A    between atoms: C_10  and  C_11
REMARK    5  A    between atoms: C_12  and  C_13
REMARK    6  A    between atoms: C_13  and  O_14
REMARK    7  A    between atoms: O_14  and  C_15
REMARK    8  A    between atoms: C_18  and  C_19
REMARK    9  A    between atoms: C_19  and  O_21
REMARK                            x       y       z     vdW  Elec       q    Type
REMARK                         _______ _______ _______ _____ _____    ______ ____
ROOT
ATOM      1  C   UNL     1       6.725   4.834  16.109  0.00  0.00    +0.000 A 
ATOM      2  N   UNL     1       7.640   5.352  16.908  0.00  0.00    +0.000 NA
ATOM      3  C   UNL     1       7.063   5.327  18.153  0.00  0.00    +0.000 A 
ATOM      4  C   UNL     1       7.795   5.833  19.332  0.00  0.00    +0.000 C 
ATOM      5  C   UNL     1       5.804   4.769  18.072  0.00  0.00    +0.000 A 
ATOM      6  O   UNL     1       5.576   4.451  16.756  0.00  0.00    +0.000 OA
ENDROOT
BRANCH   1  11
ATOM      7  C   UNL     1       6.093   3.466  12.633  0.00  0.00    +0.000 A 
ATOM      8  C   UNL     1       6.992   4.240  11.895  0.00  0.00    +0.000 A 
ATOM      9  C   UNL     1       7.799   5.185  12.525  0.00  0.00    +0.000 A 
ATOM     10  C   UNL     1       7.704   5.363  13.904  0.00  0.00    +0.000 A 
ATOM     11  C   UNL     1       6.799   4.606  14.667  0.00  0.00    +0.000 A 
ATOM     12  C   UNL     1       5.997   3.654  14.016  0.00  0.00    +0.000 A 
BRANCH   7  14
ATOM     13  C   UNL     1       6.109   1.509  11.279  0.00  0.00    +0.000 C 
ATOM     14  O   UNL     1       5.381   2.566  11.891  0.00  0.00    +0.000 OA
ENDBRANCH   7  14
ENDBRANCH   1  11
BRANCH   5  15
ATOM     15  C   UNL     1       4.748   4.429  19.056  0.00  0.00    +0.000 C 
BRANCH  15  16
ATOM     16  O   UNL     1       3.494   4.730  18.446  0.00  0.00    +0.000 OA
BRANCH  16  17
ATOM     17  C   UNL     1       2.989   5.985  18.665  0.00  0.00    +0.000 A 
ATOM     18  C   UNL     1       3.028   6.833  17.559  0.00  0.00    +0.000 A 
ATOM     19  C   UNL     1       2.502   8.126  17.630  0.00  0.00    +0.000 A 
ATOM     20  C   UNL     1       1.912   8.585  18.816  0.00  0.00    +0.000 A 
ATOM     21  C   UNL     1       1.863   7.736  19.926  0.00  0.00    +0.000 A 
ATOM     22  C   UNL     1       2.404   6.439  19.850  0.00  0.00    +0.000 A 
BRANCH  20  23
ATOM     23  C   UNL     1       1.304   9.947  18.793  0.00  0.00    +0.000 C 
ATOM     24  O   UNL     1       0.286  10.221  19.407  0.00  0.00    +0.000 OA
BRANCH  23  25
ATOM     25  O   UNL     1       1.943  10.847  18.016  0.00  0.00    +0.000 OA
ATOM     26  H   UNL     1       2.773  10.548  17.606  0.00  0.00    +0.000 HD
ENDBRANCH  23  25
ENDBRANCH  20  23
ENDBRANCH  16  17
ENDBRANCH  15  16
ENDBRANCH   5  15
TORSDOF 7
ENDMDL
MODEL 7
REMARK VINA RESULT:      -7.8      2.006      8.175
REMARK  Name = 
REMARK  9 active torsions:
REMARK  status: ('A' for Active; 'I' for Inactive)
REMARK    1  A    between atoms: C_1  and  O_2
REMARK    2  A    between atoms: O_2  and  C_3
REMARK    3  A    between atoms: C_7  and  C_8
REMARK    4  A    between atoms: C_10  and  C_11
REMARK    5  A    between atoms: C_12  and  C_13
REMARK    6  A    between atoms: C_13  and  O_14
REMARK    7  A    between atoms: O_14  and  C_15
REMARK    8  A    between atoms: C_18  and  C_19
REMARK    9  A    between atoms: C_19  and  O_21
REMARK                            x       y       z     vdW  Elec       q    Type
REMARK                         _______ _______ _______ _____ _____    ______ ____
ROOT
ATOM      1  C   UNL     1       3.821   4.679  18.714  0.00  0.00    +0.000 A 
ATOM      2  N   UNL     1       3.380   3.562  19.262  0.00  0.00    +0.000 NA
ATOM      3  C   UNL     1       2.440   3.974  20.175  0.00  0.00    +0.000 A 
ATOM      4  C   UNL     1       1.711   2.991  21.001  0.00  0.00    +0.000 C 
ATOM      5  C   UNL     1       2.326   5.349  20.136  0.00  0.00    +0.000 A 
ATOM      6  O   UNL     1       3.216   5.812  19.200  0.00  0.00    +0.000 OA
ENDROOT
BRANCH   1  11
ATOM      7  C   UNL     1       6.728   6.003  16.678  0.00  0.00    +0.000 A 
ATOM      8  C   UNL     1       6.736   5.080  15.628  0.00  0.00    +0.000 A 
ATOM      9  C   UNL     1       5.799   4.051  15.582  0.00  0.00    +0.000 A 
ATOM     10  C   UNL     1       4.849   3.936  16.595  0.00  0.00    +0.000 A 
ATOM     11  C   UNL     1       4.828   4.844  17.667  0.00  0.00    +0.000 A 
ATOM     12  C   UNL     1       5.777   5.880  17.695  0.00  0.00    +0.000 A 
BRANCH   7  14
ATOM     13  C   UNL     1       7.741   7.935  17.629  0.00  0.00    +0.000 C 
ATOM     14  O   UNL     1       7.689   6.971  16.585  0.00  0.00    +0.000 OA
ENDBRANCH   7  14
ENDBRANCH   1  11
BRANCH   5  15
ATOM     15  C   UNL     1       1.466   6.343  20.822  0.00  0.00    +0.000 C 
BRANCH  15  16
ATOM     16  O   UNL     1       1.818   7.627  20.309  0.00  0.00    +0.000 OA
BRANCH  16  17
ATOM     17  C   UNL     1       1.095   8.694  20.771  0.00  0.00    +0.000 A 
ATOM     18  C   UNL     1       0.805   8.658  22.135  0.00  0.00    +0.000 A 
ATOM     19  C   UNL     1       0.114   9.707  22.747  0.00  0.00    +0.000 A 
ATOM     20  C   UNL     1      -0.287  10.823  21.998  0.00  0.00    +0.000 A 
ATOM     21  C   UNL     1       0.009  10.868  20.632  0.00  0.00    +0.000 A 
ATOM     22  C   UNL     1       0.696   9.803  20.021  0.00  0.00    +0.000 A 
BRANCH  20  23
ATOM     23  C   UNL     1      -0.951  11.936  22.735  0.00  0.00    +0.000 C 
ATOM     24  O   UNL     1      -0.360  12.954  23.056  0.00  0.00    +0.000 OA
BRANCH  23  25
ATOM     25  O   UNL     1      -2.245  11.723  23.051  0.00  0.00    +0.000 OA
ATOM     26  H   UNL     1      -2.440  11.586  23.994  0.00  0.00    +0.000 HD
ENDBRANCH  23  25
ENDBRANCH  20  23
ENDBRANCH  16  17
ENDBRANCH  15  16
ENDBRANCH   5  15
TORSDOF 7
ENDMDL
MODEL 8
REMARK VINA RESULT:      -7.7      0.922      1.157
REMARK  Name = 
REMARK  9 active torsions:
REMARK  status: ('A' for Active; 'I' for Inactive)
REMARK    1  A    between atoms: C_1  and  O_2
REMARK    2  A    between atoms: O_2  and  C_3
REMARK    3  A    between atoms: C_7  and  C_8
REMARK    4  A    between atoms: C_10  and  C_11
REMARK    5  A    between atoms: C_12  and  C_13
REMARK    6  A    between atoms: C_13  and  O_14
REMARK    7  A    between atoms: O_14  and  C_15
REMARK    8  A    between atoms: C_18  and  C_19
REMARK    9  A    between atoms: C_19  and  O_21
REMARK                            x       y       z     vdW  Elec       q    Type
REMARK                         _______ _______ _______ _____ _____    ______ ____
ROOT
ATOM      1  C   UNL     1       2.061   6.103  20.144  0.00  0.00    +0.000 A 
ATOM      2  N   UNL     1       1.332   5.090  20.577  0.00  0.00    +0.000 NA
ATOM      3  C   UNL     1       2.138   3.991  20.412  0.00  0.00    +0.000 A 
ATOM      4  C   UNL     1       1.663   2.645  20.793  0.00  0.00    +0.000 C 
ATOM      5  C   UNL     1       3.356   4.380  19.895  0.00  0.00    +0.000 A 
ATOM      6  O   UNL     1       3.314   5.741  19.715  0.00  0.00    +0.000 OA
ENDROOT
BRANCH   1  11
ATOM      7  C   UNL     1       1.029   9.604  21.156  0.00  0.00    +0.000 A 
ATOM      8  C   UNL     1       1.065  10.242  19.913  0.00  0.00    +0.000 A 
ATOM      9  C   UNL     1       1.410   9.536  18.763  0.00  0.00    +0.000 A 
ATOM     10  C   UNL     1       1.728   8.182  18.854  0.00  0.00    +0.000 A 
ATOM     11  C   UNL     1       1.710   7.520  20.093  0.00  0.00    +0.000 A 
ATOM     12  C   UNL     1       1.355   8.247  21.243  0.00  0.00    +0.000 A 
BRANCH   7  14
ATOM     13  C   UNL     1      -0.537  10.066  22.887  0.00  0.00    +0.000 C 
ATOM     14  O   UNL     1       0.655  10.411  22.194  0.00  0.00    +0.000 OA
ENDBRANCH   7  14
ENDBRANCH   1  11
BRANCH   5  15
ATOM     15  C   UNL     1       4.620   3.680  19.563  0.00  0.00    +0.000 C 
BRANCH  15  16
ATOM     16  O   UNL     1       5.535   4.668  19.091  0.00  0.00    +0.000 OA
BRANCH  16  17
ATOM     17  C   UNL     1       5.752   4.711  17.739  0.00  0.00    +0.000 A 
ATOM     18  C   UNL     1       7.095   4.706  17.362  0.00  0.00    +0.000 A 
ATOM     19  C   UNL     1       7.458   4.700  16.012  0.00  0.00    +0.000 A 
ATOM     20  C   UNL     1       6.473   4.682  15.014  0.00  0.00    +0.000 A 
ATOM     21  C   UNL     1       5.125   4.678  15.388  0.00  0.00    +0.000 A 
ATOM     22  C   UNL     1       4.768   4.695  16.749  0.00  0.00    +0.000 A 
BRANCH  20  23
ATOM     23  C   UNL     1       6.936   4.598  13.599  0.00  0.00    +0.000 C 
ATOM     24  O   UNL     1       6.514   3.759  12.820  0.00  0.00    +0.000 OA
BRANCH  23  25
ATOM     25  O   UNL     1       7.882   5.496  13.251  0.00  0.00    +0.000 OA
ATOM     26  H   UNL     1       8.654   5.556  13.840  0.00  0.00    +0.000 HD
ENDBRANCH  23  25
ENDBRANCH  20  23
ENDBRANCH  16  17
ENDBRANCH  15  16
ENDBRANCH   5  15
TORSDOF 7
ENDMDL
MODEL 9
REMARK VINA RESULT:      -7.7      1.925      7.082
REMARK  Name = 
REMARK  9 active torsions:
REMARK  status: ('A' for Active; 'I' for Inactive)
REMARK    1  A    between atoms: C_1  and  O_2
REMARK    2  A    between atoms: O_2  and  C_3
REMARK    3  A    between atoms: C_7  and  C_8
REMARK    4  A    between atoms: C_10  and  C_11
REMARK    5  A    between atoms: C_12  and  C_13
REMARK    6  A    between atoms: C_13  and  O_14
REMARK    7  A    between atoms: O_14  and  C_15
REMARK    8  A    between atoms: C_18  and  C_19
REMARK    9  A    between atoms: C_19  and  O_21
REMARK                            x       y       z     vdW  Elec       q    Type
REMARK                         _______ _______ _______ _____ _____    ______ ____
ROOT
ATOM      1  C   UNL     1       3.673   4.223  17.634  0.00  0.00    +0.000 A 
ATOM      2  N   UNL     1       2.818   3.221  17.536  0.00  0.00    +0.000 NA
ATOM      3  C   UNL     1       1.917   3.437  18.549  0.00  0.00    +0.000 A 
ATOM      4  C   UNL     1       0.789   2.508  18.763  0.00  0.00    +0.000 C 
ATOM      5  C   UNL     1       2.247   4.591  19.227  0.00  0.00    +0.000 A 
ATOM      6  O   UNL     1       3.381   5.103  18.647  0.00  0.00    +0.000 OA
ENDROOT
BRANCH   1  11
ATOM      7  C   UNL     1       6.834   5.803  16.270  0.00  0.00    +0.000 A 
ATOM      8  C   UNL     1       7.066   4.980  15.165  0.00  0.00    +0.000 A 
ATOM      9  C   UNL     1       6.197   3.934  14.865  0.00  0.00    +0.000 A 
ATOM     10  C   UNL     1       5.089   3.702  15.679  0.00  0.00    +0.000 A 
ATOM     11  C   UNL     1       4.840   4.508  16.802  0.00  0.00    +0.000 A 
ATOM     12  C   UNL     1       5.724   5.563  17.087  0.00  0.00    +0.000 A 
BRANCH   7  14
ATOM     13  C   UNL     1       7.593   7.654  17.560  0.00  0.00    +0.000 C 
ATOM     14  O   UNL     1       7.753   6.801  16.433  0.00  0.00    +0.000 OA
ENDBRANCH   7  14
ENDBRANCH   1  11
BRANCH   5  15
ATOM     15  C   UNL     1       1.641   5.354  20.345  0.00  0.00    +0.000 C 
BRANCH  15  16
ATOM     16  O   UNL     1       2.409   6.546  20.505  0.00  0.00    +0.000 OA
BRANCH  16  17
ATOM     17  C   UNL     1       1.890   7.690  19.958  0.00  0.00    +0.000 A 
ATOM     18  C   UNL     1       1.091   8.440  20.819  0.00  0.00    +0.000 A 
ATOM     19  C   UNL     1       0.536   9.654  20.405  0.00  0.00    +0.000 A 
ATOM     20  C   UNL     1       0.790  10.145  19.116  0.00  0.00    +0.000 A 
ATOM     21  C   UNL     1       1.598   9.400  18.251  0.00  0.00    +0.000 A 
ATOM     22  C   UNL     1       2.144   8.173  18.672  0.00  0.00    +0.000 A 
BRANCH  20  23
ATOM     23  C   UNL     1       0.228  11.483  18.772  0.00  0.00    +0.000 C 
ATOM     24  O   UNL     1       0.672  12.519  19.239  0.00  0.00    +0.000 OA
BRANCH  23  25
ATOM     25  O   UNL     1      -0.828  11.463  17.934  0.00  0.00    +0.000 OA
ATOM     26  H   UNL     1      -1.707  11.454  18.350  0.00  0.00    +0.000 HD
ENDBRANCH  23  25
ENDBRANCH  20  23
ENDBRANCH  16  17
ENDBRANCH  15  16
ENDBRANCH   5  15
TORSDOF 7
ENDMDL
