MODEL 1
REMARK VINA RESULT:      -7.3      0.000      0.000
REMARK  Name = 
REMARK  7 active torsions:
REMARK  status: ('A' for Active; 'I' for Inactive)
REMARK    1  A    between atoms: C_1  and  C_2
REMARK    2  A    between atoms: C_2  and  N_3
REMARK    3  A    between atoms: C_2  and  C_16
REMARK    4  A    between atoms: C_4  and  C_6
REMARK    5  A    between atoms: C_9  and  N_10
REMARK    6  A    between atoms: N_10  and  C_11
REMARK    7  A    between atoms: N_10  and  C_12
REMARK                            x       y       z     vdW  Elec       q    Type
REMARK                         _______ _______ _______ _____ _____    ______ ____
ROOT
ATOM      1  N   UNL     1       4.307   3.591  17.224  0.00  0.00    +0.000 N 
ATOM      2  C   UNL     1       5.396   4.426  17.106  0.00  0.00    +0.000 C 
ATOM      3  O   UNL     1       6.281   4.495  17.959  0.00  0.00    +0.000 OA
ATOM      4  H   UNL     1       3.543   3.691  16.565  0.00  0.00    +0.000 HD
ENDROOT
BRANCH   2   5
ATOM      5  C   UNL     1       5.440   5.293  15.836  0.00  0.00    +0.000 C 
ATOM      6  C   UNL     1       4.963   4.497  14.629  0.00  0.00    +0.000 C 
ATOM      7  C   UNL     1       6.182   4.364  13.772  0.00  0.00    +0.000 C 
ATOM      8  C   UNL     1       6.396   3.645  12.662  0.00  0.00    +0.000 C 
ATOM      9  C   UNL     1       7.253   5.228  14.340  0.00  0.00    +0.000 C 
ATOM     10  O   UNL     1       8.360   5.436  13.879  0.00  0.00    +0.000 OA
ATOM     11  N   UNL     1       6.759   5.769  15.496  0.00  0.00    +0.000 N 
ATOM     12  H   UNL     1       7.295   6.441  16.031  0.00  0.00    +0.000 HD
BRANCH   8  13
ATOM     13  N   UNL     1       5.589   2.797  11.914  0.00  0.00    +0.000 N 
ATOM     14  C   UNL     1       5.967   1.478  11.413  0.00  0.00    +0.000 C 
ATOM     15  C   UNL     1       4.277   3.241  11.430  0.00  0.00    +0.000 C 
ENDBRANCH   8  13
ENDBRANCH   2   5
BRANCH   1  17
ATOM     16  C   UNL     1       3.883   1.228  17.763  0.00  0.00    +0.000 C 
ATOM     17  C   UNL     1       4.201   2.628  18.305  0.00  0.00    +0.000 C 
BRANCH  17  18
ATOM     18  C   UNL     1       3.171   3.055  19.331  0.00  0.00    +0.000 A 
ATOM     19  C   UNL     1       3.297   2.624  20.662  0.00  0.00    +0.000 A 
ATOM     20  C   UNL     1       2.312   2.923  21.604  0.00  0.00    +0.000 A 
ATOM     21  C   UNL     1       1.193   3.664  21.231  0.00  0.00    +0.000 A 
ATOM     22  C   UNL     1       1.068   4.125  19.923  0.00  0.00    +0.000 A 
ATOM     23  C   UNL     1       2.053   3.830  18.980  0.00  0.00    +0.000 A 
ENDBRANCH  17  18
ENDBRANCH   1  17
TORSDOF 4
ENDMDL
MODEL 2
REMARK VINA RESULT:      -7.3      2.223      3.178
REMARK  Name = 
REMARK  7 active torsions:
REMARK  status: ('A' for Active; 'I' for Inactive)
REMARK    1  A    between atoms: C_1  and  C_2
REMARK    2  A    between atoms: C_2  and  N_3
REMARK    3  A    between atoms: C_2  and  C_16
REMARK    4  A    between atoms: C_4  and  C_6
REMARK    5  A    between atoms: C_9  and  N_10
REMARK    6  A    between atoms: N_10  and  C_11
REMARK    7  A    between atoms: N_10  and  C_12
REMARK                            x       y       z     vdW  Elec       q    Type
REMARK                         _______ _______ _______ _____ _____    ______ ____
ROOT
ATOM      1  N   UNL     1       3.522   6.600  19.011  0.00  0.00    +0.000 N 
ATOM      2  C   UNL     1       4.052   5.959  17.914  0.00  0.00    +0.000 C 
ATOM      3  O   UNL     1       3.453   5.074  17.303  0.00  0.00    +0.000 OA
ATOM      4  H   UNL     1       4.123   7.209  19.556  0.00  0.00    +0.000 HD
ENDROOT
BRANCH   2   5
ATOM      5  C   UNL     1       5.464   6.404  17.495  0.00  0.00    +0.000 C 
ATOM      6  C   UNL     1       5.675   6.180  16.004  0.00  0.00    +0.000 C 
ATOM      7  C   UNL     1       6.720   5.112  15.938  0.00  0.00    +0.000 C 
ATOM      8  C   UNL     1       7.195   4.416  14.896  0.00  0.00    +0.000 C 
ATOM      9  C   UNL     1       7.251   4.887  17.311  0.00  0.00    +0.000 C 
ATOM     10  O   UNL     1       8.160   4.148  17.643  0.00  0.00    +0.000 OA
ATOM     11  N   UNL     1       6.527   5.684  18.155  0.00  0.00    +0.000 N 
ATOM     12  H   UNL     1       6.749   5.742  19.141  0.00  0.00    +0.000 HD
BRANCH   8  13
ATOM     13  N   UNL     1       6.912   4.438  13.537  0.00  0.00    +0.000 N 
ATOM     14  C   UNL     1       5.924   3.605  12.855  0.00  0.00    +0.000 C 
ATOM     15  C   UNL     1       7.718   5.244  12.614  0.00  0.00    +0.000 C 
ENDBRANCH   8  13
ENDBRANCH   2   5
BRANCH   1  17
ATOM     16  C   UNL     1       1.705   7.446  20.438  0.00  0.00    +0.000 C 
ATOM     17  C   UNL     1       2.154   6.372  19.438  0.00  0.00    +0.000 C 
BRANCH  17  18
ATOM     18  C   UNL     1       1.978   4.985  20.023  0.00  0.00    +0.000 A 
ATOM     19  C   UNL     1       1.205   4.036  19.337  0.00  0.00    +0.000 A 
ATOM     20  C   UNL     1       0.948   2.784  19.899  0.00  0.00    +0.000 A 
ATOM     21  C   UNL     1       1.469   2.462  21.150  0.00  0.00    +0.000 A 
ATOM     22  C   UNL     1       2.264   3.381  21.830  0.00  0.00    +0.000 A 
ATOM     23  C   UNL     1       2.525   4.632  21.268  0.00  0.00    +0.000 A 
ENDBRANCH  17  18
ENDBRANCH   1  17
TORSDOF 4
ENDMDL
MODEL 3
REMARK VINA RESULT:      -7.2      0.161      1.052
REMARK  Name = 
REMARK  7 active torsions:
REMARK  status: ('A' for Active; 'I' for Inactive)
REMARK    1  A    between atoms: C_1  and  C_2
REMARK    2  A    between atoms: C_2  and  N_3
REMARK    3  A    between atoms: C_2  and  C_16
REMARK    4  A    between atoms: C_4  and  C_6
REMARK    5  A    between atoms: C_9  and  N_10
REMARK    6  A    between atoms: N_10  and  C_11
REMARK    7  A    between atoms: N_10  and  C_12
REMARK                            x       y       z     vdW  Elec       q    Type
REMARK                         _______ _______ _______ _____ _____    ______ ____
ROOT
ATOM      1  N   UNL     1       4.295   3.535  17.286  0.00  0.00    +0.000 N 
ATOM      2  C   UNL     1       5.406   4.329  17.112  0.00  0.00    +0.000 C 
ATOM      3  O   UNL     1       6.344   4.350  17.909  0.00  0.00    +0.000 OA
ATOM      4  H   UNL     1       3.496   3.675  16.677  0.00  0.00    +0.000 HD
ENDROOT
BRANCH   2   5
ATOM      5  C   UNL     1       5.405   5.215  15.855  0.00  0.00    +0.000 C 
ATOM      6  C   UNL     1       4.931   4.423  14.643  0.00  0.00    +0.000 C 
ATOM      7  C   UNL     1       6.140   4.338  13.766  0.00  0.00    +0.000 C 
ATOM      8  C   UNL     1       6.358   3.642  12.642  0.00  0.00    +0.000 C 
ATOM      9  C   UNL     1       7.195   5.224  14.330  0.00  0.00    +0.000 C 
ATOM     10  O   UNL     1       8.288   5.471  13.855  0.00  0.00    +0.000 OA
ATOM     11  N   UNL     1       6.704   5.735  15.501  0.00  0.00    +0.000 N 
ATOM     12  H   UNL     1       7.229   6.414  16.038  0.00  0.00    +0.000 HD
BRANCH   8  13
ATOM     13  N   UNL     1       5.564   2.782  11.895  0.00  0.00    +0.000 N 
ATOM     14  C   UNL     1       5.971   1.480  11.371  0.00  0.00    +0.000 C 
ATOM     15  C   UNL     1       4.234   3.195  11.434  0.00  0.00    +0.000 C 
ENDBRANCH   8  13
ENDBRANCH   2   5
BRANCH   1  17
ATOM     16  C   UNL     1       4.034   1.142  17.796  0.00  0.00    +0.000 C 
ATOM     17  C   UNL     1       4.218   2.558  18.357  0.00  0.00    +0.000 C 
BRANCH  17  18
ATOM     18  C   UNL     1       3.114   2.895  19.339  0.00  0.00    +0.000 A 
ATOM     19  C   UNL     1       1.909   3.440  18.868  0.00  0.00    +0.000 A 
ATOM     20  C   UNL     1       0.915   3.848  19.759  0.00  0.00    +0.000 A 
ATOM     21  C   UNL     1       1.108   3.708  21.131  0.00  0.00    +0.000 A 
ATOM     22  C   UNL     1       2.284   3.140  21.613  0.00  0.00    +0.000 A 
ATOM     23  C   UNL     1       3.279   2.728  20.724  0.00  0.00    +0.000 A 
ENDBRANCH  17  18
ENDBRANCH   1  17
TORSDOF 4
ENDMDL
MODEL 4
REMARK VINA RESULT:      -7.2      2.205      3.092
REMARK  Name = 
REMARK  7 active torsions:
REMARK  status: ('A' for Active; 'I' for Inactive)
REMARK    1  A    between atoms: C_1  and  C_2
REMARK    2  A    between atoms: C_2  and  N_3
REMARK    3  A    between atoms: C_2  and  C_16
REMARK    4  A    between atoms: C_4  and  C_6
REMARK    5  A    between atoms: C_9  and  N_10
REMARK    6  A    between atoms: N_10  and  C_11
REMARK    7  A    between atoms: N_10  and  C_12
REMARK                            x       y       z     vdW  Elec       q    Type
REMARK                         _______ _______ _______ _____ _____    ______ ____
ROOT
ATOM      1  N   UNL     1       3.496   6.587  19.045  0.00  0.00    +0.000 N 
ATOM      2  C   UNL     1       4.007   6.001  17.909  0.00  0.00    +0.000 C 
ATOM      3  O   UNL     1       3.379   5.181  17.239  0.00  0.00    +0.000 OA
ATOM      4  H   UNL     1       4.115   7.135  19.631  0.00  0.00    +0.000 HD
ENDROOT
BRANCH   2   5
ATOM      5  C   UNL     1       5.436   6.422  17.523  0.00  0.00    +0.000 C 
ATOM      6  C   UNL     1       5.674   6.206  16.035  0.00  0.00    +0.000 C 
ATOM      7  C   UNL     1       6.699   5.118  15.983  0.00  0.00    +0.000 C 
ATOM      8  C   UNL     1       7.182   4.421  14.945  0.00  0.00    +0.000 C 
ATOM      9  C   UNL     1       7.196   4.872  17.364  0.00  0.00    +0.000 C 
ATOM     10  O   UNL     1       8.083   4.113  17.709  0.00  0.00    +0.000 OA
ATOM     11  N   UNL     1       6.470   5.677  18.199  0.00  0.00    +0.000 N 
ATOM     12  H   UNL     1       6.672   5.722  19.190  0.00  0.00    +0.000 HD
BRANCH   8  13
ATOM     13  N   UNL     1       6.928   4.460  13.580  0.00  0.00    +0.000 N 
ATOM     14  C   UNL     1       5.949   3.641  12.869  0.00  0.00    +0.000 C 
ATOM     15  C   UNL     1       7.761   5.268  12.683  0.00  0.00    +0.000 C 
ENDBRANCH   8  13
ENDBRANCH   2   5
BRANCH   1  17
ATOM     16  C   UNL     1       1.681   7.443  20.470  0.00  0.00    +0.000 C 
ATOM     17  C   UNL     1       2.118   6.380  19.454  0.00  0.00    +0.000 C 
BRANCH  17  18
ATOM     18  C   UNL     1       1.906   4.986  20.008  0.00  0.00    +0.000 A 
ATOM     19  C   UNL     1       2.466   4.640  21.248  0.00  0.00    +0.000 A 
ATOM     20  C   UNL     1       2.367   3.336  21.736  0.00  0.00    +0.000 A 
ATOM     21  C   UNL     1       1.699   2.364  20.996  0.00  0.00    +0.000 A 
ATOM     22  C   UNL     1       1.110   2.698  19.779  0.00  0.00    +0.000 A 
ATOM     23  C   UNL     1       1.206   4.002  19.291  0.00  0.00    +0.000 A 
ENDBRANCH  17  18
ENDBRANCH   1  17
TORSDOF 4
ENDMDL
MODEL 5
REMARK VINA RESULT:      -7.0      2.664      7.747
REMARK  Name = 
REMARK  7 active torsions:
REMARK  status: ('A' for Active; 'I' for Inactive)
REMARK    1  A    between atoms: C_1  and  C_2
REMARK    2  A    between atoms: C_2  and  N_3
REMARK    3  A    between atoms: C_2  and  C_16
REMARK    4  A    between atoms: C_4  and  C_6
REMARK    5  A    between atoms: C_9  and  N_10
REMARK    6  A    between atoms: N_10  and  C_11
REMARK    7  A    between atoms: N_10  and  C_12
REMARK                            x       y       z     vdW  Elec       q    Type
REMARK                         _______ _______ _______ _____ _____    ______ ____
ROOT
ATOM      1  N   UNL     1       5.154   4.333  16.656  0.00  0.00    +0.000 N 
ATOM      2  C   UNL     1       4.839   4.085  17.974  0.00  0.00    +0.000 C 
ATOM      3  O   UNL     1       5.692   3.939  18.849  0.00  0.00    +0.000 OA
ATOM      4  H   UNL     1       4.415   4.293  15.963  0.00  0.00    +0.000 HD
ENDROOT
BRANCH   2   5
ATOM      5  C   UNL     1       3.338   3.982  18.295  0.00  0.00    +0.000 C 
ATOM      6  C   UNL     1       2.731   5.369  18.460  0.00  0.00    +0.000 C 
ATOM      7  C   UNL     1       2.352   5.433  19.906  0.00  0.00    +0.000 C 
ATOM      8  C   UNL     1       1.911   6.457  20.649  0.00  0.00    +0.000 C 
ATOM      9  C   UNL     1       2.522   4.078  20.497  0.00  0.00    +0.000 C 
ATOM     10  O   UNL     1       2.245   3.723  21.628  0.00  0.00    +0.000 OA
ATOM     11  N   UNL     1       3.047   3.278  19.520  0.00  0.00    +0.000 N 
ATOM     12  H   UNL     1       3.196   2.289  19.676  0.00  0.00    +0.000 HD
BRANCH   8  13
ATOM     13  N   UNL     1       1.639   7.788  20.359  0.00  0.00    +0.000 N 
ATOM     14  C   UNL     1       1.865   8.446  19.074  0.00  0.00    +0.000 C 
ATOM     15  C   UNL     1       1.211   8.715  21.411  0.00  0.00    +0.000 C 
ENDBRANCH   8  13
ENDBRANCH   2   5
BRANCH   1  17
ATOM     16  C   UNL     1       7.025   5.928  16.768  0.00  0.00    +0.000 C 
ATOM     17  C   UNL     1       6.521   4.581  16.235  0.00  0.00    +0.000 C 
BRANCH  17  18
ATOM     18  C   UNL     1       6.658   4.513  14.727  0.00  0.00    +0.000 A 
ATOM     19  C   UNL     1       5.863   3.615  13.997  0.00  0.00    +0.000 A 
ATOM     20  C   UNL     1       6.037   3.465  12.620  0.00  0.00    +0.000 A 
ATOM     21  C   UNL     1       7.001   4.217  11.954  0.00  0.00    +0.000 A 
ATOM     22  C   UNL     1       7.777   5.135  12.657  0.00  0.00    +0.000 A 
ATOM     23  C   UNL     1       7.602   5.289  14.034  0.00  0.00    +0.000 A 
ENDBRANCH  17  18
ENDBRANCH   1  17
TORSDOF 4
ENDMDL
MODEL 6
REMARK VINA RESULT:      -7.0      2.098      3.158
REMARK  Name = 
REMARK  7 active torsions:
REMARK  status: ('A' for Active; 'I' for Inactive)
REMARK    1  A    between atoms: C_1  and  C_2
REMARK    2  A    between atoms: C_2  and  N_3
REMARK    3  A    between atoms: C_2  and  C_16
REMARK    4  A    between atoms: C_4  and  C_6
REMARK    5  A    between atoms: C_9  and  N_10
REMARK    6  A    between atoms: N_10  and  C_11
REMARK    7  A    between atoms: N_10  and  C_12
REMARK                            x       y       z     vdW  Elec       q    Type
REMARK                         _______ _______ _______ _____ _____    ______ ____
ROOT
ATOM      1  N   UNL     1       3.729   6.165  18.337  0.00  0.00    +0.000 N 
ATOM      2  C   UNL     1       4.168   7.150  17.480  0.00  0.00    +0.000 C 
ATOM      3  O   UNL     1       3.414   7.978  16.971  0.00  0.00    +0.000 OA
ATOM      4  H   UNL     1       4.372   5.427  18.602  0.00  0.00    +0.000 HD
ENDROOT
BRANCH   2   5
ATOM      5  C   UNL     1       5.677   7.149  17.179  0.00  0.00    +0.000 C 
ATOM      6  C   UNL     1       5.937   6.690  15.751  0.00  0.00    +0.000 C 
ATOM      7  C   UNL     1       6.649   5.383  15.910  0.00  0.00    +0.000 C 
ATOM      8  C   UNL     1       6.995   4.460  15.003  0.00  0.00    +0.000 C 
ATOM      9  C   UNL     1       6.985   5.203  17.349  0.00  0.00    +0.000 C 
ATOM     10  O   UNL     1       7.626   4.299  17.852  0.00  0.00    +0.000 OA
ATOM     11  N   UNL     1       6.444   6.264  18.022  0.00  0.00    +0.000 N 
ATOM     12  H   UNL     1       6.594   6.385  19.016  0.00  0.00    +0.000 HD
BRANCH   8  13
ATOM     13  N   UNL     1       6.839   4.384  13.625  0.00  0.00    +0.000 N 
ATOM     14  C   UNL     1       5.883   3.534  12.919  0.00  0.00    +0.000 C 
ATOM     15  C   UNL     1       7.760   5.083  12.723  0.00  0.00    +0.000 C 
ENDBRANCH   8  13
ENDBRANCH   2   5
BRANCH   1  17
ATOM     16  C   UNL     1       2.179   6.995  20.058  0.00  0.00    +0.000 C 
ATOM     17  C   UNL     1       2.356   6.124  18.808  0.00  0.00    +0.000 C 
BRANCH  17  18
ATOM     18  C   UNL     1       1.902   4.703  19.075  0.00  0.00    +0.000 A 
ATOM     19  C   UNL     1       1.466   4.343  20.360  0.00  0.00    +0.000 A 
ATOM     20  C   UNL     1       1.135   3.020  20.656  0.00  0.00    +0.000 A 
ATOM     21  C   UNL     1       1.224   2.041  19.668  0.00  0.00    +0.000 A 
ATOM     22  C   UNL     1       1.625   2.387  18.380  0.00  0.00    +0.000 A 
ATOM     23  C   UNL     1       1.954   3.711  18.082  0.00  0.00    +0.000 A 
ENDBRANCH  17  18
ENDBRANCH   1  17
TORSDOF 4
ENDMDL
MODEL 7
REMARK VINA RESULT:      -7.0      2.193      3.187
REMARK  Name = 
REMARK  7 active torsions:
REMARK  status: ('A' for Active; 'I' for Inactive)
REMARK    1  A    between atoms: C_1  and  C_2
REMARK    2  A    between atoms: C_2  and  N_3
REMARK    3  A    between atoms: C_2  and  C_16
REMARK    4  A    between atoms: C_4  and  C_6
REMARK    5  A    between atoms: C_9  and  N_10
REMARK    6  A    between atoms: N_10  and  C_11
REMARK    7  A    between atoms: N_10  and  C_12
REMARK                            x       y       z     vdW  Elec       q    Type
REMARK                         _______ _______ _______ _____ _____    ______ ____
ROOT
ATOM      1  N   UNL     1       3.694   6.303  18.748  0.00  0.00    +0.000 N 
ATOM      2  C   UNL     1       4.071   7.003  17.624  0.00  0.00    +0.000 C 
ATOM      3  O   UNL     1       3.262   7.543  16.870  0.00  0.00    +0.000 OA
ATOM      4  H   UNL     1       4.393   5.758  19.241  0.00  0.00    +0.000 HD
ENDROOT
BRANCH   2   5
ATOM      5  C   UNL     1       5.584   7.062  17.349  0.00  0.00    +0.000 C 
ATOM      6  C   UNL     1       5.883   6.638  15.917  0.00  0.00    +0.000 C 
ATOM      7  C   UNL     1       6.639   5.355  16.066  0.00  0.00    +0.000 C 
ATOM      8  C   UNL     1       7.033   4.461  15.149  0.00  0.00    +0.000 C 
ATOM      9  C   UNL     1       6.958   5.161  17.507  0.00  0.00    +0.000 C 
ATOM     10  O   UNL     1       7.622   4.271  18.006  0.00  0.00    +0.000 OA
ATOM     11  N   UNL     1       6.367   6.190  18.189  0.00  0.00    +0.000 N 
ATOM     12  H   UNL     1       6.496   6.298  19.188  0.00  0.00    +0.000 HD
BRANCH   8  13
ATOM     13  N   UNL     1       6.903   4.404  13.768  0.00  0.00    +0.000 N 
ATOM     14  C   UNL     1       7.724   5.130  12.801  0.00  0.00    +0.000 C 
ATOM     15  C   UNL     1       5.788   3.683  13.146  0.00  0.00    +0.000 C 
ENDBRANCH   8  13
ENDBRANCH   2   5
BRANCH   1  17
ATOM     16  C   UNL     1       2.042   7.395  20.209  0.00  0.00    +0.000 C 
ATOM     17  C   UNL     1       2.314   6.273  19.199  0.00  0.00    +0.000 C 
BRANCH  17  18
ATOM     18  C   UNL     1       1.949   4.923  19.784  0.00  0.00    +0.000 A 
ATOM     19  C   UNL     1       2.261   4.640  21.123  0.00  0.00    +0.000 A 
ATOM     20  C   UNL     1       2.023   3.372  21.657  0.00  0.00    +0.000 A 
ATOM     21  C   UNL     1       1.461   2.376  20.863  0.00  0.00    +0.000 A 
ATOM     22  C   UNL     1       1.117   2.650  19.542  0.00  0.00    +0.000 A 
ATOM     23  C   UNL     1       1.352   3.917  19.006  0.00  0.00    +0.000 A 
ENDBRANCH  17  18
ENDBRANCH   1  17
TORSDOF 4
ENDMDL
MODEL 8
REMARK VINA RESULT:      -6.9      2.106      3.164
REMARK  Name = 
REMARK  7 active torsions:
REMARK  status: ('A' for Active; 'I' for Inactive)
REMARK    1  A    between atoms: C_1  and  C_2
REMARK    2  A    between atoms: C_2  and  N_3
REMARK    3  A    between atoms: C_2  and  C_16
REMARK    4  A    between atoms: C_4  and  C_6
REMARK    5  A    between atoms: C_9  and  N_10
REMARK    6  A    between atoms: N_10  and  C_11
REMARK    7  A    between atoms: N_10  and  C_12
REMARK                            x       y       z     vdW  Elec       q    Type
REMARK                         _______ _______ _______ _____ _____    ______ ____
ROOT
ATOM      1  N   UNL     1       3.648   6.135  18.406  0.00  0.00    +0.000 N 
ATOM      2  C   UNL     1       4.024   7.077  17.475  0.00  0.00    +0.000 C 
ATOM      3  O   UNL     1       3.229   7.860  16.957  0.00  0.00    +0.000 OA
ATOM      4  H   UNL     1       4.319   5.426  18.680  0.00  0.00    +0.000 HD
ENDROOT
BRANCH   2   5
ATOM      5  C   UNL     1       5.517   7.089  17.101  0.00  0.00    +0.000 C 
ATOM      6  C   UNL     1       5.716   6.572  15.682  0.00  0.00    +0.000 C 
ATOM      7  C   UNL     1       6.458   5.286  15.862  0.00  0.00    +0.000 C 
ATOM      8  C   UNL     1       6.777   4.330  14.979  0.00  0.00    +0.000 C 
ATOM      9  C   UNL     1       6.867   5.173  17.289  0.00  0.00    +0.000 C 
ATOM     10  O   UNL     1       7.548   4.302  17.799  0.00  0.00    +0.000 OA
ATOM     11  N   UNL     1       6.339   6.254  17.942  0.00  0.00    +0.000 N 
ATOM     12  H   UNL     1       6.534   6.420  18.922  0.00  0.00    +0.000 HD
BRANCH   8  13
ATOM     13  N   UNL     1       6.556   4.192  13.615  0.00  0.00    +0.000 N 
ATOM     14  C   UNL     1       7.433   4.681  12.553  0.00  0.00    +0.000 C 
ATOM     15  C   UNL     1       5.296   3.637  13.109  0.00  0.00    +0.000 C 
ENDBRANCH   8  13
ENDBRANCH   2   5
BRANCH   1  17
ATOM     16  C   UNL     1       2.171   7.013  20.168  0.00  0.00    +0.000 C 
ATOM     17  C   UNL     1       2.301   6.095  18.946  0.00  0.00    +0.000 C 
BRANCH  17  18
ATOM     18  C   UNL     1       1.882   4.679  19.290  0.00  0.00    +0.000 A 
ATOM     19  C   UNL     1       1.592   3.772  18.258  0.00  0.00    +0.000 A 
ATOM     20  C   UNL     1       1.112   2.493  18.548  0.00  0.00    +0.000 A 
ATOM     21  C   UNL     1       0.925   2.103  19.871  0.00  0.00    +0.000 A 
ATOM     22  C   UNL     1       1.237   2.980  20.907  0.00  0.00    +0.000 A 
ATOM     23  C   UNL     1       1.720   4.258  20.620  0.00  0.00    +0.000 A 
ENDBRANCH  17  18
ENDBRANCH   1  17
TORSDOF 4
ENDMDL
MODEL 9
REMARK VINA RESULT:      -6.9      2.810      7.608
REMARK  Name = 
REMARK  7 active torsions:
REMARK  status: ('A' for Active; 'I' for Inactive)
REMARK    1  A    between atoms: C_1  and  C_2
REMARK    2  A    between atoms: C_2  and  N_3
REMARK    3  A    between atoms: C_2  and  C_16
REMARK    4  A    between atoms: C_4  and  C_6
REMARK    5  A    between atoms: C_9  and  N_10
REMARK    6  A    between atoms: N_10  and  C_11
REMARK    7  A    between atoms: N_10  and  C_12
REMARK                            x       y       z     vdW  Elec       q    Type
REMARK                         _______ _______ _______ _____ _____    ______ ____
ROOT
ATOM      1  N   UNL     1       5.206   4.590  16.613  0.00  0.00    +0.000 N 
ATOM      2  C   UNL     1       4.870   4.231  17.899  0.00  0.00    +0.000 C 
ATOM      3  O   UNL     1       5.708   3.921  18.747  0.00  0.00    +0.000 OA
ATOM      4  H   UNL     1       4.466   4.687  15.926  0.00  0.00    +0.000 HD
ENDROOT
BRANCH   2   5
ATOM      5  C   UNL     1       3.366   4.224  18.221  0.00  0.00    +0.000 C 
ATOM      6  C   UNL     1       2.783   5.624  18.084  0.00  0.00    +0.000 C 
ATOM      7  C   UNL     1       2.398   5.998  19.480  0.00  0.00    +0.000 C 
ATOM      8  C   UNL     1       1.971   7.163  19.987  0.00  0.00    +0.000 C 
ATOM      9  C   UNL     1       2.539   4.796  20.346  0.00  0.00    +0.000 C 
ATOM     10  O   UNL     1       2.250   4.693  21.524  0.00  0.00    +0.000 OA
ATOM     11  N   UNL     1       3.055   3.799  19.565  0.00  0.00    +0.000 N 
ATOM     12  H   UNL     1       3.186   2.863  19.928  0.00  0.00    +0.000 HD
BRANCH   8  13
ATOM     13  N   UNL     1       1.725   8.407  19.420  0.00  0.00    +0.000 N 
ATOM     14  C   UNL     1       0.947   9.484  20.027  0.00  0.00    +0.000 C 
ATOM     15  C   UNL     1       2.130   8.699  18.041  0.00  0.00    +0.000 C 
ENDBRANCH   8  13
ENDBRANCH   2   5
BRANCH   1  17
ATOM     16  C   UNL     1       7.111   6.147  16.615  0.00  0.00    +0.000 C 
ATOM     17  C   UNL     1       6.589   4.763  16.207  0.00  0.00    +0.000 C 
BRANCH  17  18
ATOM     18  C   UNL     1       6.764   4.539  14.719  0.00  0.00    +0.000 A 
ATOM     19  C   UNL     1       7.722   5.285  14.013  0.00  0.00    +0.000 A 
ATOM     20  C   UNL     1       7.837   5.167  12.627  0.00  0.00    +0.000 A 
ATOM     21  C   UNL     1       7.003   4.296  11.930  0.00  0.00    +0.000 A 
ATOM     22  C   UNL     1       6.068   3.527  12.618  0.00  0.00    +0.000 A 
ATOM     23  C   UNL     1       5.954   3.641  14.005  0.00  0.00    +0.000 A 
ENDBRANCH  17  18
ENDBRANCH   1  17
TORSDOF 4
ENDMDL
