MODEL 1
REMARK VINA RESULT:      -7.7      0.000      0.000
REMARK  Name = 
REMARK  7 active torsions:
REMARK  status: ('A' for Active; 'I' for Inactive)
REMARK    1  A    between atoms: C_1  and  O_2
REMARK    2  A    between atoms: O_2  and  C_3
REMARK    3  A    between atoms: C_3  and  C_5
REMARK    4  A    between atoms: C_5  and  C_6
REMARK    5  A    between atoms: C_6  and  C_7
REMARK    6  A    between atoms: C_7  and  N_8
REMARK    7  A    between atoms: C_18  and  C_19
REMARK                            x       y       z     vdW  Elec       q    Type
REMARK                         _______ _______ _______ _____ _____    ______ ____
ROOT
ATOM      1  N   UNL     1       4.818   3.913  17.462  0.00  0.00    +0.000 N 
ATOM      2  C   UNL     1       3.608   3.230  17.511  0.00  0.00    +0.000 C 
ATOM      3  O   UNL     1       3.225   2.475  16.617  0.00  0.00    +0.000 OA
ATOM      4  C   UNL     1       2.724   3.462  18.666  0.00  0.00    +0.000 A 
ATOM      5  C   UNL     1       1.505   2.780  18.771  0.00  0.00    +0.000 A 
ATOM      6  C   UNL     1       0.618   3.104  19.793  0.00  0.00    +0.000 A 
ATOM      7  C   UNL     1       0.950   4.110  20.697  0.00  0.00    +0.000 A 
ATOM      8  C   UNL     1       2.181   4.768  20.596  0.00  0.00    +0.000 A 
ATOM      9  C   UNL     1       3.087   4.448  19.578  0.00  0.00    +0.000 A 
ATOM     10  N   UNL     1       4.331   5.029  19.541  0.00  0.00    +0.000 N 
ATOM     11  C   UNL     1       5.370   4.572  18.643  0.00  0.00    +0.000 C 
ATOM     12  H   UNL     1       4.464   5.929  19.985  0.00  0.00    +0.000 HD
ENDROOT
BRANCH  11  13
ATOM     13  C   UNL     1       6.226   5.784  18.302  0.00  0.00    +0.000 A 
ATOM     14  C   UNL     1       5.772   6.768  17.409  0.00  0.00    +0.000 A 
ATOM     15  C   UNL     1       6.575   7.873  17.111  0.00  0.00    +0.000 A 
ATOM     16  C   UNL     1       7.836   8.003  17.699  0.00  0.00    +0.000 A 
ATOM     17  C   UNL     1       8.297   7.032  18.583  0.00  0.00    +0.000 A 
ATOM     18  C   UNL     1       7.499   5.932  18.884  0.00  0.00    +0.000 A 
ENDBRANCH  11  13
BRANCH   1  19
ATOM     19  C   UNL     1       5.705   3.618  16.331  0.00  0.00    +0.000 C 
BRANCH  19  20
ATOM     20  C   UNL     1       5.395   4.390  15.046  0.00  0.00    +0.000 C 
BRANCH  20  21
ATOM     21  C   UNL     1       6.524   4.356  14.015  0.00  0.00    +0.000 C 
BRANCH  21  22
ATOM     22  C   UNL     1       6.103   3.631  12.764  0.00  0.00    +0.000 C 
ATOM     23  O   UNL     1       6.871   3.135  11.952  0.00  0.00    +0.000 OA
BRANCH  22  25
ATOM     24  C   UNL     1       4.266   3.225  11.385  0.00  0.00    +0.000 C 
ATOM     25  O   UNL     1       4.746   3.587  12.677  0.00  0.00    +0.000 OA
ENDBRANCH  22  25
ENDBRANCH  21  22
ENDBRANCH  20  21
ENDBRANCH  19  20
ENDBRANCH   1  19
TORSDOF 6
ENDMDL
MODEL 2
REMARK VINA RESULT:      -7.6      1.035      1.261
REMARK  Name = 
REMARK  7 active torsions:
REMARK  status: ('A' for Active; 'I' for Inactive)
REMARK    1  A    between atoms: C_1  and  O_2
REMARK    2  A    between atoms: O_2  and  C_3
REMARK    3  A    between atoms: C_3  and  C_5
REMARK    4  A    between atoms: C_5  and  C_6
REMARK    5  A    between atoms: C_6  and  C_7
REMARK    6  A    between atoms: C_7  and  N_8
REMARK    7  A    between atoms: C_18  and  C_19
REMARK                            x       y       z     vdW  Elec       q    Type
REMARK                         _______ _______ _______ _____ _____    ______ ____
ROOT
ATOM      1  N   UNL     1       4.752   3.875  17.561  0.00  0.00    +0.000 N 
ATOM      2  C   UNL     1       3.540   3.199  17.651  0.00  0.00    +0.000 C 
ATOM      3  O   UNL     1       3.124   2.442  16.774  0.00  0.00    +0.000 OA
ATOM      4  C   UNL     1       2.694   3.443  18.832  0.00  0.00    +0.000 A 
ATOM      5  C   UNL     1       1.475   2.768  18.979  0.00  0.00    +0.000 A 
ATOM      6  C   UNL     1       0.622   3.103  20.026  0.00  0.00    +0.000 A 
ATOM      7  C   UNL     1       0.988   4.111  20.914  0.00  0.00    +0.000 A 
ATOM      8  C   UNL     1       2.219   4.761  20.771  0.00  0.00    +0.000 A 
ATOM      9  C   UNL     1       3.090   4.431  19.727  0.00  0.00    +0.000 A 
ATOM     10  N   UNL     1       4.337   5.004  19.649  0.00  0.00    +0.000 N 
ATOM     11  C   UNL     1       5.344   4.536  18.721  0.00  0.00    +0.000 C 
ATOM     12  H   UNL     1       4.489   5.906  20.083  0.00  0.00    +0.000 HD
ENDROOT
BRANCH  11  13
ATOM     13  C   UNL     1       6.196   5.741  18.347  0.00  0.00    +0.000 A 
ATOM     14  C   UNL     1       5.727   6.714  17.449  0.00  0.00    +0.000 A 
ATOM     15  C   UNL     1       6.527   7.813  17.120  0.00  0.00    +0.000 A 
ATOM     16  C   UNL     1       7.799   7.948  17.683  0.00  0.00    +0.000 A 
ATOM     17  C   UNL     1       8.274   6.989  18.572  0.00  0.00    +0.000 A 
ATOM     18  C   UNL     1       7.480   5.895  18.903  0.00  0.00    +0.000 A 
ENDBRANCH  11  13
BRANCH   1  19
ATOM     19  C   UNL     1       5.601   3.569  16.404  0.00  0.00    +0.000 C 
BRANCH  19  20
ATOM     20  C   UNL     1       5.263   4.346  15.129  0.00  0.00    +0.000 C 
BRANCH  20  21
ATOM     21  C   UNL     1       6.126   3.966  13.925  0.00  0.00    +0.000 C 
BRANCH  21  22
ATOM     22  C   UNL     1       7.281   4.919  13.756  0.00  0.00    +0.000 C 
ATOM     23  O   UNL     1       7.793   5.563  14.660  0.00  0.00    +0.000 OA
BRANCH  22  25
ATOM     24  C   UNL     1       7.147   3.888  11.669  0.00  0.00    +0.000 C 
ATOM     25  O   UNL     1       7.686   4.944  12.458  0.00  0.00    +0.000 OA
ENDBRANCH  22  25
ENDBRANCH  21  22
ENDBRANCH  20  21
ENDBRANCH  19  20
ENDBRANCH   1  19
TORSDOF 6
ENDMDL
MODEL 3
REMARK VINA RESULT:      -7.6      0.463      1.090
REMARK  Name = 
REMARK  7 active torsions:
REMARK  status: ('A' for Active; 'I' for Inactive)
REMARK    1  A    between atoms: C_1  and  O_2
REMARK    2  A    between atoms: O_2  and  C_3
REMARK    3  A    between atoms: C_3  and  C_5
REMARK    4  A    between atoms: C_5  and  C_6
REMARK    5  A    between atoms: C_6  and  C_7
REMARK    6  A    between atoms: C_7  and  N_8
REMARK    7  A    between atoms: C_18  and  C_19
REMARK                            x       y       z     vdW  Elec       q    Type
REMARK                         _______ _______ _______ _____ _____    ______ ____
ROOT
ATOM      1  N   UNL     1       4.839   3.903  17.472  0.00  0.00    +0.000 N 
ATOM      2  C   UNL     1       3.625   3.226  17.511  0.00  0.00    +0.000 C 
ATOM      3  O   UNL     1       3.242   2.479  16.610  0.00  0.00    +0.000 OA
ATOM      4  C   UNL     1       2.737   3.455  18.664  0.00  0.00    +0.000 A 
ATOM      5  C   UNL     1       1.514   2.779  18.759  0.00  0.00    +0.000 A 
ATOM      6  C   UNL     1       0.624   3.100  19.779  0.00  0.00    +0.000 A 
ATOM      7  C   UNL     1       0.959   4.098  20.692  0.00  0.00    +0.000 A 
ATOM      8  C   UNL     1       2.193   4.749  20.601  0.00  0.00    +0.000 A 
ATOM      9  C   UNL     1       3.101   4.432  19.585  0.00  0.00    +0.000 A 
ATOM     10  N   UNL     1       4.349   5.006  19.558  0.00  0.00    +0.000 N 
ATOM     11  C   UNL     1       5.389   4.550  18.661  0.00  0.00    +0.000 C 
ATOM     12  H   UNL     1       4.485   5.903  20.008  0.00  0.00    +0.000 HD
ENDROOT
BRANCH  11  13
ATOM     13  C   UNL     1       6.253   5.759  18.332  0.00  0.00    +0.000 A 
ATOM     14  C   UNL     1       7.536   5.910  18.884  0.00  0.00    +0.000 A 
ATOM     15  C   UNL     1       8.312   7.029  18.568  0.00  0.00    +0.000 A 
ATOM     16  C   UNL     1       7.815   8.005  17.700  0.00  0.00    +0.000 A 
ATOM     17  C   UNL     1       6.545   7.867  17.149  0.00  0.00    +0.000 A 
ATOM     18  C   UNL     1       5.770   6.754  17.460  0.00  0.00    +0.000 A 
ENDBRANCH  11  13
BRANCH   1  19
ATOM     19  C   UNL     1       5.729   3.611  16.343  0.00  0.00    +0.000 C 
BRANCH  19  20
ATOM     20  C   UNL     1       5.450   4.419  15.073  0.00  0.00    +0.000 C 
BRANCH  20  21
ATOM     21  C   UNL     1       6.697   4.705  14.235  0.00  0.00    +0.000 C 
BRANCH  21  22
ATOM     22  C   UNL     1       6.586   4.098  12.861  0.00  0.00    +0.000 C 
ATOM     23  O   UNL     1       7.370   4.296  11.944  0.00  0.00    +0.000 OA
BRANCH  22  25
ATOM     24  C   UNL     1       5.489   2.439  11.643  0.00  0.00    +0.000 C 
ATOM     25  O   UNL     1       5.500   3.281  12.792  0.00  0.00    +0.000 OA
ENDBRANCH  22  25
ENDBRANCH  21  22
ENDBRANCH  20  21
ENDBRANCH  19  20
ENDBRANCH   1  19
TORSDOF 6
ENDMDL
MODEL 4
REMARK VINA RESULT:      -7.4      0.958      1.698
REMARK  Name = 
REMARK  7 active torsions:
REMARK  status: ('A' for Active; 'I' for Inactive)
REMARK    1  A    between atoms: C_1  and  O_2
REMARK    2  A    between atoms: O_2  and  C_3
REMARK    3  A    between atoms: C_3  and  C_5
REMARK    4  A    between atoms: C_5  and  C_6
REMARK    5  A    between atoms: C_6  and  C_7
REMARK    6  A    between atoms: C_7  and  N_8
REMARK    7  A    between atoms: C_18  and  C_19
REMARK                            x       y       z     vdW  Elec       q    Type
REMARK                         _______ _______ _______ _____ _____    ______ ____
ROOT
ATOM      1  N   UNL     1       4.204   4.266  17.153  0.00  0.00    +0.000 N 
ATOM      2  C   UNL     1       2.953   3.685  17.333  0.00  0.00    +0.000 C 
ATOM      3  O   UNL     1       2.213   3.376  16.399  0.00  0.00    +0.000 OA
ATOM      4  C   UNL     1       2.475   3.476  18.710  0.00  0.00    +0.000 A 
ATOM      5  C   UNL     1       1.232   2.873  18.943  0.00  0.00    +0.000 A 
ATOM      6  C   UNL     1       0.730   2.801  20.239  0.00  0.00    +0.000 A 
ATOM      7  C   UNL     1       1.469   3.337  21.291  0.00  0.00    +0.000 A 
ATOM      8  C   UNL     1       2.720   3.915  21.050  0.00  0.00    +0.000 A 
ATOM      9  C   UNL     1       3.241   3.987  19.753  0.00  0.00    +0.000 A 
ATOM     10  N   UNL     1       4.509   4.468  19.534  0.00  0.00    +0.000 N 
ATOM     11  C   UNL     1       5.164   4.361  18.249  0.00  0.00    +0.000 C 
ATOM     12  H   UNL     1       4.914   5.104  20.210  0.00  0.00    +0.000 HD
ENDROOT
BRANCH  11  13
ATOM     13  C   UNL     1       6.092   5.561  18.122  0.00  0.00    +0.000 A 
ATOM     14  C   UNL     1       7.346   5.583  18.754  0.00  0.00    +0.000 A 
ATOM     15  C   UNL     1       8.182   6.696  18.624  0.00  0.00    +0.000 A 
ATOM     16  C   UNL     1       7.774   7.795  17.863  0.00  0.00    +0.000 A 
ATOM     17  C   UNL     1       6.533   7.785  17.235  0.00  0.00    +0.000 A 
ATOM     18  C   UNL     1       5.698   6.678  17.361  0.00  0.00    +0.000 A 
ENDBRANCH  11  13
BRANCH   1  19
ATOM     19  C   UNL     1       4.680   4.408  15.773  0.00  0.00    +0.000 C 
BRANCH  19  20
ATOM     20  C   UNL     1       5.995   3.688  15.465  0.00  0.00    +0.000 C 
BRANCH  20  21
ATOM     21  C   UNL     1       6.893   4.433  14.476  0.00  0.00    +0.000 C 
BRANCH  21  22
ATOM     22  C   UNL     1       6.608   4.020  13.056  0.00  0.00    +0.000 C 
ATOM     23  O   UNL     1       5.701   3.274  12.714  0.00  0.00    +0.000 OA
BRANCH  22  25
ATOM     24  C   UNL     1       8.277   5.630  12.814  0.00  0.00    +0.000 C 
ATOM     25  O   UNL     1       7.491   4.610  12.206  0.00  0.00    +0.000 OA
ENDBRANCH  22  25
ENDBRANCH  21  22
ENDBRANCH  20  21
ENDBRANCH  19  20
ENDBRANCH   1  19
TORSDOF 6
ENDMDL
MODEL 5
REMARK VINA RESULT:      -7.4      2.549      4.895
REMARK  Name = 
REMARK  7 active torsions:
REMARK  status: ('A' for Active; 'I' for Inactive)
REMARK    1  A    between atoms: C_1  and  O_2
REMARK    2  A    between atoms: O_2  and  C_3
REMARK    3  A    between atoms: C_3  and  C_5
REMARK    4  A    between atoms: C_5  and  C_6
REMARK    5  A    between atoms: C_6  and  C_7
REMARK    6  A    between atoms: C_7  and  N_8
REMARK    7  A    between atoms: C_18  and  C_19
REMARK                            x       y       z     vdW  Elec       q    Type
REMARK                         _______ _______ _______ _____ _____    ______ ____
ROOT
ATOM      1  N   UNL     1       4.479   5.294  18.729  0.00  0.00    +0.000 N 
ATOM      2  C   UNL     1       3.471   5.727  19.584  0.00  0.00    +0.000 C 
ATOM      3  O   UNL     1       3.085   5.074  20.554  0.00  0.00    +0.000 OA
ATOM      4  C   UNL     1       2.804   7.005  19.283  0.00  0.00    +0.000 A 
ATOM      5  C   UNL     1       1.799   7.494  20.128  0.00  0.00    +0.000 A 
ATOM      6  C   UNL     1       1.084   8.631  19.764  0.00  0.00    +0.000 A 
ATOM      7  C   UNL     1       1.371   9.267  18.559  0.00  0.00    +0.000 A 
ATOM      8  C   UNL     1       2.393   8.783  17.735  0.00  0.00    +0.000 A 
ATOM      9  C   UNL     1       3.126   7.645  18.091  0.00  0.00    +0.000 A 
ATOM     10  N   UNL     1       4.190   7.231  17.326  0.00  0.00    +0.000 N 
ATOM     11  C   UNL     1       5.103   6.199  17.767  0.00  0.00    +0.000 C 
ATOM     12  H   UNL     1       4.217   7.487  16.346  0.00  0.00    +0.000 HD
ENDROOT
BRANCH  11  13
ATOM     13  C   UNL     1       5.603   5.486  16.519  0.00  0.00    +0.000 A 
ATOM     14  C   UNL     1       6.965   5.487  16.175  0.00  0.00    +0.000 A 
ATOM     15  C   UNL     1       7.402   4.825  15.024  0.00  0.00    +0.000 A 
ATOM     16  C   UNL     1       6.484   4.158  14.208  0.00  0.00    +0.000 A 
ATOM     17  C   UNL     1       5.133   4.152  14.537  0.00  0.00    +0.000 A 
ATOM     18  C   UNL     1       4.694   4.809  15.683  0.00  0.00    +0.000 A 
ENDBRANCH  11  13
BRANCH   1  19
ATOM     19  C   UNL     1       5.166   4.049  19.086  0.00  0.00    +0.000 C 
BRANCH  19  20
ATOM     20  C   UNL     1       4.258   2.823  19.220  0.00  0.00    +0.000 C 
BRANCH  20  21
ATOM     21  C   UNL     1       3.605   2.388  17.907  0.00  0.00    +0.000 C 
BRANCH  21  22
ATOM     22  C   UNL     1       2.157   2.798  17.852  0.00  0.00    +0.000 C 
ATOM     23  O   UNL     1       1.710   3.691  17.146  0.00  0.00    +0.000 OA
BRANCH  22  25
ATOM     24  C   UNL     1       0.679   2.757  19.655  0.00  0.00    +0.000 C 
ATOM     25  O   UNL     1       1.413   2.019  18.683  0.00  0.00    +0.000 OA
ENDBRANCH  22  25
ENDBRANCH  21  22
ENDBRANCH  20  21
ENDBRANCH  19  20
ENDBRANCH   1  19
TORSDOF 6
ENDMDL
MODEL 6
REMARK VINA RESULT:      -7.4      3.220      6.143
REMARK  Name = 
REMARK  7 active torsions:
REMARK  status: ('A' for Active; 'I' for Inactive)
REMARK    1  A    between atoms: C_1  and  O_2
REMARK    2  A    between atoms: O_2  and  C_3
REMARK    3  A    between atoms: C_3  and  C_5
REMARK    4  A    between atoms: C_5  and  C_6
REMARK    5  A    between atoms: C_6  and  C_7
REMARK    6  A    between atoms: C_7  and  N_8
REMARK    7  A    between atoms: C_18  and  C_19
REMARK                            x       y       z     vdW  Elec       q    Type
REMARK                         _______ _______ _______ _____ _____    ______ ____
ROOT
ATOM      1  N   UNL     1       3.111   5.741  19.532  0.00  0.00    +0.000 N 
ATOM      2  C   UNL     1       4.216   4.912  19.372  0.00  0.00    +0.000 C 
ATOM      3  O   UNL     1       4.483   3.990  20.143  0.00  0.00    +0.000 OA
ATOM      4  C   UNL     1       5.136   5.186  18.254  0.00  0.00    +0.000 A 
ATOM      5  C   UNL     1       6.250   4.365  18.039  0.00  0.00    +0.000 A 
ATOM      6  C   UNL     1       7.184   4.709  17.066  0.00  0.00    +0.000 A 
ATOM      7  C   UNL     1       7.002   5.872  16.321  0.00  0.00    +0.000 A 
ATOM      8  C   UNL     1       5.873   6.671  16.529  0.00  0.00    +0.000 A 
ATOM      9  C   UNL     1       4.922   6.334  17.498  0.00  0.00    +0.000 A 
ATOM     10  N   UNL     1       3.768   7.069  17.631  0.00  0.00    +0.000 N 
ATOM     11  C   UNL     1       2.668   6.634  18.464  0.00  0.00    +0.000 C 
ATOM     12  H   UNL     1       3.765   8.034  17.324  0.00  0.00    +0.000 HD
ENDROOT
BRANCH  11  13
ATOM     13  C   UNL     1       1.983   7.889  18.986  0.00  0.00    +0.000 A 
ATOM     14  C   UNL     1       1.674   8.038  20.348  0.00  0.00    +0.000 A 
ATOM     15  C   UNL     1       1.045   9.199  20.805  0.00  0.00    +0.000 A 
ATOM     16  C   UNL     1       0.719  10.220  19.908  0.00  0.00    +0.000 A 
ATOM     17  C   UNL     1       1.019  10.083  18.556  0.00  0.00    +0.000 A 
ATOM     18  C   UNL     1       1.646   8.928  18.097  0.00  0.00    +0.000 A 
ENDBRANCH  11  13
BRANCH   1  19
ATOM     19  C   UNL     1       2.181   5.409  20.616  0.00  0.00    +0.000 C 
BRANCH  19  20
ATOM     20  C   UNL     1       0.982   4.553  20.201  0.00  0.00    +0.000 C 
BRANCH  20  21
ATOM     21  C   UNL     1       1.162   3.059  20.474  0.00  0.00    +0.000 C 
BRANCH  21  22
ATOM     22  C   UNL     1       1.188   2.266  19.193  0.00  0.00    +0.000 C 
ATOM     23  O   UNL     1       0.241   2.141  18.430  0.00  0.00    +0.000 OA
BRANCH  22  25
ATOM     24  C   UNL     1       2.967   2.000  17.709  0.00  0.00    +0.000 C 
ATOM     25  O   UNL     1       2.421   1.727  18.996  0.00  0.00    +0.000 OA
ENDBRANCH  22  25
ENDBRANCH  21  22
ENDBRANCH  20  21
ENDBRANCH  19  20
ENDBRANCH   1  19
TORSDOF 6
ENDMDL
MODEL 7
REMARK VINA RESULT:      -7.2      1.129      1.835
REMARK  Name = 
REMARK  7 active torsions:
REMARK  status: ('A' for Active; 'I' for Inactive)
REMARK    1  A    between atoms: C_1  and  O_2
REMARK    2  A    between atoms: O_2  and  C_3
REMARK    3  A    between atoms: C_3  and  C_5
REMARK    4  A    between atoms: C_5  and  C_6
REMARK    5  A    between atoms: C_6  and  C_7
REMARK    6  A    between atoms: C_7  and  N_8
REMARK    7  A    between atoms: C_18  and  C_19
REMARK                            x       y       z     vdW  Elec       q    Type
REMARK                         _______ _______ _______ _____ _____    ______ ____
ROOT
ATOM      1  N   UNL     1       4.745   3.831  17.542  0.00  0.00    +0.000 N 
ATOM      2  C   UNL     1       3.528   3.161  17.623  0.00  0.00    +0.000 C 
ATOM      3  O   UNL     1       3.101   2.433  16.727  0.00  0.00    +0.000 OA
ATOM      4  C   UNL     1       2.693   3.377  18.816  0.00  0.00    +0.000 A 
ATOM      5  C   UNL     1       1.470   2.707  18.953  0.00  0.00    +0.000 A 
ATOM      6  C   UNL     1       0.627   3.018  20.016  0.00  0.00    +0.000 A 
ATOM      7  C   UNL     1       1.007   3.998  20.930  0.00  0.00    +0.000 A 
ATOM      8  C   UNL     1       2.242   4.643  20.796  0.00  0.00    +0.000 A 
ATOM      9  C   UNL     1       3.103   4.336  19.736  0.00  0.00    +0.000 A 
ATOM     10  N   UNL     1       4.353   4.903  19.665  0.00  0.00    +0.000 N 
ATOM     11  C   UNL     1       5.350   4.454  18.717  0.00  0.00    +0.000 C 
ATOM     12  H   UNL     1       4.514   5.790  20.124  0.00  0.00    +0.000 HD
ENDROOT
BRANCH  11  13
ATOM     13  C   UNL     1       6.208   5.663  18.371  0.00  0.00    +0.000 A 
ATOM     14  C   UNL     1       7.489   5.829  18.921  0.00  0.00    +0.000 A 
ATOM     15  C   UNL     1       8.260   6.947  18.589  0.00  0.00    +0.000 A 
ATOM     16  C   UNL     1       7.758   7.908  17.707  0.00  0.00    +0.000 A 
ATOM     17  C   UNL     1       6.489   7.755  17.158  0.00  0.00    +0.000 A 
ATOM     18  C   UNL     1       5.719   6.643  17.485  0.00  0.00    +0.000 A 
ENDBRANCH  11  13
BRANCH   1  19
ATOM     19  C   UNL     1       5.583   3.552  16.372  0.00  0.00    +0.000 C 
BRANCH  19  20
ATOM     20  C   UNL     1       5.182   4.297  15.096  0.00  0.00    +0.000 C 
BRANCH  20  21
ATOM     21  C   UNL     1       6.063   3.976  13.888  0.00  0.00    +0.000 C 
BRANCH  21  22
ATOM     22  C   UNL     1       7.252   4.897  13.815  0.00  0.00    +0.000 C 
ATOM     23  O   UNL     1       7.764   5.454  14.775  0.00  0.00    +0.000 OA
BRANCH  22  25
ATOM     24  C   UNL     1       8.559   6.111  12.312  0.00  0.00    +0.000 C 
ATOM     25  O   UNL     1       7.688   5.005  12.531  0.00  0.00    +0.000 OA
ENDBRANCH  22  25
ENDBRANCH  21  22
ENDBRANCH  20  21
ENDBRANCH  19  20
ENDBRANCH   1  19
TORSDOF 6
ENDMDL
MODEL 8
REMARK VINA RESULT:      -7.2      2.525      6.968
REMARK  Name = 
REMARK  7 active torsions:
REMARK  status: ('A' for Active; 'I' for Inactive)
REMARK    1  A    between atoms: C_1  and  O_2
REMARK    2  A    between atoms: O_2  and  C_3
REMARK    3  A    between atoms: C_3  and  C_5
REMARK    4  A    between atoms: C_5  and  C_6
REMARK    5  A    between atoms: C_6  and  C_7
REMARK    6  A    between atoms: C_7  and  N_8
REMARK    7  A    between atoms: C_18  and  C_19
REMARK                            x       y       z     vdW  Elec       q    Type
REMARK                         _______ _______ _______ _____ _____    ______ ____
ROOT
ATOM      1  N   UNL     1       6.009   4.679  16.936  0.00  0.00    +0.000 N 
ATOM      2  C   UNL     1       6.858   5.352  16.064  0.00  0.00    +0.000 C 
ATOM      3  O   UNL     1       7.503   6.349  16.389  0.00  0.00    +0.000 OA
ATOM      4  C   UNL     1       6.949   4.874  14.674  0.00  0.00    +0.000 A 
ATOM      5  C   UNL     1       7.809   5.505  13.765  0.00  0.00    +0.000 A 
ATOM      6  C   UNL     1       7.789   5.134  12.424  0.00  0.00    +0.000 A 
ATOM      7  C   UNL     1       6.908   4.142  11.999  0.00  0.00    +0.000 A 
ATOM      8  C   UNL     1       6.072   3.502  12.921  0.00  0.00    +0.000 A 
ATOM      9  C   UNL     1       6.086   3.860  14.274  0.00  0.00    +0.000 A 
ATOM     10  N   UNL     1       5.334   3.163  15.188  0.00  0.00    +0.000 N 
ATOM     11  C   UNL     1       5.482   3.355  16.615  0.00  0.00    +0.000 C 
ATOM     12  H   UNL     1       4.509   2.670  14.869  0.00  0.00    +0.000 HD
ENDROOT
BRANCH  11  13
ATOM     13  C   UNL     1       4.119   3.091  17.242  0.00  0.00    +0.000 A 
ATOM     14  C   UNL     1       3.951   2.109  18.232  0.00  0.00    +0.000 A 
ATOM     15  C   UNL     1       2.690   1.884  18.793  0.00  0.00    +0.000 A 
ATOM     16  C   UNL     1       1.590   2.635  18.372  0.00  0.00    +0.000 A 
ATOM     17  C   UNL     1       1.745   3.609  17.390  0.00  0.00    +0.000 A 
ATOM     18  C   UNL     1       2.999   3.837  16.829  0.00  0.00    +0.000 A 
ENDBRANCH  11  13
BRANCH   1  19
ATOM     19  C   UNL     1       5.983   5.138  18.328  0.00  0.00    +0.000 C 
BRANCH  19  20
ATOM     20  C   UNL     1       4.865   6.131  18.662  0.00  0.00    +0.000 C 
BRANCH  20  21
ATOM     21  C   UNL     1       3.880   5.623  19.715  0.00  0.00    +0.000 C 
BRANCH  21  22
ATOM     22  C   UNL     1       2.570   6.363  19.644  0.00  0.00    +0.000 C 
ATOM     23  O   UNL     1       2.331   7.289  18.882  0.00  0.00    +0.000 OA
BRANCH  22  25
ATOM     24  C   UNL     1       2.155   4.671  21.194  0.00  0.00    +0.000 C 
ATOM     25  O   UNL     1       1.683   5.842  20.533  0.00  0.00    +0.000 OA
ENDBRANCH  22  25
ENDBRANCH  21  22
ENDBRANCH  20  21
ENDBRANCH  19  20
ENDBRANCH   1  19
TORSDOF 6
ENDMDL
MODEL 9
REMARK VINA RESULT:      -7.2      2.836      5.352
REMARK  Name = 
REMARK  7 active torsions:
REMARK  status: ('A' for Active; 'I' for Inactive)
REMARK    1  A    between atoms: C_1  and  O_2
REMARK    2  A    between atoms: O_2  and  C_3
REMARK    3  A    between atoms: C_3  and  C_5
REMARK    4  A    between atoms: C_5  and  C_6
REMARK    5  A    between atoms: C_6  and  C_7
REMARK    6  A    between atoms: C_7  and  N_8
REMARK    7  A    between atoms: C_18  and  C_19
REMARK                            x       y       z     vdW  Elec       q    Type
REMARK                         _______ _______ _______ _____ _____    ______ ____
ROOT
ATOM      1  N   UNL     1       4.114   5.582  18.907  0.00  0.00    +0.000 N 
ATOM      2  C   UNL     1       3.062   6.105  19.652  0.00  0.00    +0.000 C 
ATOM      3  O   UNL     1       2.560   5.518  20.611  0.00  0.00    +0.000 OA
ATOM      4  C   UNL     1       2.492   7.398  19.239  0.00  0.00    +0.000 A 
ATOM      5  C   UNL     1       1.446   7.976  19.971  0.00  0.00    +0.000 A 
ATOM      6  C   UNL     1       0.826   9.128  19.498  0.00  0.00    +0.000 A 
ATOM      7  C   UNL     1       1.248   9.691  18.296  0.00  0.00    +0.000 A 
ATOM      8  C   UNL     1       2.309   9.119  17.586  0.00  0.00    +0.000 A 
ATOM      9  C   UNL     1       2.948   7.964  18.053  0.00  0.00    +0.000 A 
ATOM     10  N   UNL     1       4.050   7.463  17.403  0.00  0.00    +0.000 N 
ATOM     11  C   UNL     1       4.865   6.409  17.966  0.00  0.00    +0.000 C 
ATOM     12  H   UNL     1       4.174   7.671  16.420  0.00  0.00    +0.000 HD
ENDROOT
BRANCH  11  13
ATOM     13  C   UNL     1       5.431   5.614  16.798  0.00  0.00    +0.000 A 
ATOM     14  C   UNL     1       4.588   4.996  15.860  0.00  0.00    +0.000 A 
ATOM     15  C   UNL     1       5.130   4.271  14.795  0.00  0.00    +0.000 A 
ATOM     16  C   UNL     1       6.516   4.155  14.659  0.00  0.00    +0.000 A 
ATOM     17  C   UNL     1       7.361   4.761  15.583  0.00  0.00    +0.000 A 
ATOM     18  C   UNL     1       6.825   5.485  16.644  0.00  0.00    +0.000 A 
ENDBRANCH  11  13
BRANCH   1  19
ATOM     19  C   UNL     1       4.701   4.323  19.376  0.00  0.00    +0.000 C 
BRANCH  19  20
ATOM     20  C   UNL     1       4.108   3.059  18.749  0.00  0.00    +0.000 C 
BRANCH  20  21
ATOM     21  C   UNL     1       3.143   2.305  19.665  0.00  0.00    +0.000 C 
BRANCH  21  22
ATOM     22  C   UNL     1       1.713   2.492  19.229  0.00  0.00    +0.000 C 
ATOM     23  O   UNL     1       1.318   2.407  18.075  0.00  0.00    +0.000 OA
BRANCH  22  25
ATOM     24  C   UNL     1       1.567   2.534  21.556  0.00  0.00    +0.000 C 
ATOM     25  O   UNL     1       0.921   2.748  20.305  0.00  0.00    +0.000 OA
ENDBRANCH  22  25
ENDBRANCH  21  22
ENDBRANCH  20  21
ENDBRANCH  19  20
ENDBRANCH   1  19
TORSDOF 6
ENDMDL
