MODEL 1
REMARK VINA RESULT:      -8.3      0.000      0.000
REMARK  Name = 
REMARK  9 active torsions:
REMARK  status: ('A' for Active; 'I' for Inactive)
REMARK    1  A    between atoms: C_1  and  C_2
REMARK    2  A    between atoms: C_4  and  C_5
REMARK    3  A    between atoms: C_8  and  C_9
REMARK    4  A    between atoms: C_10  and  O_11
REMARK    5  A    between atoms: O_11  and  C_12
REMARK    6  A    between atoms: N_15  and  C_16
REMARK    7  A    between atoms: N_19  and  C_20
REMARK    8  A    between atoms: C_20  and  C_21
REMARK    9  A    between atoms: C_21  and  N_22
REMARK                            x       y       z     vdW  Elec       q    Type
REMARK                         _______ _______ _______ _____ _____    ______ ____
ROOT
ATOM      1  C   UNL     1       4.025   5.370  19.366  0.00  0.00    +0.000 A 
ATOM      2  N   UNL     1       3.522   6.607  19.285  0.00  0.00    +0.000 NA
ATOM      3  C   UNL     1       2.376   6.942  19.872  0.00  0.00    +0.000 A 
ATOM      4  N   UNL     1       2.042   8.258  19.681  0.00  0.00    +0.000 N 
ATOM      5  N   UNL     1       1.657   6.099  20.589  0.00  0.00    +0.000 NA
ATOM      6  C   UNL     1       2.103   4.821  20.651  0.00  0.00    +0.000 A 
ATOM      7  C   UNL     1       1.452   3.750  21.334  0.00  0.00    +0.000 A 
ATOM      8  C   UNL     1       2.108   2.551  21.182  0.00  0.00    +0.000 A 
ATOM      9  S   UNL     1       3.533   2.722  20.253  0.00  0.00    +0.000 S 
ATOM     10  C   UNL     1       3.276   4.407  20.033  0.00  0.00    +0.000 A 
ATOM     11  H   UNL     1       2.715   8.660  19.045  0.00  0.00    +0.000 HD
ENDROOT
BRANCH   4  12
ATOM     12  C   UNL     1       0.745   8.922  19.680  0.00  0.00    +0.000 C 
ATOM     13  C   UNL     1       0.530   9.803  18.466  0.00  0.00    +0.000 C 
ATOM     14  C   UNL     1       1.230  11.140  18.613  0.00  0.00    +0.000 C 
ATOM     15  N   UNL     1       0.893  11.868  19.849  0.00  0.00    +0.000 NA
ATOM     16  C   UNL     1       0.937  11.039  21.073  0.00  0.00    +0.000 C 
ATOM     17  C   UNL     1       0.347   9.640  20.957  0.00  0.00    +0.000 C 
BRANCH  15  18
ATOM     18  C   UNL     1       1.864  12.973  20.048  0.00  0.00    +0.000 C 
BRANCH  18  19
ATOM     19  C   UNL     1       2.152  13.868  18.825  0.00  0.00    +0.000 C 
BRANCH  19  20
ATOM     20  N   UNL     1       3.534  14.400  18.826  0.00  0.00    +0.000 NA
ATOM     21  C   UNL     1       3.850  15.197  20.032  0.00  0.00    +0.000 C 
ATOM     22  C   UNL     1       3.106  16.539  20.088  0.00  0.00    +0.000 C 
ATOM     23  O   UNL     1       3.380  17.330  18.924  0.00  0.00    +0.000 OA
ATOM     24  C   UNL     1       3.038  16.620  17.726  0.00  0.00    +0.000 C 
ATOM     25  C   UNL     1       3.762  15.264  17.646  0.00  0.00    +0.000 C 
ENDBRANCH  19  20
ENDBRANCH  18  19
ENDBRANCH  15  18
ENDBRANCH   4  12
BRANCH   1  26
ATOM     26  O   UNL     1       5.175   5.013  18.690  0.00  0.00    +0.000 OA
BRANCH  26  34
ATOM     27  C   UNL     1       3.242   3.434  16.641  0.00  0.00    +0.000 C 
ATOM     28  C   UNL     1       4.571   4.088  16.414  0.00  0.00    +0.000 A 
ATOM     29  C   UNL     1       5.074   3.887  15.110  0.00  0.00    +0.000 A 
ATOM     30  C   UNL     1       6.253   4.476  14.664  0.00  0.00    +0.000 A 
ATOM     31  C   UNL     1       6.947   5.309  15.524  0.00  0.00    +0.000 A 
ATOM     32  C   UNL     1       6.501   5.512  16.843  0.00  0.00    +0.000 A 
ATOM     33  C   UNL     1       7.311   6.435  17.719  0.00  0.00    +0.000 C 
ATOM     34  C   UNL     1       5.315   4.876  17.319  0.00  0.00    +0.000 A 
BRANCH  30  35
ATOM     35  C   UNL     1       6.739   4.190  13.357  0.00  0.00    +0.000 C 
ATOM     36  N   UNL     1       7.112   3.923  12.294  0.00  0.00    +0.000 NA
ENDBRANCH  30  35
ENDBRANCH  26  34
ENDBRANCH   1  26
TORSDOF 7
ENDMDL
MODEL 2
REMARK VINA RESULT:      -8.0      1.099      1.276
REMARK  Name = 
REMARK  9 active torsions:
REMARK  status: ('A' for Active; 'I' for Inactive)
REMARK    1  A    between atoms: C_1  and  C_2
REMARK    2  A    between atoms: C_4  and  C_5
REMARK    3  A    between atoms: C_8  and  C_9
REMARK    4  A    between atoms: C_10  and  O_11
REMARK    5  A    between atoms: O_11  and  C_12
REMARK    6  A    between atoms: N_15  and  C_16
REMARK    7  A    between atoms: N_19  and  C_20
REMARK    8  A    between atoms: C_20  and  C_21
REMARK    9  A    between atoms: C_21  and  N_22
REMARK                            x       y       z     vdW  Elec       q    Type
REMARK                         _______ _______ _______ _____ _____    ______ ____
ROOT
ATOM      1  C   UNL     1       4.007   5.348  19.404  0.00  0.00    +0.000 A 
ATOM      2  N   UNL     1       3.491   6.582  19.340  0.00  0.00    +0.000 NA
ATOM      3  C   UNL     1       2.343   6.898  19.935  0.00  0.00    +0.000 A 
ATOM      4  N   UNL     1       1.996   8.212  19.762  0.00  0.00    +0.000 N 
ATOM      5  N   UNL     1       1.635   6.037  20.642  0.00  0.00    +0.000 NA
ATOM      6  C   UNL     1       2.093   4.763  20.686  0.00  0.00    +0.000 A 
ATOM      7  C   UNL     1       1.455   3.676  21.356  0.00  0.00    +0.000 A 
ATOM      8  C   UNL     1       2.123   2.486  21.186  0.00  0.00    +0.000 A 
ATOM      9  S   UNL     1       3.543   2.684  20.256  0.00  0.00    +0.000 S 
ATOM     10  C   UNL     1       3.269   4.370  20.059  0.00  0.00    +0.000 A 
ATOM     11  H   UNL     1       2.664   8.630  19.131  0.00  0.00    +0.000 HD
ENDROOT
BRANCH   4  12
ATOM     12  C   UNL     1       0.693   8.863  19.774  0.00  0.00    +0.000 C 
ATOM     13  C   UNL     1       0.476   9.779  18.586  0.00  0.00    +0.000 C 
ATOM     14  C   UNL     1       1.161  11.118  18.777  0.00  0.00    +0.000 C 
ATOM     15  N   UNL     1       0.810  11.804  20.033  0.00  0.00    +0.000 NA
ATOM     16  C   UNL     1       0.855  10.938  21.232  0.00  0.00    +0.000 C 
ATOM     17  C   UNL     1       0.280   9.539  21.070  0.00  0.00    +0.000 C 
BRANCH  15  18
ATOM     18  C   UNL     1       1.769  12.912  20.271  0.00  0.00    +0.000 C 
BRANCH  18  19
ATOM     19  C   UNL     1       1.179  14.336  20.326  0.00  0.00    +0.000 C 
BRANCH  19  20
ATOM     20  N   UNL     1       1.140  14.984  18.995  0.00  0.00    +0.000 NA
ATOM     21  C   UNL     1       2.180  16.022  18.821  0.00  0.00    +0.000 C 
ATOM     22  C   UNL     1       1.938  17.276  19.675  0.00  0.00    +0.000 C 
ATOM     23  O   UNL     1       0.656  17.852  19.392  0.00  0.00    +0.000 OA
ATOM     24  C   UNL     1      -0.395  16.898  19.599  0.00  0.00    +0.000 C 
ATOM     25  C   UNL     1      -0.175  15.624  18.764  0.00  0.00    +0.000 C 
ENDBRANCH  19  20
ENDBRANCH  18  19
ENDBRANCH  15  18
ENDBRANCH   4  12
BRANCH   1  26
ATOM     26  O   UNL     1       5.158   5.013  18.720  0.00  0.00    +0.000 OA
BRANCH  26  34
ATOM     27  C   UNL     1       3.189   3.459  16.687  0.00  0.00    +0.000 C 
ATOM     28  C   UNL     1       4.529   4.090  16.451  0.00  0.00    +0.000 A 
ATOM     29  C   UNL     1       5.021   3.876  15.145  0.00  0.00    +0.000 A 
ATOM     30  C   UNL     1       6.209   4.443  14.691  0.00  0.00    +0.000 A 
ATOM     31  C   UNL     1       6.920   5.267  15.545  0.00  0.00    +0.000 A 
ATOM     32  C   UNL     1       6.485   5.482  16.866  0.00  0.00    +0.000 A 
ATOM     33  C   UNL     1       7.314   6.395  17.734  0.00  0.00    +0.000 C 
ATOM     34  C   UNL     1       5.289   4.869  17.349  0.00  0.00    +0.000 A 
BRANCH  30  35
ATOM     35  C   UNL     1       6.683   4.144  13.384  0.00  0.00    +0.000 C 
ATOM     36  N   UNL     1       7.094   3.932  12.321  0.00  0.00    +0.000 NA
ENDBRANCH  30  35
ENDBRANCH  26  34
ENDBRANCH   1  26
TORSDOF 7
ENDMDL
MODEL 3
REMARK VINA RESULT:      -7.9      1.955      2.439
REMARK  Name = 
REMARK  9 active torsions:
REMARK  status: ('A' for Active; 'I' for Inactive)
REMARK    1  A    between atoms: C_1  and  C_2
REMARK    2  A    between atoms: C_4  and  C_5
REMARK    3  A    between atoms: C_8  and  C_9
REMARK    4  A    between atoms: C_10  and  O_11
REMARK    5  A    between atoms: O_11  and  C_12
REMARK    6  A    between atoms: N_15  and  C_16
REMARK    7  A    between atoms: N_19  and  C_20
REMARK    8  A    between atoms: C_20  and  C_21
REMARK    9  A    between atoms: C_21  and  N_22
REMARK                            x       y       z     vdW  Elec       q    Type
REMARK                         _______ _______ _______ _____ _____    ______ ____
ROOT
ATOM      1  C   UNL     1       4.033   5.434  19.392  0.00  0.00    +0.000 A 
ATOM      2  N   UNL     1       3.477   6.649  19.310  0.00  0.00    +0.000 NA
ATOM      3  C   UNL     1       2.323   6.938  19.904  0.00  0.00    +0.000 A 
ATOM      4  N   UNL     1       1.932   8.238  19.711  0.00  0.00    +0.000 N 
ATOM      5  N   UNL     1       1.645   6.068  20.630  0.00  0.00    +0.000 NA
ATOM      6  C   UNL     1       2.145   4.810  20.693  0.00  0.00    +0.000 A 
ATOM      7  C   UNL     1       1.545   3.716  21.385  0.00  0.00    +0.000 A 
ATOM      8  C   UNL     1       2.250   2.545  21.232  0.00  0.00    +0.000 A 
ATOM      9  S   UNL     1       3.659   2.772  20.292  0.00  0.00    +0.000 S 
ATOM     10  C   UNL     1       3.330   4.444  20.067  0.00  0.00    +0.000 A 
ATOM     11  H   UNL     1       2.583   8.666  19.069  0.00  0.00    +0.000 HD
ENDROOT
BRANCH   4  12
ATOM     12  C   UNL     1       0.609   8.847  19.718  0.00  0.00    +0.000 C 
ATOM     13  C   UNL     1       0.446   9.924  18.665  0.00  0.00    +0.000 C 
ATOM     14  C   UNL     1       1.066  11.236  19.104  0.00  0.00    +0.000 C 
ATOM     15  N   UNL     1       0.600  11.718  20.416  0.00  0.00    +0.000 NA
ATOM     16  C   UNL     1       0.590  10.684  21.474  0.00  0.00    +0.000 C 
ATOM     17  C   UNL     1       0.079   9.310  21.064  0.00  0.00    +0.000 C 
BRANCH  15  18
ATOM     18  C   UNL     1       1.498  12.801  20.888  0.00  0.00    +0.000 C 
BRANCH  18  19
ATOM     19  C   UNL     1       0.884  14.213  20.988  0.00  0.00    +0.000 C 
BRANCH  19  20
ATOM     20  N   UNL     1       0.511  14.571  22.375  0.00  0.00    +0.000 NA
ATOM     21  C   UNL     1      -0.737  13.920  22.830  0.00  0.00    +0.000 C 
ATOM     22  C   UNL     1      -1.994  14.454  22.127  0.00  0.00    +0.000 C 
ATOM     23  O   UNL     1      -2.120  15.871  22.303  0.00  0.00    +0.000 OA
ATOM     24  C   UNL     1      -0.953  16.556  21.825  0.00  0.00    +0.000 C 
ATOM     25  C   UNL     1       0.326  16.035  22.504  0.00  0.00    +0.000 C 
ENDBRANCH  19  20
ENDBRANCH  18  19
ENDBRANCH  15  18
ENDBRANCH   4  12
BRANCH   1  26
ATOM     26  O   UNL     1       5.191   5.124  18.708  0.00  0.00    +0.000 OA
BRANCH  26  34
ATOM     27  C   UNL     1       3.232   3.494  16.725  0.00  0.00    +0.000 C 
ATOM     28  C   UNL     1       4.562   4.135  16.467  0.00  0.00    +0.000 A 
ATOM     29  C   UNL     1       5.052   3.892  15.164  0.00  0.00    +0.000 A 
ATOM     30  C   UNL     1       6.230   4.462  14.690  0.00  0.00    +0.000 A 
ATOM     31  C   UNL     1       6.935   5.317  15.518  0.00  0.00    +0.000 A 
ATOM     32  C   UNL     1       6.503   5.561  16.835  0.00  0.00    +0.000 A 
ATOM     33  C   UNL     1       7.325   6.506  17.676  0.00  0.00    +0.000 C 
ATOM     34  C   UNL     1       5.318   4.946  17.341  0.00  0.00    +0.000 A 
BRANCH  30  35
ATOM     35  C   UNL     1       6.702   4.135  13.388  0.00  0.00    +0.000 C 
ATOM     36  N   UNL     1       7.057   3.891  12.313  0.00  0.00    +0.000 NA
ENDBRANCH  30  35
ENDBRANCH  26  34
ENDBRANCH   1  26
TORSDOF 7
ENDMDL
MODEL 4
REMARK VINA RESULT:      -7.6      0.863      1.069
REMARK  Name = 
REMARK  9 active torsions:
REMARK  status: ('A' for Active; 'I' for Inactive)
REMARK    1  A    between atoms: C_1  and  C_2
REMARK    2  A    between atoms: C_4  and  C_5
REMARK    3  A    between atoms: C_8  and  C_9
REMARK    4  A    between atoms: C_10  and  O_11
REMARK    5  A    between atoms: O_11  and  C_12
REMARK    6  A    between atoms: N_15  and  C_16
REMARK    7  A    between atoms: N_19  and  C_20
REMARK    8  A    between atoms: C_20  and  C_21
REMARK    9  A    between atoms: C_21  and  N_22
REMARK                            x       y       z     vdW  Elec       q    Type
REMARK                         _______ _______ _______ _____ _____    ______ ____
ROOT
ATOM      1  C   UNL     1       3.961   5.336  19.439  0.00  0.00    +0.000 A 
ATOM      2  N   UNL     1       3.471   6.581  19.403  0.00  0.00    +0.000 NA
ATOM      3  C   UNL     1       2.321   6.904  19.989  0.00  0.00    +0.000 A 
ATOM      4  N   UNL     1       2.003   8.230  19.849  0.00  0.00    +0.000 N 
ATOM      5  N   UNL     1       1.584   6.039  20.661  0.00  0.00    +0.000 NA
ATOM      6  C   UNL     1       2.016   4.755  20.675  0.00  0.00    +0.000 A 
ATOM      7  C   UNL     1       1.346   3.663  21.305  0.00  0.00    +0.000 A 
ATOM      8  C   UNL     1       1.991   2.464  21.110  0.00  0.00    +0.000 A 
ATOM      9  S   UNL     1       3.430   2.659  20.207  0.00  0.00    +0.000 S 
ATOM     10  C   UNL     1       3.194   4.355  20.055  0.00  0.00    +0.000 A 
ATOM     11  H   UNL     1       2.689   8.651  19.240  0.00  0.00    +0.000 HD
ENDROOT
BRANCH   4  12
ATOM     12  C   UNL     1       0.714   8.907  19.860  0.00  0.00    +0.000 C 
ATOM     13  C   UNL     1       0.392   9.591  18.547  0.00  0.00    +0.000 C 
ATOM     14  C   UNL     1       1.105  10.923  18.419  0.00  0.00    +0.000 C 
ATOM     15  N   UNL     1       0.883  11.840  19.550  0.00  0.00    +0.000 NA
ATOM     16  C   UNL     1       1.036  11.212  20.881  0.00  0.00    +0.000 C 
ATOM     17  C   UNL     1       0.435   9.823  21.039  0.00  0.00    +0.000 C 
BRANCH  15  18
ATOM     18  C   UNL     1       1.871  12.946  19.486  0.00  0.00    +0.000 C 
BRANCH  18  19
ATOM     19  C   UNL     1       2.063  13.777  20.772  0.00  0.00    +0.000 C 
BRANCH  19  20
ATOM     20  N   UNL     1       3.347  14.515  20.782  0.00  0.00    +0.000 NA
ATOM     21  C   UNL     1       3.709  15.035  22.119  0.00  0.00    +0.000 C 
ATOM     22  C   UNL     1       2.802  16.180  22.594  0.00  0.00    +0.000 C 
ATOM     23  O   UNL     1       2.807  17.265  21.657  0.00  0.00    +0.000 OA
ATOM     24  C   UNL     1       2.409  16.822  20.353  0.00  0.00    +0.000 C 
ATOM     25  C   UNL     1       3.294  15.667  19.853  0.00  0.00    +0.000 C 
ENDBRANCH  19  20
ENDBRANCH  18  19
ENDBRANCH  15  18
ENDBRANCH   4  12
BRANCH   1  26
ATOM     26  O   UNL     1       5.116   4.996  18.763  0.00  0.00    +0.000 OA
BRANCH  26  34
ATOM     27  C   UNL     1       3.229   3.410  16.677  0.00  0.00    +0.000 C 
ATOM     28  C   UNL     1       4.544   4.099  16.468  0.00  0.00    +0.000 A 
ATOM     29  C   UNL     1       5.057   3.934  15.163  0.00  0.00    +0.000 A 
ATOM     30  C   UNL     1       6.225   4.558  14.734  0.00  0.00    +0.000 A 
ATOM     31  C   UNL     1       6.895   5.391  15.612  0.00  0.00    +0.000 A 
ATOM     32  C   UNL     1       6.439   5.558  16.933  0.00  0.00    +0.000 A 
ATOM     33  C   UNL     1       7.223   6.484  17.829  0.00  0.00    +0.000 C 
ATOM     34  C   UNL     1       5.265   4.887  17.391  0.00  0.00    +0.000 A 
BRANCH  30  35
ATOM     35  C   UNL     1       6.723   4.307  13.425  0.00  0.00    +0.000 C 
ATOM     36  N   UNL     1       7.127   4.063  12.367  0.00  0.00    +0.000 NA
ENDBRANCH  30  35
ENDBRANCH  26  34
ENDBRANCH   1  26
TORSDOF 7
ENDMDL
MODEL 5
REMARK VINA RESULT:      -7.4      4.303      7.856
REMARK  Name = 
REMARK  9 active torsions:
REMARK  status: ('A' for Active; 'I' for Inactive)
REMARK    1  A    between atoms: C_1  and  C_2
REMARK    2  A    between atoms: C_4  and  C_5
REMARK    3  A    between atoms: C_8  and  C_9
REMARK    4  A    between atoms: C_10  and  O_11
REMARK    5  A    between atoms: O_11  and  C_12
REMARK    6  A    between atoms: N_15  and  C_16
REMARK    7  A    between atoms: N_19  and  C_20
REMARK    8  A    between atoms: C_20  and  C_21
REMARK    9  A    between atoms: C_21  and  N_22
REMARK                            x       y       z     vdW  Elec       q    Type
REMARK                         _______ _______ _______ _____ _____    ______ ____
ROOT
ATOM      1  C   UNL     1       0.571  11.830  20.747  0.00  0.00    +0.000 A 
ATOM      2  N   UNL     1       1.681  12.399  20.262  0.00  0.00    +0.000 NA
ATOM      3  C   UNL     1       2.057  13.626  20.615  0.00  0.00    +0.000 A 
ATOM      4  N   UNL     1       3.227  14.019  20.018  0.00  0.00    +0.000 N 
ATOM      5  N   UNL     1       1.385  14.369  21.475  0.00  0.00    +0.000 NA
ATOM      6  C   UNL     1       0.225  13.852  21.948  0.00  0.00    +0.000 A 
ATOM      7  C   UNL     1      -0.667  14.508  22.848  0.00  0.00    +0.000 A 
ATOM      8  C   UNL     1      -1.792  13.763  23.114  0.00  0.00    +0.000 A 
ATOM      9  S   UNL     1      -1.754  12.252  22.315  0.00  0.00    +0.000 S 
ATOM     10  C   UNL     1      -0.231  12.589  21.590  0.00  0.00    +0.000 A 
ATOM     11  H   UNL     1       3.496  13.303  19.360  0.00  0.00    +0.000 HD
ENDROOT
BRANCH   4  12
ATOM     12  C   UNL     1       3.735  15.347  19.702  0.00  0.00    +0.000 C 
ATOM     13  C   UNL     1       3.962  15.558  18.218  0.00  0.00    +0.000 C 
ATOM     14  C   UNL     1       5.263  14.933  17.755  0.00  0.00    +0.000 C 
ATOM     15  N   UNL     1       6.446  15.356  18.525  0.00  0.00    +0.000 NA
ATOM     16  C   UNL     1       6.260  15.319  19.992  0.00  0.00    +0.000 C 
ATOM     17  C   UNL     1       4.925  15.832  20.512  0.00  0.00    +0.000 C 
BRANCH  15  18
ATOM     18  C   UNL     1       7.581  14.451  18.217  0.00  0.00    +0.000 C 
BRANCH  18  19
ATOM     19  C   UNL     1       8.371  13.898  19.422  0.00  0.00    +0.000 C 
BRANCH  19  20
ATOM     20  N   UNL     1       9.720  13.419  19.042  0.00  0.00    +0.000 NA
ATOM     21  C   UNL     1       9.703  12.459  17.917  0.00  0.00    +0.000 C 
ATOM     22  C   UNL     1       9.092  11.099  18.286  0.00  0.00    +0.000 C 
ATOM     23  O   UNL     1       9.784  10.506  19.392  0.00  0.00    +0.000 OA
ATOM     24  C   UNL     1       9.781  11.378  20.530  0.00  0.00    +0.000 C 
ATOM     25  C   UNL     1      10.379  12.755  20.189  0.00  0.00    +0.000 C 
ENDBRANCH  19  20
ENDBRANCH  18  19
ENDBRANCH  15  18
ENDBRANCH   4  12
BRANCH   1  26
ATOM     26  O   UNL     1       0.150  10.588  20.316  0.00  0.00    +0.000 OA
BRANCH  26  34
ATOM     27  C   UNL     1       1.974   9.846  17.757  0.00  0.00    +0.000 C 
ATOM     28  C   UNL     1       1.645   9.045  18.981  0.00  0.00    +0.000 A 
ATOM     29  C   UNL     1       2.155   7.729  18.937  0.00  0.00    +0.000 A 
ATOM     30  C   UNL     1       2.033   6.844  20.005  0.00  0.00    +0.000 A 
ATOM     31  C   UNL     1       1.412   7.280  21.162  0.00  0.00    +0.000 A 
ATOM     32  C   UNL     1       0.860   8.572  21.238  0.00  0.00    +0.000 A 
ATOM     33  C   UNL     1       0.200   8.973  22.534  0.00  0.00    +0.000 C 
ATOM     34  C   UNL     1       0.944   9.469  20.130  0.00  0.00    +0.000 A 
BRANCH  30  35
ATOM     35  C   UNL     1       2.516   5.512  19.880  0.00  0.00    +0.000 C 
ATOM     36  N   UNL     1       2.880   4.419  19.752  0.00  0.00    +0.000 NA
ENDBRANCH  30  35
ENDBRANCH  26  34
ENDBRANCH   1  26
TORSDOF 7
ENDMDL
MODEL 6
REMARK VINA RESULT:      -7.2      0.958      1.934
REMARK  Name = 
REMARK  9 active torsions:
REMARK  status: ('A' for Active; 'I' for Inactive)
REMARK    1  A    between atoms: C_1  and  C_2
REMARK    2  A    between atoms: C_4  and  C_5
REMARK    3  A    between atoms: C_8  and  C_9
REMARK    4  A    between atoms: C_10  and  O_11
REMARK    5  A    between atoms: O_11  and  C_12
REMARK    6  A    between atoms: N_15  and  C_16
REMARK    7  A    between atoms: N_19  and  C_20
REMARK    8  A    between atoms: C_20  and  C_21
REMARK    9  A    between atoms: C_21  and  N_22
REMARK                            x       y       z     vdW  Elec       q    Type
REMARK                         _______ _______ _______ _____ _____    ______ ____
ROOT
ATOM      1  C   UNL     1       4.017   5.143  19.580  0.00  0.00    +0.000 A 
ATOM      2  N   UNL     1       3.728   6.404  19.240  0.00  0.00    +0.000 NA
ATOM      3  C   UNL     1       2.516   6.923  19.420  0.00  0.00    +0.000 A 
ATOM      4  N   UNL     1       2.429   8.231  19.020  0.00  0.00    +0.000 N 
ATOM      5  N   UNL     1       1.514   6.251  19.958  0.00  0.00    +0.000 NA
ATOM      6  C   UNL     1       1.750   4.953  20.266  0.00  0.00    +0.000 A 
ATOM      7  C   UNL     1       0.793   4.046  20.813  0.00  0.00    +0.000 A 
ATOM      8  C   UNL     1       1.301   2.778  20.974  0.00  0.00    +0.000 A 
ATOM      9  S   UNL     1       2.943   2.688  20.509  0.00  0.00    +0.000 S 
ATOM     10  C   UNL     1       2.987   4.351  20.072  0.00  0.00    +0.000 A 
ATOM     11  H   UNL     1       3.304   8.482  18.585  0.00  0.00    +0.000 HD
ENDROOT
BRANCH   4  12
ATOM     12  C   UNL     1       1.288   9.015  18.568  0.00  0.00    +0.000 C 
ATOM     13  C   UNL     1       1.670  10.115  17.598  0.00  0.00    +0.000 C 
ATOM     14  C   UNL     1       2.235  11.325  18.317  0.00  0.00    +0.000 C 
ATOM     15  N   UNL     1       1.369  11.853  19.385  0.00  0.00    +0.000 NA
ATOM     16  C   UNL     1       0.830  10.821  20.297  0.00  0.00    +0.000 C 
ATOM     17  C   UNL     1       0.348   9.534  19.642  0.00  0.00    +0.000 C 
BRANCH  15  18
ATOM     18  C   UNL     1       2.146  12.799  20.225  0.00  0.00    +0.000 C 
BRANCH  18  19
ATOM     19  C   UNL     1       3.062  13.792  19.480  0.00  0.00    +0.000 C 
BRANCH  19  20
ATOM     20  N   UNL     1       2.297  14.787  18.694  0.00  0.00    +0.000 NA
ATOM     21  C   UNL     1       3.131  15.530  17.725  0.00  0.00    +0.000 C 
ATOM     22  C   UNL     1       4.120  16.500  18.388  0.00  0.00    +0.000 C 
ATOM     23  O   UNL     1       3.437  17.439  19.228  0.00  0.00    +0.000 OA
ATOM     24  C   UNL     1       2.654  16.766  20.224  0.00  0.00    +0.000 C 
ATOM     25  C   UNL     1       1.659  15.779  19.590  0.00  0.00    +0.000 C 
ENDBRANCH  19  20
ENDBRANCH  18  19
ENDBRANCH  15  18
ENDBRANCH   4  12
BRANCH   1  26
ATOM     26  O   UNL     1       5.256   4.592  19.318  0.00  0.00    +0.000 OA
BRANCH  26  34
ATOM     27  C   UNL     1       7.879   6.392  18.768  0.00  0.00    +0.000 C 
ATOM     28  C   UNL     1       7.041   5.582  17.825  0.00  0.00    +0.000 A 
ATOM     29  C   UNL     1       7.433   5.720  16.475  0.00  0.00    +0.000 A 
ATOM     30  C   UNL     1       6.840   4.992  15.447  0.00  0.00    +0.000 A 
ATOM     31  C   UNL     1       5.847   4.082  15.763  0.00  0.00    +0.000 A 
ATOM     32  C   UNL     1       5.403   3.935  17.090  0.00  0.00    +0.000 A 
ATOM     33  C   UNL     1       4.318   2.922  17.354  0.00  0.00    +0.000 C 
ATOM     34  C   UNL     1       5.978   4.710  18.143  0.00  0.00    +0.000 A 
BRANCH  30  35
ATOM     35  C   UNL     1       7.238   5.217  14.099  0.00  0.00    +0.000 C 
ATOM     36  N   UNL     1       7.523   5.399  12.992  0.00  0.00    +0.000 NA
ENDBRANCH  30  35
ENDBRANCH  26  34
ENDBRANCH   1  26
TORSDOF 7
ENDMDL
MODEL 7
REMARK VINA RESULT:      -7.2      4.464      8.144
REMARK  Name = 
REMARK  9 active torsions:
REMARK  status: ('A' for Active; 'I' for Inactive)
REMARK    1  A    between atoms: C_1  and  C_2
REMARK    2  A    between atoms: C_4  and  C_5
REMARK    3  A    between atoms: C_8  and  C_9
REMARK    4  A    between atoms: C_10  and  O_11
REMARK    5  A    between atoms: O_11  and  C_12
REMARK    6  A    between atoms: N_15  and  C_16
REMARK    7  A    between atoms: N_19  and  C_20
REMARK    8  A    between atoms: C_20  and  C_21
REMARK    9  A    between atoms: C_21  and  N_22
REMARK                            x       y       z     vdW  Elec       q    Type
REMARK                         _______ _______ _______ _____ _____    ______ ____
ROOT
ATOM      1  C   UNL     1       0.653  12.114  20.885  0.00  0.00    +0.000 A 
ATOM      2  N   UNL     1       1.828  12.582  20.448  0.00  0.00    +0.000 NA
ATOM      3  C   UNL     1       2.275  13.790  20.781  0.00  0.00    +0.000 A 
ATOM      4  N   UNL     1       3.503  14.074  20.242  0.00  0.00    +0.000 N 
ATOM      5  N   UNL     1       1.613  14.612  21.575  0.00  0.00    +0.000 NA
ATOM      6  C   UNL     1       0.394  14.200  21.996  0.00  0.00    +0.000 A 
ATOM      7  C   UNL     1      -0.496  14.953  22.820  0.00  0.00    +0.000 A 
ATOM      8  C   UNL     1      -1.686  14.302  23.044  0.00  0.00    +0.000 A 
ATOM      9  S   UNL     1      -1.718  12.764  22.299  0.00  0.00    +0.000 S 
ATOM     10  C   UNL     1      -0.136  12.961  21.655  0.00  0.00    +0.000 A 
ATOM     11  H   UNL     1       3.754  13.316  19.625  0.00  0.00    +0.000 HD
ENDROOT
BRANCH   4  12
ATOM     12  C   UNL     1       4.127  15.348  19.911  0.00  0.00    +0.000 C 
ATOM     13  C   UNL     1       4.245  15.582  18.419  0.00  0.00    +0.000 C 
ATOM     14  C   UNL     1       5.423  14.836  17.825  0.00  0.00    +0.000 C 
ATOM     15  N   UNL     1       6.708  15.100  18.494  0.00  0.00    +0.000 NA
ATOM     16  C   UNL     1       6.648  15.035  19.971  0.00  0.00    +0.000 C 
ATOM     17  C   UNL     1       5.430  15.673  20.622  0.00  0.00    +0.000 C 
BRANCH  15  18
ATOM     18  C   UNL     1       7.704  14.088  18.063  0.00  0.00    +0.000 C 
BRANCH  18  19
ATOM     19  C   UNL     1       9.187  14.509  18.120  0.00  0.00    +0.000 C 
BRANCH  19  20
ATOM     20  N   UNL     1       9.942  13.785  19.167  0.00  0.00    +0.000 NA
ATOM     21  C   UNL     1      11.401  14.018  19.101  0.00  0.00    +0.000 C 
ATOM     22  C   UNL     1      12.067  13.374  17.876  0.00  0.00    +0.000 C 
ATOM     23  O   UNL     1      11.820  11.962  17.839  0.00  0.00    +0.000 OA
ATOM     24  C   UNL     1      10.414  11.683  17.846  0.00  0.00    +0.000 C 
ATOM     25  C   UNL     1       9.716  12.326  19.058  0.00  0.00    +0.000 C 
ENDBRANCH  19  20
ENDBRANCH  18  19
ENDBRANCH  15  18
ENDBRANCH   4  12
BRANCH   1  26
ATOM     26  O   UNL     1       0.165  10.891  20.472  0.00  0.00    +0.000 OA
BRANCH  26  34
ATOM     27  C   UNL     1       1.914  10.095  17.877  0.00  0.00    +0.000 C 
ATOM     28  C   UNL     1       1.567   9.297  19.097  0.00  0.00    +0.000 A 
ATOM     29  C   UNL     1       2.014   7.959  19.030  0.00  0.00    +0.000 A 
ATOM     30  C   UNL     1       1.867   7.068  20.090  0.00  0.00    +0.000 A 
ATOM     31  C   UNL     1       1.284   7.518  21.261  0.00  0.00    +0.000 A 
ATOM     32  C   UNL     1       0.794   8.834  21.360  0.00  0.00    +0.000 A 
ATOM     33  C   UNL     1       0.172   9.250  22.670  0.00  0.00    +0.000 C 
ATOM     34  C   UNL     1       0.903   9.739  20.261  0.00  0.00    +0.000 A 
BRANCH  30  35
ATOM     35  C   UNL     1       2.286   5.716  19.943  0.00  0.00    +0.000 C 
ATOM     36  N   UNL     1       2.594   4.604  19.843  0.00  0.00    +0.000 NA
ENDBRANCH  30  35
ENDBRANCH  26  34
ENDBRANCH   1  26
TORSDOF 7
ENDMDL
MODEL 8
REMARK VINA RESULT:      -7.2      0.947      1.781
REMARK  Name = 
REMARK  9 active torsions:
REMARK  status: ('A' for Active; 'I' for Inactive)
REMARK    1  A    between atoms: C_1  and  C_2
REMARK    2  A    between atoms: C_4  and  C_5
REMARK    3  A    between atoms: C_8  and  C_9
REMARK    4  A    between atoms: C_10  and  O_11
REMARK    5  A    between atoms: O_11  and  C_12
REMARK    6  A    between atoms: N_15  and  C_16
REMARK    7  A    between atoms: N_19  and  C_20
REMARK    8  A    between atoms: C_20  and  C_21
REMARK    9  A    between atoms: C_21  and  N_22
REMARK                            x       y       z     vdW  Elec       q    Type
REMARK                         _______ _______ _______ _____ _____    ______ ____
ROOT
ATOM      1  C   UNL     1       4.033   5.096  19.611  0.00  0.00    +0.000 A 
ATOM      2  N   UNL     1       3.728   6.356  19.277  0.00  0.00    +0.000 NA
ATOM      3  C   UNL     1       2.514   6.863  19.472  0.00  0.00    +0.000 A 
ATOM      4  N   UNL     1       2.411   8.171  19.077  0.00  0.00    +0.000 N 
ATOM      5  N   UNL     1       1.524   6.181  20.019  0.00  0.00    +0.000 NA
ATOM      6  C   UNL     1       1.774   4.884  20.320  0.00  0.00    +0.000 A 
ATOM      7  C   UNL     1       0.832   3.967  20.875  0.00  0.00    +0.000 A 
ATOM      8  C   UNL     1       1.352   2.703  21.027  0.00  0.00    +0.000 A 
ATOM      9  S   UNL     1       2.990   2.629  20.544  0.00  0.00    +0.000 S 
ATOM     10  C   UNL     1       3.015   4.293  20.111  0.00  0.00    +0.000 A 
ATOM     11  H   UNL     1       3.280   8.431  18.633  0.00  0.00    +0.000 HD
ENDROOT
BRANCH   4  12
ATOM     12  C   UNL     1       1.258   8.947  18.638  0.00  0.00    +0.000 C 
ATOM     13  C   UNL     1       1.613  10.019  17.628  0.00  0.00    +0.000 C 
ATOM     14  C   UNL     1       2.202  11.246  18.295  0.00  0.00    +0.000 C 
ATOM     15  N   UNL     1       1.371  11.806  19.375  0.00  0.00    +0.000 NA
ATOM     16  C   UNL     1       0.859  10.800  20.331  0.00  0.00    +0.000 C 
ATOM     17  C   UNL     1       0.354   9.498  19.727  0.00  0.00    +0.000 C 
BRANCH  15  18
ATOM     18  C   UNL     1       2.177  12.771  20.164  0.00  0.00    +0.000 C 
BRANCH  18  19
ATOM     19  C   UNL     1       2.674  14.028  19.419  0.00  0.00    +0.000 C 
BRANCH  19  20
ATOM     20  N   UNL     1       3.913  14.583  20.011  0.00  0.00    +0.000 NA
ATOM     21  C   UNL     1       3.656  15.641  21.012  0.00  0.00    +0.000 C 
ATOM     22  C   UNL     1       3.112  16.941  20.401  0.00  0.00    +0.000 C 
ATOM     23  O   UNL     1       4.003  17.454  19.402  0.00  0.00    +0.000 OA
ATOM     24  C   UNL     1       4.242  16.481  18.375  0.00  0.00    +0.000 C 
ATOM     25  C   UNL     1       4.779  15.162  18.959  0.00  0.00    +0.000 C 
ENDBRANCH  19  20
ENDBRANCH  18  19
ENDBRANCH  15  18
ENDBRANCH   4  12
BRANCH   1  26
ATOM     26  O   UNL     1       5.273   4.557  19.334  0.00  0.00    +0.000 OA
BRANCH  26  34
ATOM     27  C   UNL     1       7.875   6.383  18.767  0.00  0.00    +0.000 C 
ATOM     28  C   UNL     1       7.035   5.569  17.828  0.00  0.00    +0.000 A 
ATOM     29  C   UNL     1       7.412   5.717  16.475  0.00  0.00    +0.000 A 
ATOM     30  C   UNL     1       6.816   4.989  15.450  0.00  0.00    +0.000 A 
ATOM     31  C   UNL     1       5.835   4.068  15.771  0.00  0.00    +0.000 A 
ATOM     32  C   UNL     1       5.405   3.912  17.102  0.00  0.00    +0.000 A 
ATOM     33  C   UNL     1       4.332   2.887  17.372  0.00  0.00    +0.000 C 
ATOM     34  C   UNL     1       5.983   4.687  18.152  0.00  0.00    +0.000 A 
BRANCH  30  35
ATOM     35  C   UNL     1       7.199   5.223  14.099  0.00  0.00    +0.000 C 
ATOM     36  N   UNL     1       7.549   5.414  13.012  0.00  0.00    +0.000 NA
ENDBRANCH  30  35
ENDBRANCH  26  34
ENDBRANCH   1  26
TORSDOF 7
ENDMDL
MODEL 9
REMARK VINA RESULT:      -7.1      4.396      8.062
REMARK  Name = 
REMARK  9 active torsions:
REMARK  status: ('A' for Active; 'I' for Inactive)
REMARK    1  A    between atoms: C_1  and  C_2
REMARK    2  A    between atoms: C_4  and  C_5
REMARK    3  A    between atoms: C_8  and  C_9
REMARK    4  A    between atoms: C_10  and  O_11
REMARK    5  A    between atoms: O_11  and  C_12
REMARK    6  A    between atoms: N_15  and  C_16
REMARK    7  A    between atoms: N_19  and  C_20
REMARK    8  A    between atoms: C_20  and  C_21
REMARK    9  A    between atoms: C_21  and  N_22
REMARK                            x       y       z     vdW  Elec       q    Type
REMARK                         _______ _______ _______ _____ _____    ______ ____
ROOT
ATOM      1  C   UNL     1       0.528  12.168  20.686  0.00  0.00    +0.000 A 
ATOM      2  N   UNL     1       1.763  12.628  20.450  0.00  0.00    +0.000 NA
ATOM      3  C   UNL     1       2.238  13.716  21.051  0.00  0.00    +0.000 A 
ATOM      4  N   UNL     1       3.525  14.011  20.683  0.00  0.00    +0.000 N 
ATOM      5  N   UNL     1       1.546  14.415  21.932  0.00  0.00    +0.000 NA
ATOM      6  C   UNL     1       0.272  14.016  22.159  0.00  0.00    +0.000 A 
ATOM      7  C   UNL     1      -0.653  14.658  23.037  0.00  0.00    +0.000 A 
ATOM      8  C   UNL     1      -1.891  14.061  23.027  0.00  0.00    +0.000 A 
ATOM      9  S   UNL     1      -1.931  12.699  21.994  0.00  0.00    +0.000 S 
ATOM     10  C   UNL     1      -0.286  12.905  21.537  0.00  0.00    +0.000 A 
ATOM     11  H   UNL     1       3.795  13.369  19.953  0.00  0.00    +0.000 HD
ENDROOT
BRANCH   4  12
ATOM     12  C   UNL     1       4.243  15.278  20.664  0.00  0.00    +0.000 C 
ATOM     13  C   UNL     1       4.226  15.950  19.306  0.00  0.00    +0.000 C 
ATOM     14  C   UNL     1       5.248  15.341  18.366  0.00  0.00    +0.000 C 
ATOM     15  N   UNL     1       6.618  15.297  18.906  0.00  0.00    +0.000 NA
ATOM     16  C   UNL     1       6.709  14.786  20.291  0.00  0.00    +0.000 C 
ATOM     17  C   UNL     1       5.641  15.277  21.258  0.00  0.00    +0.000 C 
BRANCH  15  18
ATOM     18  C   UNL     1       7.448  14.398  18.065  0.00  0.00    +0.000 C 
BRANCH  18  19
ATOM     19  C   UNL     1       8.885  14.124  18.557  0.00  0.00    +0.000 C 
BRANCH  19  20
ATOM     20  N   UNL     1       9.607  13.166  17.689  0.00  0.00    +0.000 NA
ATOM     21  C   UNL     1       9.270  11.754  17.974  0.00  0.00    +0.000 C 
ATOM     22  C   UNL     1       9.805  11.260  19.327  0.00  0.00    +0.000 C 
ATOM     23  O   UNL     1      11.227  11.424  19.409  0.00  0.00    +0.000 OA
ATOM     24  C   UNL     1      11.602  12.792  19.193  0.00  0.00    +0.000 C 
ATOM     25  C   UNL     1      11.071  13.319  17.849  0.00  0.00    +0.000 C 
ENDBRANCH  19  20
ENDBRANCH  18  19
ENDBRANCH  15  18
ENDBRANCH   4  12
BRANCH   1  26
ATOM     26  O   UNL     1       0.020  11.083  20.000  0.00  0.00    +0.000 OA
BRANCH  26  34
ATOM     27  C   UNL     1      -0.312   8.937  22.389  0.00  0.00    +0.000 C 
ATOM     28  C   UNL     1       0.484   8.864  21.121  0.00  0.00    +0.000 A 
ATOM     29  C   UNL     1       1.275   7.698  21.028  0.00  0.00    +0.000 A 
ATOM     30  C   UNL     1       2.028   7.394  19.897  0.00  0.00    +0.000 A 
ATOM     31  C   UNL     1       1.980   8.255  18.815  0.00  0.00    +0.000 A 
ATOM     32  C   UNL     1       1.232   9.445  18.876  0.00  0.00    +0.000 A 
ATOM     33  C   UNL     1       1.229  10.331  17.655  0.00  0.00    +0.000 C 
ATOM     34  C   UNL     1       0.492   9.783  20.050  0.00  0.00    +0.000 A 
BRANCH  30  35
ATOM     35  C   UNL     1       2.850   6.233  19.884  0.00  0.00    +0.000 C 
ATOM     36  N   UNL     1       3.530   5.296  19.912  0.00  0.00    +0.000 NA
ENDBRANCH  30  35
ENDBRANCH  26  34
ENDBRANCH   1  26
TORSDOF 7
ENDMDL
