MODEL 1
REMARK VINA RESULT:      -5.7      0.000      0.000
REMARK  Name = 
REMARK  5 active torsions:
REMARK  status: ('A' for Active; 'I' for Inactive)
REMARK    1  A    between atoms: C_1  and  O_2
REMARK    2  A    between atoms: O_2  and  C_3
REMARK    3  A    between atoms: C_6  and  O_7
REMARK    4  A    between atoms: O_7  and  S_8
REMARK    5  A    between atoms: S_8  and  N_9
REMARK                            x       y       z     vdW  Elec       q    Type
REMARK                         _______ _______ _______ _____ _____    ______ ____
ROOT
ATOM      1  C   UNL     1       2.231   4.069  17.706  0.00  0.00    +0.000 A 
ATOM      2  C   UNL     1       3.384   3.385  17.318  0.00  0.00    +0.000 A 
ATOM      3  C   UNL     1       4.612   4.048  17.249  0.00  0.00    +0.000 A 
ATOM      4  C   UNL     1       4.694   5.410  17.538  0.00  0.00    +0.000 A 
ATOM      5  C   UNL     1       3.544   6.098  17.929  0.00  0.00    +0.000 A 
ATOM      6  C   UNL     1       2.315   5.428  18.005  0.00  0.00    +0.000 A 
ENDROOT
BRANCH   1   8
ATOM      7  C   UNL     1       0.995   2.358  18.771  0.00  0.00    +0.000 C 
ATOM      8  O   UNL     1       1.087   3.321  17.727  0.00  0.00    +0.000 OA
ENDBRANCH   1   8
BRANCH   4   9
ATOM      9  O   UNL     1       5.945   5.968  17.463  0.00  0.00    +0.000 OA
BRANCH   9  10
ATOM     10  S   UNL     1       7.161   5.470  18.425  0.00  0.00    +0.000 S 
ATOM     11  O   UNL     1       6.645   5.212  19.749  0.00  0.00    +0.000 OA
ATOM     12  O   UNL     1       7.981   4.519  17.708  0.00  0.00    +0.000 OA
BRANCH  10  13
ATOM     13  N   UNL     1       8.109   6.850  18.565  0.00  0.00    +0.000 NA
ATOM     14  H   UNL     1       8.302   7.271  17.661  0.00  0.00    +0.000 HD
ATOM     15  H   UNL     1       8.916   6.686  19.162  0.00  0.00    +0.000 HD
ENDBRANCH  10  13
ENDBRANCH   9  10
ENDBRANCH   4   9
TORSDOF 4
ENDMDL
MODEL 2
REMARK VINA RESULT:      -5.6      1.392      2.144
REMARK  Name = 
REMARK  5 active torsions:
REMARK  status: ('A' for Active; 'I' for Inactive)
REMARK    1  A    between atoms: C_1  and  O_2
REMARK    2  A    between atoms: O_2  and  C_3
REMARK    3  A    between atoms: C_6  and  O_7
REMARK    4  A    between atoms: O_7  and  S_8
REMARK    5  A    between atoms: S_8  and  N_9
REMARK                            x       y       z     vdW  Elec       q    Type
REMARK                         _______ _______ _______ _____ _____    ______ ____
ROOT
ATOM      1  C   UNL     1       2.195   3.775  18.263  0.00  0.00    +0.000 A 
ATOM      2  C   UNL     1       2.376   5.157  18.189  0.00  0.00    +0.000 A 
ATOM      3  C   UNL     1       3.514   5.690  17.578  0.00  0.00    +0.000 A 
ATOM      4  C   UNL     1       4.497   4.846  17.060  0.00  0.00    +0.000 A 
ATOM      5  C   UNL     1       4.319   3.464  17.131  0.00  0.00    +0.000 A 
ATOM      6  C   UNL     1       3.173   2.932  17.738  0.00  0.00    +0.000 A 
ENDROOT
BRANCH   1   8
ATOM      7  C   UNL     1       1.047   3.496  20.311  0.00  0.00    +0.000 C 
ATOM      8  O   UNL     1       1.052   3.369  18.893  0.00  0.00    +0.000 OA
ENDBRANCH   1   8
BRANCH   4   9
ATOM      9  O   UNL     1       5.566   5.463  16.461  0.00  0.00    +0.000 OA
BRANCH   9  10
ATOM     10  S   UNL     1       6.963   5.718  17.261  0.00  0.00    +0.000 S 
ATOM     11  O   UNL     1       7.715   6.749  16.585  0.00  0.00    +0.000 OA
ATOM     12  O   UNL     1       6.702   5.747  18.683  0.00  0.00    +0.000 OA
BRANCH  10  13
ATOM     13  N   UNL     1       7.805   4.290  16.996  0.00  0.00    +0.000 NA
ATOM     14  H   UNL     1       7.198   3.476  17.041  0.00  0.00    +0.000 HD
ATOM     15  H   UNL     1       8.649   4.246  17.562  0.00  0.00    +0.000 HD
ENDBRANCH  10  13
ENDBRANCH   9  10
ENDBRANCH   4   9
TORSDOF 4
ENDMDL
MODEL 3
REMARK VINA RESULT:      -5.6      1.010      1.217
REMARK  Name = 
REMARK  5 active torsions:
REMARK  status: ('A' for Active; 'I' for Inactive)
REMARK    1  A    between atoms: C_1  and  O_2
REMARK    2  A    between atoms: O_2  and  C_3
REMARK    3  A    between atoms: C_6  and  O_7
REMARK    4  A    between atoms: O_7  and  S_8
REMARK    5  A    between atoms: S_8  and  N_9
REMARK                            x       y       z     vdW  Elec       q    Type
REMARK                         _______ _______ _______ _____ _____    ______ ____
ROOT
ATOM      1  C   UNL     1       2.410   4.034  17.701  0.00  0.00    +0.000 A 
ATOM      2  C   UNL     1       3.505   3.417  17.094  0.00  0.00    +0.000 A 
ATOM      3  C   UNL     1       4.724   4.090  16.980  0.00  0.00    +0.000 A 
ATOM      4  C   UNL     1       4.852   5.400  17.445  0.00  0.00    +0.000 A 
ATOM      5  C   UNL     1       3.761   6.019  18.055  0.00  0.00    +0.000 A 
ATOM      6  C   UNL     1       2.542   5.339  18.176  0.00  0.00    +0.000 A 
ENDROOT
BRANCH   1   8
ATOM      7  C   UNL     1       0.897   2.798  19.032  0.00  0.00    +0.000 C 
ATOM      8  O   UNL     1       1.268   3.285  17.747  0.00  0.00    +0.000 OA
ENDBRANCH   1   8
BRANCH   4   9
ATOM      9  O   UNL     1       6.093   5.969  17.307  0.00  0.00    +0.000 OA
BRANCH   9  10
ATOM     10  S   UNL     1       7.309   5.625  18.335  0.00  0.00    +0.000 S 
ATOM     11  O   UNL     1       7.951   4.400  17.919  0.00  0.00    +0.000 OA
ATOM     12  O   UNL     1       8.048   6.834  18.624  0.00  0.00    +0.000 OA
BRANCH  10  13
ATOM     13  N   UNL     1       6.497   5.256  19.757  0.00  0.00    +0.000 NA
ATOM     14  H   UNL     1       5.691   4.660  19.591  0.00  0.00    +0.000 HD
ATOM     15  H   UNL     1       6.326   6.089  20.315  0.00  0.00    +0.000 HD
ENDBRANCH  10  13
ENDBRANCH   9  10
ENDBRANCH   4   9
TORSDOF 4
ENDMDL
MODEL 4
REMARK VINA RESULT:      -5.6      1.926      2.278
REMARK  Name = 
REMARK  5 active torsions:
REMARK  status: ('A' for Active; 'I' for Inactive)
REMARK    1  A    between atoms: C_1  and  O_2
REMARK    2  A    between atoms: O_2  and  C_3
REMARK    3  A    between atoms: C_6  and  O_7
REMARK    4  A    between atoms: O_7  and  S_8
REMARK    5  A    between atoms: S_8  and  N_9
REMARK                            x       y       z     vdW  Elec       q    Type
REMARK                         _______ _______ _______ _____ _____    ______ ____
ROOT
ATOM      1  C   UNL     1       2.492   4.050  19.151  0.00  0.00    +0.000 A 
ATOM      2  C   UNL     1       2.462   4.869  18.022  0.00  0.00    +0.000 A 
ATOM      3  C   UNL     1       3.645   5.398  17.498  0.00  0.00    +0.000 A 
ATOM      4  C   UNL     1       4.868   5.136  18.117  0.00  0.00    +0.000 A 
ATOM      5  C   UNL     1       4.903   4.317  19.245  0.00  0.00    +0.000 A 
ATOM      6  C   UNL     1       3.716   3.781  19.764  0.00  0.00    +0.000 A 
ENDROOT
BRANCH   1   8
ATOM      7  C   UNL     1       1.293   2.773  20.738  0.00  0.00    +0.000 C 
ATOM      8  O   UNL     1       1.275   3.601  19.580  0.00  0.00    +0.000 OA
ENDBRANCH   1   8
BRANCH   4   9
ATOM      9  O   UNL     1       5.975   5.682  17.518  0.00  0.00    +0.000 OA
BRANCH   9  10
ATOM     10  S   UNL     1       6.876   4.835  16.457  0.00  0.00    +0.000 S 
ATOM     11  O   UNL     1       6.085   3.752  15.920  0.00  0.00    +0.000 OA
ATOM     12  O   UNL     1       7.616   5.752  15.618  0.00  0.00    +0.000 OA
BRANCH  10  13
ATOM     13  N   UNL     1       8.028   4.115  17.443  0.00  0.00    +0.000 NA
ATOM     14  H   UNL     1       8.530   3.373  16.963  0.00  0.00    +0.000 HD
ATOM     15  H   UNL     1       7.640   3.873  18.352  0.00  0.00    +0.000 HD
ENDBRANCH  10  13
ENDBRANCH   9  10
ENDBRANCH   4   9
TORSDOF 4
ENDMDL
MODEL 5
REMARK VINA RESULT:      -5.5      3.216      4.868
REMARK  Name = 
REMARK  5 active torsions:
REMARK  status: ('A' for Active; 'I' for Inactive)
REMARK    1  A    between atoms: C_1  and  O_2
REMARK    2  A    between atoms: O_2  and  C_3
REMARK    3  A    between atoms: C_6  and  O_7
REMARK    4  A    between atoms: O_7  and  S_8
REMARK    5  A    between atoms: S_8  and  N_9
REMARK                            x       y       z     vdW  Elec       q    Type
REMARK                         _______ _______ _______ _____ _____    ______ ____
ROOT
ATOM      1  C   UNL     1       6.757   4.677  16.459  0.00  0.00    +0.000 A 
ATOM      2  C   UNL     1       5.536   4.082  16.137  0.00  0.00    +0.000 A 
ATOM      3  C   UNL     1       4.564   3.883  17.122  0.00  0.00    +0.000 A 
ATOM      4  C   UNL     1       4.815   4.251  18.444  0.00  0.00    +0.000 A 
ATOM      5  C   UNL     1       6.034   4.847  18.769  0.00  0.00    +0.000 A 
ATOM      6  C   UNL     1       7.004   5.053  17.779  0.00  0.00    +0.000 A 
ENDROOT
BRANCH   1   8
ATOM      7  C   UNL     1       7.053   4.846  14.119  0.00  0.00    +0.000 C 
ATOM      8  O   UNL     1       7.634   4.810  15.419  0.00  0.00    +0.000 OA
ENDBRANCH   1   8
BRANCH   4   9
ATOM      9  O   UNL     1       3.793   4.035  19.334  0.00  0.00    +0.000 OA
BRANCH   9  10
ATOM     10  S   UNL     1       3.470   2.550  19.919  0.00  0.00    +0.000 S 
ATOM     11  O   UNL     1       3.003   2.667  21.281  0.00  0.00    +0.000 OA
ATOM     12  O   UNL     1       2.766   1.782  18.915  0.00  0.00    +0.000 OA
BRANCH  10  13
ATOM     13  N   UNL     1       4.995   1.852  20.017  0.00  0.00    +0.000 NA
ATOM     14  H   UNL     1       5.104   1.084  19.362  0.00  0.00    +0.000 HD
ATOM     15  H   UNL     1       5.251   1.655  20.981  0.00  0.00    +0.000 HD
ENDBRANCH  10  13
ENDBRANCH   9  10
ENDBRANCH   4   9
TORSDOF 4
ENDMDL
MODEL 6
REMARK VINA RESULT:      -5.5      3.335      4.869
REMARK  Name = 
REMARK  5 active torsions:
REMARK  status: ('A' for Active; 'I' for Inactive)
REMARK    1  A    between atoms: C_1  and  O_2
REMARK    2  A    between atoms: O_2  and  C_3
REMARK    3  A    between atoms: C_6  and  O_7
REMARK    4  A    between atoms: O_7  and  S_8
REMARK    5  A    between atoms: S_8  and  N_9
REMARK                            x       y       z     vdW  Elec       q    Type
REMARK                         _______ _______ _______ _____ _____    ______ ____
ROOT
ATOM      1  C   UNL     1       6.494   5.281  16.761  0.00  0.00    +0.000 A 
ATOM      2  C   UNL     1       5.260   4.702  16.461  0.00  0.00    +0.000 A 
ATOM      3  C   UNL     1       4.383   4.332  17.484  0.00  0.00    +0.000 A 
ATOM      4  C   UNL     1       4.744   4.511  18.820  0.00  0.00    +0.000 A 
ATOM      5  C   UNL     1       5.975   5.091  19.125  0.00  0.00    +0.000 A 
ATOM      6  C   UNL     1       6.850   5.469  18.096  0.00  0.00    +0.000 A 
ENDROOT
BRANCH   1   8
ATOM      7  C   UNL     1       6.983   4.878  14.484  0.00  0.00    +0.000 C 
ATOM      8  O   UNL     1       7.272   5.591  15.681  0.00  0.00    +0.000 OA
ENDBRANCH   1   8
BRANCH   4   9
ATOM      9  O   UNL     1       3.809   4.137  19.752  0.00  0.00    +0.000 OA
BRANCH   9  10
ATOM     10  S   UNL     1       3.605   2.578  20.178  0.00  0.00    +0.000 S 
ATOM     11  O   UNL     1       2.624   1.972  19.308  0.00  0.00    +0.000 OA
ATOM     12  O   UNL     1       4.895   1.979  20.437  0.00  0.00    +0.000 OA
BRANCH  10  13
ATOM     13  N   UNL     1       2.867   2.701  21.682  0.00  0.00    +0.000 NA
ATOM     14  H   UNL     1       2.975   3.628  22.083  0.00  0.00    +0.000 HD
ATOM     15  H   UNL     1       3.121   1.923  22.285  0.00  0.00    +0.000 HD
ENDBRANCH  10  13
ENDBRANCH   9  10
ENDBRANCH   4   9
TORSDOF 4
ENDMDL
MODEL 7
REMARK VINA RESULT:      -5.4      1.784      2.352
REMARK  Name = 
REMARK  5 active torsions:
REMARK  status: ('A' for Active; 'I' for Inactive)
REMARK    1  A    between atoms: C_1  and  O_2
REMARK    2  A    between atoms: O_2  and  C_3
REMARK    3  A    between atoms: C_6  and  O_7
REMARK    4  A    between atoms: O_7  and  S_8
REMARK    5  A    between atoms: S_8  and  N_9
REMARK                            x       y       z     vdW  Elec       q    Type
REMARK                         _______ _______ _______ _____ _____    ______ ____
ROOT
ATOM      1  C   UNL     1       2.401   3.701  19.621  0.00  0.00    +0.000 A 
ATOM      2  C   UNL     1       2.571   5.085  19.570  0.00  0.00    +0.000 A 
ATOM      3  C   UNL     1       3.698   5.638  18.957  0.00  0.00    +0.000 A 
ATOM      4  C   UNL     1       4.682   4.811  18.414  0.00  0.00    +0.000 A 
ATOM      5  C   UNL     1       4.515   3.427  18.461  0.00  0.00    +0.000 A 
ATOM      6  C   UNL     1       3.380   2.874  19.070  0.00  0.00    +0.000 A 
ENDROOT
BRANCH   1   8
ATOM      7  C   UNL     1       1.451   2.749  21.566  0.00  0.00    +0.000 C 
ATOM      8  O   UNL     1       1.267   3.274  20.255  0.00  0.00    +0.000 OA
ENDBRANCH   1   8
BRANCH   4   9
ATOM      9  O   UNL     1       5.740   5.446  17.815  0.00  0.00    +0.000 OA
BRANCH   9  10
ATOM     10  S   UNL     1       7.204   5.521  18.526  0.00  0.00    +0.000 S 
ATOM     11  O   UNL     1       7.871   6.734  18.114  0.00  0.00    +0.000 OA
ATOM     12  O   UNL     1       7.084   5.130  19.913  0.00  0.00    +0.000 OA
BRANCH  10  13
ATOM     13  N   UNL     1       8.039   4.266  17.785  0.00  0.00    +0.000 NA
ATOM     14  H   UNL     1       8.393   3.595  18.461  0.00  0.00    +0.000 HD
ATOM     15  H   UNL     1       8.714   4.617  17.110  0.00  0.00    +0.000 HD
ENDBRANCH  10  13
ENDBRANCH   9  10
ENDBRANCH   4   9
TORSDOF 4
ENDMDL
MODEL 8
REMARK VINA RESULT:      -5.4      3.492      5.289
REMARK  Name = 
REMARK  5 active torsions:
REMARK  status: ('A' for Active; 'I' for Inactive)
REMARK    1  A    between atoms: C_1  and  O_2
REMARK    2  A    between atoms: O_2  and  C_3
REMARK    3  A    between atoms: C_6  and  O_7
REMARK    4  A    between atoms: O_7  and  S_8
REMARK    5  A    between atoms: S_8  and  N_9
REMARK                            x       y       z     vdW  Elec       q    Type
REMARK                         _______ _______ _______ _____ _____    ______ ____
ROOT
ATOM      1  C   UNL     1       5.452   5.311  15.871  0.00  0.00    +0.000 A 
ATOM      2  C   UNL     1       4.790   6.228  16.689  0.00  0.00    +0.000 A 
ATOM      3  C   UNL     1       3.972   5.786  17.731  0.00  0.00    +0.000 A 
ATOM      4  C   UNL     1       3.782   4.421  17.948  0.00  0.00    +0.000 A 
ATOM      5  C   UNL     1       4.444   3.501  17.134  0.00  0.00    +0.000 A 
ATOM      6  C   UNL     1       5.271   3.947  16.094  0.00  0.00    +0.000 A 
ENDROOT
BRANCH   1   8
ATOM      7  C   UNL     1       7.064   4.953  14.179  0.00  0.00    +0.000 C 
ATOM      8  O   UNL     1       6.216   5.858  14.878  0.00  0.00    +0.000 OA
ENDBRANCH   1   8
BRANCH   4   9
ATOM      9  O   UNL     1       2.978   4.085  19.007  0.00  0.00    +0.000 OA
BRANCH   9  10
ATOM     10  S   UNL     1       1.463   3.529  18.786  0.00  0.00    +0.000 S 
ATOM     11  O   UNL     1       0.693   3.757  19.987  0.00  0.00    +0.000 OA
ATOM     12  O   UNL     1       0.996   3.920  17.474  0.00  0.00    +0.000 OA
BRANCH  10  13
ATOM     13  N   UNL     1       1.689   1.868  18.696  0.00  0.00    +0.000 NA
ATOM     14  H   UNL     1       1.189   1.376  19.432  0.00  0.00    +0.000 HD
ATOM     15  H   UNL     1       2.672   1.632  18.592  0.00  0.00    +0.000 HD
ENDBRANCH  10  13
ENDBRANCH   9  10
ENDBRANCH   4   9
TORSDOF 4
ENDMDL
MODEL 9
REMARK VINA RESULT:      -5.4      1.781      2.015
REMARK  Name = 
REMARK  5 active torsions:
REMARK  status: ('A' for Active; 'I' for Inactive)
REMARK    1  A    between atoms: C_1  and  O_2
REMARK    2  A    between atoms: O_2  and  C_3
REMARK    3  A    between atoms: C_6  and  O_7
REMARK    4  A    between atoms: O_7  and  S_8
REMARK    5  A    between atoms: S_8  and  N_9
REMARK                            x       y       z     vdW  Elec       q    Type
REMARK                         _______ _______ _______ _____ _____    ______ ____
ROOT
ATOM      1  C   UNL     1       2.346   4.222  19.047  0.00  0.00    +0.000 A 
ATOM      2  C   UNL     1       3.535   3.842  19.672  0.00  0.00    +0.000 A 
ATOM      3  C   UNL     1       4.753   4.400  19.276  0.00  0.00    +0.000 A 
ATOM      4  C   UNL     1       4.799   5.324  18.231  0.00  0.00    +0.000 A 
ATOM      5  C   UNL     1       3.613   5.708  17.605  0.00  0.00    +0.000 A 
ATOM      6  C   UNL     1       2.391   5.152  18.009  0.00  0.00    +0.000 A 
ENDROOT
BRANCH   1   8
ATOM      7  C   UNL     1       0.832   2.422  18.812  0.00  0.00    +0.000 C 
ATOM      8  O   UNL     1       1.219   3.602  19.508  0.00  0.00    +0.000 OA
ENDBRANCH   1   8
BRANCH   4   9
ATOM      9  O   UNL     1       6.037   5.832  17.929  0.00  0.00    +0.000 OA
BRANCH   9  10
ATOM     10  S   UNL     1       7.091   5.013  16.996  0.00  0.00    +0.000 S 
ATOM     11  O   UNL     1       7.479   5.841  15.877  0.00  0.00    +0.000 OA
ATOM     12  O   UNL     1       8.054   4.339  17.839  0.00  0.00    +0.000 OA
BRANCH  10  13
ATOM     13  N   UNL     1       6.139   3.789  16.350  0.00  0.00    +0.000 NA
ATOM     14  H   UNL     1       5.199   4.111  16.138  0.00  0.00    +0.000 HD
ATOM     15  H   UNL     1       6.204   2.938  16.903  0.00  0.00    +0.000 HD
ENDBRANCH  10  13
ENDBRANCH   9  10
ENDBRANCH   4   9
TORSDOF 4
ENDMDL
