MODEL 1
REMARK VINA RESULT:      -8.1      0.000      0.000
REMARK  Name = 
REMARK  2 active torsions:
REMARK  status: ('A' for Active; 'I' for Inactive)
REMARK    1  A    between atoms: C_6  and  C_7
REMARK    2  A    between atoms: C_13  and  C_14
REMARK                            x       y       z     vdW  Elec       q    Type
REMARK                         _______ _______ _______ _____ _____    ______ ____
ROOT
ATOM      1  C   UNL     1       1.040   2.864  18.897  0.00  0.00    +0.000 C 
ATOM      2  C   UNL     1       2.365   3.009  19.070  0.00  0.00    +0.000 C 
ATOM      3  C   UNL     1       3.317   2.102  18.320  0.00  0.00    +0.000 C 
ATOM      4  C   UNL     1       3.896   2.760  17.066  0.00  0.00    +0.000 C 
ATOM      5  C   UNL     1       4.669   4.048  17.379  0.00  0.00    +0.000 C 
ATOM      6  C   UNL     1       5.435   4.574  16.164  0.00  0.00    +0.000 C 
ATOM      7  C   UNL     1       6.944   4.452  16.345  0.00  0.00    +0.000 C 
ATOM      8  C   UNL     1       5.076   6.029  16.123  0.00  0.00    +0.000 C 
ATOM      9  O   UNL     1       5.431   6.828  15.265  0.00  0.00    +0.000 OA
ATOM     10  O   UNL     1       4.346   6.364  17.213  0.00  0.00    +0.000 OA
ATOM     11  C   UNL     1       3.724   5.188  17.743  0.00  0.00    +0.000 C 
ATOM     12  C   UNL     1       3.496   5.342  19.260  0.00  0.00    +0.000 C 
ATOM     13  C   UNL     1       2.417   6.338  19.643  0.00  0.00    +0.000 C 
ATOM     14  C   UNL     1       2.247   7.673  19.004  0.00  0.00    +0.000 C 
ATOM     15  C   UNL     1       1.686   5.897  20.675  0.00  0.00    +0.000 C 
ATOM     16  C   UNL     1       2.137   4.558  21.152  0.00  0.00    +0.000 C 
ATOM     17  C   UNL     1       3.022   4.045  19.991  0.00  0.00    +0.000 C 
ENDROOT
TORSDOF 0
ENDMDL
MODEL 2
REMARK VINA RESULT:      -7.9      1.660      3.215
REMARK  Name = 
REMARK  2 active torsions:
REMARK  status: ('A' for Active; 'I' for Inactive)
REMARK    1  A    between atoms: C_6  and  C_7
REMARK    2  A    between atoms: C_13  and  C_14
REMARK                            x       y       z     vdW  Elec       q    Type
REMARK                         _______ _______ _______ _____ _____    ______ ____
ROOT
ATOM      1  C   UNL     1       1.943   6.311  20.478  0.00  0.00    +0.000 C 
ATOM      2  C   UNL     1       2.050   5.909  19.200  0.00  0.00    +0.000 C 
ATOM      3  C   UNL     1       2.319   6.933  18.118  0.00  0.00    +0.000 C 
ATOM      4  C   UNL     1       3.795   6.996  17.717  0.00  0.00    +0.000 C 
ATOM      5  C   UNL     1       4.322   5.653  17.194  0.00  0.00    +0.000 C 
ATOM      6  C   UNL     1       5.719   5.776  16.583  0.00  0.00    +0.000 C 
ATOM      7  C   UNL     1       5.702   5.563  15.074  0.00  0.00    +0.000 C 
ATOM      8  C   UNL     1       6.481   4.650  17.216  0.00  0.00    +0.000 C 
ATOM      9  O   UNL     1       7.670   4.411  17.048  0.00  0.00    +0.000 OA
ATOM     10  O   UNL     1       5.651   3.880  17.959  0.00  0.00    +0.000 OA
ATOM     11  C   UNL     1       4.500   4.647  18.327  0.00  0.00    +0.000 C 
ATOM     12  C   UNL     1       3.284   3.721  18.530  0.00  0.00    +0.000 C 
ATOM     13  C   UNL     1       3.352   2.843  19.765  0.00  0.00    +0.000 C 
ATOM     14  C   UNL     1       4.576   2.117  20.208  0.00  0.00    +0.000 C 
ATOM     15  C   UNL     1       2.158   2.745  20.364  0.00  0.00    +0.000 C 
ATOM     16  C   UNL     1       1.106   3.523  19.650  0.00  0.00    +0.000 C 
ATOM     17  C   UNL     1       1.919   4.457  18.722  0.00  0.00    +0.000 C 
ENDROOT
TORSDOF 0
ENDMDL
MODEL 3
REMARK VINA RESULT:      -7.7      1.395      3.371
REMARK  Name = 
REMARK  2 active torsions:
REMARK  status: ('A' for Active; 'I' for Inactive)
REMARK    1  A    between atoms: C_6  and  C_7
REMARK    2  A    between atoms: C_13  and  C_14
REMARK                            x       y       z     vdW  Elec       q    Type
REMARK                         _______ _______ _______ _____ _____    ______ ____
ROOT
ATOM      1  C   UNL     1       2.015   4.940  20.873  0.00  0.00    +0.000 C 
ATOM      2  C   UNL     1       1.972   5.198  19.555  0.00  0.00    +0.000 C 
ATOM      3  C   UNL     1       2.333   6.581  19.055  0.00  0.00    +0.000 C 
ATOM      4  C   UNL     1       3.769   6.665  18.535  0.00  0.00    +0.000 C 
ATOM      5  C   UNL     1       4.036   5.694  17.377  0.00  0.00    +0.000 C 
ATOM      6  C   UNL     1       5.391   5.942  16.713  0.00  0.00    +0.000 C 
ATOM      7  C   UNL     1       5.242   6.490  15.299  0.00  0.00    +0.000 C 
ATOM      8  C   UNL     1       6.000   4.574  16.633  0.00  0.00    +0.000 C 
ATOM      9  O   UNL     1       7.121   4.316  16.213  0.00  0.00    +0.000 OA
ATOM     10  O   UNL     1       5.106   3.638  17.031  0.00  0.00    +0.000 OA
ATOM     11  C   UNL     1       4.121   4.253  17.869  0.00  0.00    +0.000 C 
ATOM     12  C   UNL     1       2.787   3.487  17.776  0.00  0.00    +0.000 C 
ATOM     13  C   UNL     1       2.792   2.119  18.432  0.00  0.00    +0.000 C 
ATOM     14  C   UNL     1       3.907   1.139  18.312  0.00  0.00    +0.000 C 
ATOM     15  C   UNL     1       1.639   1.877  19.069  0.00  0.00    +0.000 C 
ATOM     16  C   UNL     1       0.683   3.015  18.955  0.00  0.00    +0.000 C 
ATOM     17  C   UNL     1       1.576   4.184  18.474  0.00  0.00    +0.000 C 
ENDROOT
TORSDOF 0
ENDMDL
MODEL 4
REMARK VINA RESULT:      -7.1      2.068      3.533
REMARK  Name = 
REMARK  2 active torsions:
REMARK  status: ('A' for Active; 'I' for Inactive)
REMARK    1  A    between atoms: C_6  and  C_7
REMARK    2  A    between atoms: C_13  and  C_14
REMARK                            x       y       z     vdW  Elec       q    Type
REMARK                         _______ _______ _______ _____ _____    ______ ____
ROOT
ATOM      1  C   UNL     1       1.284   5.253  19.918  0.00  0.00    +0.000 C 
ATOM      2  C   UNL     1       1.983   5.143  18.775  0.00  0.00    +0.000 C 
ATOM      3  C   UNL     1       2.397   6.396  18.033  0.00  0.00    +0.000 C 
ATOM      4  C   UNL     1       3.846   6.798  18.316  0.00  0.00    +0.000 C 
ATOM      5  C   UNL     1       4.850   5.704  17.928  0.00  0.00    +0.000 C 
ATOM      6  C   UNL     1       6.297   6.194  17.995  0.00  0.00    +0.000 C 
ATOM      7  C   UNL     1       6.931   6.290  16.613  0.00  0.00    +0.000 C 
ATOM      8  C   UNL     1       6.998   5.116  18.767  0.00  0.00    +0.000 C 
ATOM      9  O   UNL     1       8.176   5.130  19.103  0.00  0.00    +0.000 OA
ATOM     10  O   UNL     1       6.160   4.077  18.992  0.00  0.00    +0.000 OA
ATOM     11  C   UNL     1       4.806   4.537  18.910  0.00  0.00    +0.000 C 
ATOM     12  C   UNL     1       3.878   3.389  18.468  0.00  0.00    +0.000 C 
ATOM     13  C   UNL     1       3.665   2.306  19.508  0.00  0.00    +0.000 C 
ATOM     14  C   UNL     1       4.751   1.734  20.353  0.00  0.00    +0.000 C 
ATOM     15  C   UNL     1       2.396   1.879  19.520  0.00  0.00    +0.000 C 
ATOM     16  C   UNL     1       1.555   2.587  18.512  0.00  0.00    +0.000 C 
ATOM     17  C   UNL     1       2.413   3.818  18.133  0.00  0.00    +0.000 C 
ENDROOT
TORSDOF 0
ENDMDL
MODEL 5
REMARK VINA RESULT:      -6.9      2.534      5.107
REMARK  Name = 
REMARK  2 active torsions:
REMARK  status: ('A' for Active; 'I' for Inactive)
REMARK    1  A    between atoms: C_6  and  C_7
REMARK    2  A    between atoms: C_13  and  C_14
REMARK                            x       y       z     vdW  Elec       q    Type
REMARK                         _______ _______ _______ _____ _____    ______ ____
ROOT
ATOM      1  C   UNL     1       7.442   5.160  15.208  0.00  0.00    +0.000 C 
ATOM      2  C   UNL     1       6.268   5.463  15.788  0.00  0.00    +0.000 C 
ATOM      3  C   UNL     1       5.000   4.804  15.287  0.00  0.00    +0.000 C 
ATOM      4  C   UNL     1       4.570   3.617  16.151  0.00  0.00    +0.000 C 
ATOM      5  C   UNL     1       4.315   4.011  17.612  0.00  0.00    +0.000 C 
ATOM      6  C   UNL     1       3.668   2.880  18.414  0.00  0.00    +0.000 C 
ATOM      7  C   UNL     1       2.232   3.207  18.805  0.00  0.00    +0.000 C 
ATOM      8  C   UNL     1       4.499   2.813  19.661  0.00  0.00    +0.000 C 
ATOM      9  O   UNL     1       4.361   1.998  20.566  0.00  0.00    +0.000 OA
ATOM     10  O   UNL     1       5.393   3.828  19.685  0.00  0.00    +0.000 OA
ATOM     11  C   UNL     1       5.622   4.288  18.349  0.00  0.00    +0.000 C 
ATOM     12  C   UNL     1       6.024   5.776  18.357  0.00  0.00    +0.000 C 
ATOM     13  C   UNL     1       7.408   6.058  18.912  0.00  0.00    +0.000 C 
ATOM     14  C   UNL     1       7.966   5.412  20.134  0.00  0.00    +0.000 C 
ATOM     15  C   UNL     1       8.034   7.011  18.210  0.00  0.00    +0.000 C 
ATOM     16  C   UNL     1       7.198   7.521  17.086  0.00  0.00    +0.000 C 
ATOM     17  C   UNL     1       6.090   6.450  16.949  0.00  0.00    +0.000 C 
ENDROOT
TORSDOF 0
ENDMDL
MODEL 6
REMARK VINA RESULT:      -6.8      1.551      3.725
REMARK  Name = 
REMARK  2 active torsions:
REMARK  status: ('A' for Active; 'I' for Inactive)
REMARK    1  A    between atoms: C_6  and  C_7
REMARK    2  A    between atoms: C_13  and  C_14
REMARK                            x       y       z     vdW  Elec       q    Type
REMARK                         _______ _______ _______ _____ _____    ______ ____
ROOT
ATOM      1  C   UNL     1       1.970   3.342  21.463  0.00  0.00    +0.000 C 
ATOM      2  C   UNL     1       1.420   4.135  20.527  0.00  0.00    +0.000 C 
ATOM      3  C   UNL     1       1.133   5.585  20.857  0.00  0.00    +0.000 C 
ATOM      4  C   UNL     1       2.213   6.535  20.337  0.00  0.00    +0.000 C 
ATOM      5  C   UNL     1       2.386   6.454  18.814  0.00  0.00    +0.000 C 
ATOM      6  C   UNL     1       3.295   7.560  18.274  0.00  0.00    +0.000 C 
ATOM      7  C   UNL     1       2.525   8.571  17.433  0.00  0.00    +0.000 C 
ATOM      8  C   UNL     1       4.251   6.826  17.381  0.00  0.00    +0.000 C 
ATOM      9  O   UNL     1       5.194   7.327  16.782  0.00  0.00    +0.000 OA
ATOM     10  O   UNL     1       3.888   5.527  17.272  0.00  0.00    +0.000 OA
ATOM     11  C   UNL     1       3.087   5.164  18.401  0.00  0.00    +0.000 C 
ATOM     12  C   UNL     1       2.117   4.026  18.026  0.00  0.00    +0.000 C 
ATOM     13  C   UNL     1       2.776   2.678  17.798  0.00  0.00    +0.000 C 
ATOM     14  C   UNL     1       4.045   2.485  17.040  0.00  0.00    +0.000 C 
ATOM     15  C   UNL     1       2.037   1.680  18.298  0.00  0.00    +0.000 C 
ATOM     16  C   UNL     1       0.783   2.173  18.936  0.00  0.00    +0.000 C 
ATOM     17  C   UNL     1       1.043   3.689  19.109  0.00  0.00    +0.000 C 
ENDROOT
TORSDOF 0
ENDMDL
MODEL 7
REMARK VINA RESULT:      -6.6      1.538      1.995
REMARK  Name = 
REMARK  2 active torsions:
REMARK  status: ('A' for Active; 'I' for Inactive)
REMARK    1  A    between atoms: C_6  and  C_7
REMARK    2  A    between atoms: C_13  and  C_14
REMARK                            x       y       z     vdW  Elec       q    Type
REMARK                         _______ _______ _______ _____ _____    ______ ____
ROOT
ATOM      1  C   UNL     1       2.044   1.808  18.340  0.00  0.00    +0.000 C 
ATOM      2  C   UNL     1       3.184   2.481  18.572  0.00  0.00    +0.000 C 
ATOM      3  C   UNL     1       4.217   2.597  17.471  0.00  0.00    +0.000 C 
ATOM      4  C   UNL     1       4.145   3.934  16.731  0.00  0.00    +0.000 C 
ATOM      5  C   UNL     1       4.356   5.136  17.662  0.00  0.00    +0.000 C 
ATOM      6  C   UNL     1       4.513   6.447  16.890  0.00  0.00    +0.000 C 
ATOM      7  C   UNL     1       5.927   7.005  16.995  0.00  0.00    +0.000 C 
ATOM      8  C   UNL     1       3.577   7.384  17.594  0.00  0.00    +0.000 C 
ATOM      9  O   UNL     1       3.346   8.541  17.264  0.00  0.00    +0.000 OA
ATOM     10  O   UNL     1       3.062   6.793  18.697  0.00  0.00    +0.000 OA
ATOM     11  C   UNL     1       3.138   5.372  18.550  0.00  0.00    +0.000 C 
ATOM     12  C   UNL     1       3.240   4.696  19.932  0.00  0.00    +0.000 C 
ATOM     13  C   UNL     1       1.971   4.751  20.761  0.00  0.00    +0.000 C 
ATOM     14  C   UNL     1       1.107   5.958  20.890  0.00  0.00    +0.000 C 
ATOM     15  C   UNL     1       1.765   3.602  21.420  0.00  0.00    +0.000 C 
ATOM     16  C   UNL     1       2.836   2.600  21.151  0.00  0.00    +0.000 C 
ATOM     17  C   UNL     1       3.547   3.164  19.897  0.00  0.00    +0.000 C 
ENDROOT
TORSDOF 0
ENDMDL
MODEL 8
REMARK VINA RESULT:      -6.5      2.416      4.509
REMARK  Name = 
REMARK  2 active torsions:
REMARK  status: ('A' for Active; 'I' for Inactive)
REMARK    1  A    between atoms: C_6  and  C_7
REMARK    2  A    between atoms: C_13  and  C_14
REMARK                            x       y       z     vdW  Elec       q    Type
REMARK                         _______ _______ _______ _____ _____    ______ ____
ROOT
ATOM      1  C   UNL     1       5.210   7.173  17.725  0.00  0.00    +0.000 C 
ATOM      2  C   UNL     1       4.180   6.335  17.510  0.00  0.00    +0.000 C 
ATOM      3  C   UNL     1       4.460   4.898  17.126  0.00  0.00    +0.000 C 
ATOM      4  C   UNL     1       4.363   3.940  18.315  0.00  0.00    +0.000 C 
ATOM      5  C   UNL     1       2.979   3.959  18.978  0.00  0.00    +0.000 C 
ATOM      6  C   UNL     1       2.815   2.842  20.010  0.00  0.00    +0.000 C 
ATOM      7  C   UNL     1       1.812   1.788  19.556  0.00  0.00    +0.000 C 
ATOM      8  C   UNL     1       2.253   3.550  21.208  0.00  0.00    +0.000 C 
ATOM      9  O   UNL     1       2.018   3.035  22.294  0.00  0.00    +0.000 OA
ATOM     10  O   UNL     1       1.975   4.839  20.904  0.00  0.00    +0.000 OA
ATOM     11  C   UNL     1       2.764   5.239  19.778  0.00  0.00    +0.000 C 
ATOM     12  C   UNL     1       2.043   6.349  18.988  0.00  0.00    +0.000 C 
ATOM     13  C   UNL     1       1.985   7.694  19.689  0.00  0.00    +0.000 C 
ATOM     14  C   UNL     1       1.677   7.870  21.136  0.00  0.00    +0.000 C 
ATOM     15  C   UNL     1       2.173   8.703  18.829  0.00  0.00    +0.000 C 
ATOM     16  C   UNL     1       2.386   8.222  17.434  0.00  0.00    +0.000 C 
ATOM     17  C   UNL     1       2.699   6.718  17.619  0.00  0.00    +0.000 C 
ENDROOT
TORSDOF 0
ENDMDL
MODEL 9
REMARK VINA RESULT:      -6.3      2.087      5.076
REMARK  Name = 
REMARK  2 active torsions:
REMARK  status: ('A' for Active; 'I' for Inactive)
REMARK    1  A    between atoms: C_6  and  C_7
REMARK    2  A    between atoms: C_13  and  C_14
REMARK                            x       y       z     vdW  Elec       q    Type
REMARK                         _______ _______ _______ _____ _____    ______ ____
ROOT
ATOM      1  C   UNL     1       2.472   8.028  17.511  0.00  0.00    +0.000 C 
ATOM      2  C   UNL     1       3.002   7.360  18.550  0.00  0.00    +0.000 C 
ATOM      3  C   UNL     1       2.260   7.328  19.869  0.00  0.00    +0.000 C 
ATOM      4  C   UNL     1       1.463   6.037  20.068  0.00  0.00    +0.000 C 
ATOM      5  C   UNL     1       2.348   4.784  20.029  0.00  0.00    +0.000 C 
ATOM      6  C   UNL     1       1.591   3.526  20.454  0.00  0.00    +0.000 C 
ATOM      7  C   UNL     1       2.088   2.985  21.790  0.00  0.00    +0.000 C 
ATOM      8  C   UNL     1       1.928   2.532  19.382  0.00  0.00    +0.000 C 
ATOM      9  O   UNL     1       1.483   1.394  19.300  0.00  0.00    +0.000 OA
ATOM     10  O   UNL     1       2.854   3.047  18.539  0.00  0.00    +0.000 OA
ATOM     11  C   UNL     1       2.813   4.476  18.609  0.00  0.00    +0.000 C 
ATOM     12  C   UNL     1       4.195   5.068  18.268  0.00  0.00    +0.000 C 
ATOM     13  C   UNL     1       4.598   4.943  16.811  0.00  0.00    +0.000 C 
ATOM     14  C   UNL     1       4.395   3.717  15.989  0.00  0.00    +0.000 C 
ATOM     15  C   UNL     1       5.224   6.045  16.379  0.00  0.00    +0.000 C 
ATOM     16  C   UNL     1       5.345   7.079  17.447  0.00  0.00    +0.000 C 
ATOM     17  C   UNL     1       4.336   6.603  18.520  0.00  0.00    +0.000 C 
ENDROOT
TORSDOF 0
ENDMDL
