MODEL 1
REMARK VINA RESULT:      -8.7      0.000      0.000
REMARK  Name = 
REMARK  9 active torsions:
REMARK  status: ('A' for Active; 'I' for Inactive)
REMARK    1  A    between atoms: P_2  and  O_3
REMARK    2  A    between atoms: P_2  and  O_4
REMARK    3  A    between atoms: P_2  and  C_5
REMARK    4  A    between atoms: C_5  and  N_6
REMARK    5  A    between atoms: N_6  and  C_7
REMARK    6  A    between atoms: C_7  and  C_8
REMARK    7  A    between atoms: C_7  and  C_13
REMARK    8  A    between atoms: C_13  and  C_14
REMARK    9  A    between atoms: C_13  and  C_20
REMARK                            x       y       z     vdW  Elec       q    Type
REMARK                         _______ _______ _______ _____ _____    ______ ____
ROOT
ATOM      1  C   UNL     1       4.266   6.384  18.011  0.00  0.00    +0.000 C 
ENDROOT
BRANCH   1   2
ATOM      2  C   UNL     1       4.830   5.809  16.725  0.00  0.00    +0.000 A 
ATOM      3  N   UNL     1       4.634   4.590  16.247  0.00  0.00    +0.000 NA
ATOM      4  N   UNL     1       5.346   4.498  15.079  0.00  0.00    +0.000 NA
ATOM      5  N   UNL     1       6.019   5.613  14.851  0.00  0.00    +0.000 NA
ATOM      6  N   UNL     1       5.702   6.422  15.869  0.00  0.00    +0.000 N 
ATOM      7  H   UNL     1       6.131   7.332  15.904  0.00  0.00    +0.000 HD
ENDBRANCH   1   2
BRANCH   1   8
ATOM      8  N   UNL     1       4.822   5.730  19.222  0.00  0.00    +0.000 NA
ATOM      9  H   UNL     1       5.235   6.451  19.823  0.00  0.00    +0.000 HD
BRANCH   8  10
ATOM     10  C   UNL     1       5.849   4.693  19.016  0.00  0.00    +0.000 C 
BRANCH  10  12
ATOM     11  O   UNL     1       7.660   6.803  18.393  0.00  0.00    +0.000 OA
ATOM     12  P   UNL     1       7.472   5.446  18.984  0.00  0.00    +0.000 P 
BRANCH  12  13
ATOM     13  O   UNL     1       8.460   4.355  18.351  0.00  0.00    +0.000 OA
ATOM     14  H   UNL     1       8.365   3.468  18.741  0.00  0.00    +0.000 HD
ENDBRANCH  12  13
BRANCH  12  15
ATOM     15  O   UNL     1       7.962   5.434  20.516  0.00  0.00    +0.000 OA
ATOM     16  H   UNL     1       8.930   5.508  20.598  0.00  0.00    +0.000 HD
ENDBRANCH  12  15
ENDBRANCH  10  12
ENDBRANCH   8  10
ENDBRANCH   1   8
BRANCH   1  17
ATOM     17  C   UNL     1       2.661   6.409  18.067  0.00  0.00    +0.000 C 
BRANCH  17  18
ATOM     18  C   UNL     1       2.079   5.137  18.723  0.00  0.00    +0.000 A 
ATOM     19  C   UNL     1       1.901   5.056  20.115  0.00  0.00    +0.000 A 
ATOM     20  C   UNL     1       1.358   3.918  20.710  0.00  0.00    +0.000 A 
ATOM     21  C   UNL     1       0.986   2.836  19.921  0.00  0.00    +0.000 A 
ATOM     22  C   UNL     1       1.121   2.908  18.535  0.00  0.00    +0.000 A 
ATOM     23  C   UNL     1       1.639   4.058  17.936  0.00  0.00    +0.000 A 
ENDBRANCH  17  18
BRANCH  17  24
ATOM     24  C   UNL     1       2.028   7.693  18.663  0.00  0.00    +0.000 A 
ATOM     25  C   UNL     1       1.808   7.859  20.039  0.00  0.00    +0.000 A 
ATOM     26  C   UNL     1       1.199   9.018  20.542  0.00  0.00    +0.000 A 
ATOM     27  C   UNL     1       0.818  10.044  19.682  0.00  0.00    +0.000 A 
ATOM     28  C   UNL     1       1.080   9.933  18.324  0.00  0.00    +0.000 A 
ATOM     29  C   UNL     1       1.693   8.780  17.826  0.00  0.00    +0.000 A 
ENDBRANCH  17  24
ENDBRANCH   1  17
TORSDOF 9
ENDMDL
MODEL 2
REMARK VINA RESULT:      -8.5      0.097      1.200
REMARK  Name = 
REMARK  9 active torsions:
REMARK  status: ('A' for Active; 'I' for Inactive)
REMARK    1  A    between atoms: P_2  and  O_3
REMARK    2  A    between atoms: P_2  and  O_4
REMARK    3  A    between atoms: P_2  and  C_5
REMARK    4  A    between atoms: C_5  and  N_6
REMARK    5  A    between atoms: N_6  and  C_7
REMARK    6  A    between atoms: C_7  and  C_8
REMARK    7  A    between atoms: C_7  and  C_13
REMARK    8  A    between atoms: C_13  and  C_14
REMARK    9  A    between atoms: C_13  and  C_20
REMARK                            x       y       z     vdW  Elec       q    Type
REMARK                         _______ _______ _______ _____ _____    ______ ____
ROOT
ATOM      1  C   UNL     1       4.302   6.446  17.966  0.00  0.00    +0.000 C 
ENDROOT
BRANCH   1   2
ATOM      2  C   UNL     1       4.879   5.843  16.698  0.00  0.00    +0.000 A 
ATOM      3  N   UNL     1       5.602   6.465  15.781  0.00  0.00    +0.000 NA
ATOM      4  N   UNL     1       5.890   5.545  14.805  0.00  0.00    +0.000 NA
ATOM      5  N   UNL     1       5.317   4.384  15.072  0.00  0.00    +0.000 NA
ATOM      6  N   UNL     1       4.691   4.569  16.240  0.00  0.00    +0.000 N 
ATOM      7  H   UNL     1       4.163   3.801  16.622  0.00  0.00    +0.000 HD
ENDBRANCH   1   2
BRANCH   1   8
ATOM      8  N   UNL     1       4.858   5.831  19.196  0.00  0.00    +0.000 NA
ATOM      9  H   UNL     1       5.293   6.567  19.763  0.00  0.00    +0.000 HD
BRANCH   8  10
ATOM     10  C   UNL     1       5.860   4.763  19.022  0.00  0.00    +0.000 C 
BRANCH  10  12
ATOM     11  O   UNL     1       7.704   6.867  18.480  0.00  0.00    +0.000 OA
ATOM     12  P   UNL     1       7.501   5.476  18.978  0.00  0.00    +0.000 P 
BRANCH  12  13
ATOM     13  O   UNL     1       8.432   4.409  18.226  0.00  0.00    +0.000 OA
ATOM     14  H   UNL     1       9.384   4.553  18.368  0.00  0.00    +0.000 HD
ENDBRANCH  12  13
BRANCH  12  15
ATOM     15  O   UNL     1       8.050   5.338  20.484  0.00  0.00    +0.000 OA
ATOM     16  H   UNL     1       8.391   4.444  20.675  0.00  0.00    +0.000 HD
ENDBRANCH  12  15
ENDBRANCH  10  12
ENDBRANCH   8  10
ENDBRANCH   1   8
BRANCH   1  17
ATOM     17  C   UNL     1       2.696   6.457  18.012  0.00  0.00    +0.000 C 
BRANCH  17  18
ATOM     18  C   UNL     1       2.123   5.190  18.685  0.00  0.00    +0.000 A 
ATOM     19  C   UNL     1       1.981   5.113  20.082  0.00  0.00    +0.000 A 
ATOM     20  C   UNL     1       1.445   3.979  20.692  0.00  0.00    +0.000 A 
ATOM     21  C   UNL     1       1.045   2.899  19.915  0.00  0.00    +0.000 A 
ATOM     22  C   UNL     1       1.144   2.968  18.526  0.00  0.00    +0.000 A 
ATOM     23  C   UNL     1       1.655   4.113  17.912  0.00  0.00    +0.000 A 
ENDBRANCH  17  18
BRANCH  17  24
ATOM     24  C   UNL     1       2.049   7.745  18.584  0.00  0.00    +0.000 A 
ATOM     25  C   UNL     1       1.672   8.827  17.773  0.00  0.00    +0.000 A 
ATOM     26  C   UNL     1       1.123   9.992  18.327  0.00  0.00    +0.000 A 
ATOM     27  C   UNL     1       0.921  10.093  19.700  0.00  0.00    +0.000 A 
ATOM     28  C   UNL     1       1.228   9.016  20.519  0.00  0.00    +0.000 A 
ATOM     29  C   UNL     1       1.768   7.852  19.964  0.00  0.00    +0.000 A 
ENDBRANCH  17  24
ENDBRANCH   1  17
TORSDOF 9
ENDMDL
MODEL 3
REMARK VINA RESULT:      -8.4      0.554      1.608
REMARK  Name = 
REMARK  9 active torsions:
REMARK  status: ('A' for Active; 'I' for Inactive)
REMARK    1  A    between atoms: P_2  and  O_3
REMARK    2  A    between atoms: P_2  and  O_4
REMARK    3  A    between atoms: P_2  and  C_5
REMARK    4  A    between atoms: C_5  and  N_6
REMARK    5  A    between atoms: N_6  and  C_7
REMARK    6  A    between atoms: C_7  and  C_8
REMARK    7  A    between atoms: C_7  and  C_13
REMARK    8  A    between atoms: C_13  and  C_14
REMARK    9  A    between atoms: C_13  and  C_20
REMARK                            x       y       z     vdW  Elec       q    Type
REMARK                         _______ _______ _______ _____ _____    ______ ____
ROOT
ATOM      1  C   UNL     1       4.421   5.914  17.861  0.00  0.00    +0.000 C 
ENDROOT
BRANCH   1   2
ATOM      2  C   UNL     1       4.962   5.694  16.461  0.00  0.00    +0.000 A 
ATOM      3  N   UNL     1       5.239   6.624  15.561  0.00  0.00    +0.000 NA
ATOM      4  N   UNL     1       5.682   5.976  14.437  0.00  0.00    +0.000 NA
ATOM      5  N   UNL     1       5.636   4.666  14.602  0.00  0.00    +0.000 NA
ATOM      6  N   UNL     1       5.189   4.491  15.851  0.00  0.00    +0.000 N 
ATOM      7  H   UNL     1       5.056   3.548  16.181  0.00  0.00    +0.000 HD
ENDBRANCH   1   2
BRANCH   1   8
ATOM      8  N   UNL     1       4.906   4.898  18.828  0.00  0.00    +0.000 NA
ATOM      9  H   UNL     1       4.107   4.561  19.376  0.00  0.00    +0.000 HD
BRANCH   8  10
ATOM     10  C   UNL     1       5.946   5.319  19.783  0.00  0.00    +0.000 C 
BRANCH  10  12
ATOM     11  O   UNL     1       7.806   6.815  18.227  0.00  0.00    +0.000 OA
ATOM     12  P   UNL     1       7.503   5.533  18.927  0.00  0.00    +0.000 P 
BRANCH  12  13
ATOM     13  O   UNL     1       7.669   4.256  17.975  0.00  0.00    +0.000 OA
ATOM     14  H   UNL     1       7.484   4.440  17.037  0.00  0.00    +0.000 HD
ENDBRANCH  12  13
BRANCH  12  15
ATOM     15  O   UNL     1       8.627   5.224  20.035  0.00  0.00    +0.000 OA
ATOM     16  H   UNL     1       9.188   4.464  19.794  0.00  0.00    +0.000 HD
ENDBRANCH  12  15
ENDBRANCH  10  12
ENDBRANCH   8  10
ENDBRANCH   1   8
BRANCH   1  17
ATOM     17  C   UNL     1       2.821   6.046  17.930  0.00  0.00    +0.000 C 
BRANCH  17  18
ATOM     18  C   UNL     1       2.170   4.868  18.688  0.00  0.00    +0.000 A 
ATOM     19  C   UNL     1       1.619   3.775  17.995  0.00  0.00    +0.000 A 
ATOM     20  C   UNL     1       1.048   2.701  18.676  0.00  0.00    +0.000 A 
ATOM     21  C   UNL     1       1.014   2.702  20.065  0.00  0.00    +0.000 A 
ATOM     22  C   UNL     1       1.586   3.758  20.773  0.00  0.00    +0.000 A 
ATOM     23  C   UNL     1       2.182   4.822  20.094  0.00  0.00    +0.000 A 
ENDBRANCH  17  18
BRANCH  17  24
ATOM     24  C   UNL     1       2.280   7.410  18.431  0.00  0.00    +0.000 A 
ATOM     25  C   UNL     1       2.136   8.523  17.588  0.00  0.00    +0.000 A 
ATOM     26  C   UNL     1       1.678   9.753  18.081  0.00  0.00    +0.000 A 
ATOM     27  C   UNL     1       1.336   9.891  19.423  0.00  0.00    +0.000 A 
ATOM     28  C   UNL     1       1.412   8.792  20.266  0.00  0.00    +0.000 A 
ATOM     29  C   UNL     1       1.860   7.565  19.771  0.00  0.00    +0.000 A 
ENDBRANCH  17  24
ENDBRANCH   1  17
TORSDOF 9
ENDMDL
MODEL 4
REMARK VINA RESULT:      -8.3      1.978      4.341
REMARK  Name = 
REMARK  9 active torsions:
REMARK  status: ('A' for Active; 'I' for Inactive)
REMARK    1  A    between atoms: P_2  and  O_3
REMARK    2  A    between atoms: P_2  and  O_4
REMARK    3  A    between atoms: P_2  and  C_5
REMARK    4  A    between atoms: C_5  and  N_6
REMARK    5  A    between atoms: N_6  and  C_7
REMARK    6  A    between atoms: C_7  and  C_8
REMARK    7  A    between atoms: C_7  and  C_13
REMARK    8  A    between atoms: C_13  and  C_14
REMARK    9  A    between atoms: C_13  and  C_20
REMARK                            x       y       z     vdW  Elec       q    Type
REMARK                         _______ _______ _______ _____ _____    ______ ____
ROOT
ATOM      1  C   UNL     1       3.858   5.384  17.925  0.00  0.00    +0.000 C 
ENDROOT
BRANCH   1   2
ATOM      2  C   UNL     1       3.558   3.937  17.579  0.00  0.00    +0.000 A 
ATOM      3  N   UNL     1       2.509   3.482  16.911  0.00  0.00    +0.000 NA
ATOM      4  N   UNL     1       2.635   2.118  16.849  0.00  0.00    +0.000 NA
ATOM      5  N   UNL     1       3.708   1.715  17.507  0.00  0.00    +0.000 NA
ATOM      6  N   UNL     1       4.277   2.839  17.960  0.00  0.00    +0.000 N 
ATOM      7  H   UNL     1       5.112   2.757  18.518  0.00  0.00    +0.000 HD
ENDBRANCH   1   2
BRANCH   1   8
ATOM      8  N   UNL     1       5.303   5.707  17.827  0.00  0.00    +0.000 NA
ATOM      9  H   UNL     1       5.517   6.456  18.494  0.00  0.00    +0.000 HD
BRANCH   8  10
ATOM     10  C   UNL     1       5.809   6.136  16.511  0.00  0.00    +0.000 C 
BRANCH  10  12
ATOM     11  O   UNL     1       7.685   5.156  14.602  0.00  0.00    +0.000 OA
ATOM     12  P   UNL     1       6.912   4.891  15.850  0.00  0.00    +0.000 P 
BRANCH  12  13
ATOM     13  O   UNL     1       6.060   3.536  15.773  0.00  0.00    +0.000 OA
ATOM     14  H   UNL     1       5.290   3.523  16.367  0.00  0.00    +0.000 HD
ENDBRANCH  12  13
BRANCH  12  15
ATOM     15  O   UNL     1       7.911   4.543  17.062  0.00  0.00    +0.000 OA
ATOM     16  H   UNL     1       8.835   4.446  16.765  0.00  0.00    +0.000 HD
ENDBRANCH  12  15
ENDBRANCH  10  12
ENDBRANCH   8  10
ENDBRANCH   1   8
BRANCH   1  17
ATOM     17  C   UNL     1       3.267   5.853  19.344  0.00  0.00    +0.000 C 
BRANCH  17  18
ATOM     18  C   UNL     1       2.451   7.160  19.234  0.00  0.00    +0.000 A 
ATOM     19  C   UNL     1       1.838   7.729  20.364  0.00  0.00    +0.000 A 
ATOM     20  C   UNL     1       1.117   8.919  20.272  0.00  0.00    +0.000 A 
ATOM     21  C   UNL     1       0.994   9.561  19.046  0.00  0.00    +0.000 A 
ATOM     22  C   UNL     1       1.623   9.033  17.919  0.00  0.00    +0.000 A 
ATOM     23  C   UNL     1       2.368   7.856  18.014  0.00  0.00    +0.000 A 
ENDBRANCH  17  18
BRANCH  17  24
ATOM     24  C   UNL     1       2.495   4.769  20.141  0.00  0.00    +0.000 A 
ATOM     25  C   UNL     1       3.000   4.190  21.316  0.00  0.00    +0.000 A 
ATOM     26  C   UNL     1       2.294   3.186  21.993  0.00  0.00    +0.000 A 
ATOM     27  C   UNL     1       1.057   2.755  21.522  0.00  0.00    +0.000 A 
ATOM     28  C   UNL     1       0.506   3.352  20.397  0.00  0.00    +0.000 A 
ATOM     29  C   UNL     1       1.208   4.358  19.729  0.00  0.00    +0.000 A 
ENDBRANCH  17  24
ENDBRANCH   1  17
TORSDOF 9
ENDMDL
MODEL 5
REMARK VINA RESULT:      -8.3      1.938      4.443
REMARK  Name = 
REMARK  9 active torsions:
REMARK  status: ('A' for Active; 'I' for Inactive)
REMARK    1  A    between atoms: P_2  and  O_3
REMARK    2  A    between atoms: P_2  and  O_4
REMARK    3  A    between atoms: P_2  and  C_5
REMARK    4  A    between atoms: C_5  and  N_6
REMARK    5  A    between atoms: N_6  and  C_7
REMARK    6  A    between atoms: C_7  and  C_8
REMARK    7  A    between atoms: C_7  and  C_13
REMARK    8  A    between atoms: C_13  and  C_14
REMARK    9  A    between atoms: C_13  and  C_20
REMARK                            x       y       z     vdW  Elec       q    Type
REMARK                         _______ _______ _______ _____ _____    ______ ____
ROOT
ATOM      1  C   UNL     1       3.765   5.486  17.886  0.00  0.00    +0.000 C 
ENDROOT
BRANCH   1   2
ATOM      2  C   UNL     1       3.530   4.030  17.529  0.00  0.00    +0.000 A 
ATOM      3  N   UNL     1       2.508   3.534  16.850  0.00  0.00    +0.000 NA
ATOM      4  N   UNL     1       2.692   2.177  16.781  0.00  0.00    +0.000 NA
ATOM      5  N   UNL     1       3.776   1.816  17.446  0.00  0.00    +0.000 NA
ATOM      6  N   UNL     1       4.292   2.961  17.910  0.00  0.00    +0.000 N 
ATOM      7  H   UNL     1       5.126   2.912  18.474  0.00  0.00    +0.000 HD
ENDBRANCH   1   2
BRANCH   1   8
ATOM      8  N   UNL     1       5.188   5.885  17.749  0.00  0.00    +0.000 NA
ATOM      9  H   UNL     1       5.325   6.778  18.234  0.00  0.00    +0.000 HD
BRANCH   8  10
ATOM     10  C   UNL     1       5.715   6.044  16.382  0.00  0.00    +0.000 C 
BRANCH  10  12
ATOM     11  O   UNL     1       7.972   4.460  17.099  0.00  0.00    +0.000 OA
ATOM     12  P   UNL     1       6.953   4.793  16.061  0.00  0.00    +0.000 P 
BRANCH  12  13
ATOM     13  O   UNL     1       7.611   5.166  14.648  0.00  0.00    +0.000 OA
ATOM     14  H   UNL     1       7.673   4.413  14.035  0.00  0.00    +0.000 HD
ENDBRANCH  12  13
BRANCH  12  15
ATOM     15  O   UNL     1       6.117   3.479  15.660  0.00  0.00    +0.000 OA
ATOM     16  H   UNL     1       5.492   3.209  16.358  0.00  0.00    +0.000 HD
ENDBRANCH  12  15
ENDBRANCH  10  12
ENDBRANCH   8  10
ENDBRANCH   1   8
BRANCH   1  17
ATOM     17  C   UNL     1       3.193   5.906  19.327  0.00  0.00    +0.000 C 
BRANCH  17  18
ATOM     18  C   UNL     1       2.371   7.213  19.271  0.00  0.00    +0.000 A 
ATOM     19  C   UNL     1       1.777   7.745  20.429  0.00  0.00    +0.000 A 
ATOM     20  C   UNL     1       1.051   8.935  20.387  0.00  0.00    +0.000 A 
ATOM     21  C   UNL     1       0.902   9.612  19.183  0.00  0.00    +0.000 A 
ATOM     22  C   UNL     1       1.512   9.120  18.029  0.00  0.00    +0.000 A 
ATOM     23  C   UNL     1       2.263   7.944  18.075  0.00  0.00    +0.000 A 
ENDBRANCH  17  18
BRANCH  17  24
ATOM     24  C   UNL     1       2.437   4.794  20.100  0.00  0.00    +0.000 A 
ATOM     25  C   UNL     1       1.167   4.336  19.717  0.00  0.00    +0.000 A 
ATOM     26  C   UNL     1       0.494   3.355  20.459  0.00  0.00    +0.000 A 
ATOM     27  C   UNL     1       1.085   2.797  21.588  0.00  0.00    +0.000 A 
ATOM     28  C   UNL     1       2.365   3.187  21.956  0.00  0.00    +0.000 A 
ATOM     29  C   UNL     1       3.037   4.159  21.209  0.00  0.00    +0.000 A 
ENDBRANCH  17  24
ENDBRANCH   1  17
TORSDOF 9
ENDMDL
MODEL 6
REMARK VINA RESULT:      -8.3      2.799      4.730
REMARK  Name = 
REMARK  9 active torsions:
REMARK  status: ('A' for Active; 'I' for Inactive)
REMARK    1  A    between atoms: P_2  and  O_3
REMARK    2  A    between atoms: P_2  and  O_4
REMARK    3  A    between atoms: P_2  and  C_5
REMARK    4  A    between atoms: C_5  and  N_6
REMARK    5  A    between atoms: N_6  and  C_7
REMARK    6  A    between atoms: C_7  and  C_8
REMARK    7  A    between atoms: C_7  and  C_13
REMARK    8  A    between atoms: C_13  and  C_14
REMARK    9  A    between atoms: C_13  and  C_20
REMARK                            x       y       z     vdW  Elec       q    Type
REMARK                         _______ _______ _______ _____ _____    ______ ____
ROOT
ATOM      1  C   UNL     1       3.496   4.524  17.549  0.00  0.00    +0.000 C 
ENDROOT
BRANCH   1   2
ATOM      2  C   UNL     1       2.471   3.521  18.045  0.00  0.00    +0.000 A 
ATOM      3  N   UNL     1       1.166   3.546  17.826  0.00  0.00    +0.000 NA
ATOM      4  N   UNL     1       0.629   2.464  18.474  0.00  0.00    +0.000 NA
ATOM      5  N   UNL     1       1.564   1.800  19.132  0.00  0.00    +0.000 NA
ATOM      6  N   UNL     1       2.701   2.455  18.869  0.00  0.00    +0.000 N 
ATOM      7  H   UNL     1       3.551   2.123  19.297  0.00  0.00    +0.000 HD
ENDBRANCH   1   2
BRANCH   1   8
ATOM      8  N   UNL     1       4.697   3.874  16.967  0.00  0.00    +0.000 NA
ATOM      9  H   UNL     1       5.533   4.339  17.335  0.00  0.00    +0.000 HD
BRANCH   8  10
ATOM     10  C   UNL     1       4.812   3.866  15.497  0.00  0.00    +0.000 C 
BRANCH  10  12
ATOM     11  O   UNL     1       7.596   4.245  15.976  0.00  0.00    +0.000 OA
ATOM     12  P   UNL     1       6.460   4.374  15.017  0.00  0.00    +0.000 P 
BRANCH  12  13
ATOM     13  O   UNL     1       6.317   5.856  14.425  0.00  0.00    +0.000 OA
ATOM     14  H   UNL     1       5.438   6.045  14.052  0.00  0.00    +0.000 HD
ENDBRANCH  12  13
BRANCH  12  15
ATOM     15  O   UNL     1       6.770   3.547  13.673  0.00  0.00    +0.000 OA
ATOM     16  H   UNL     1       6.355   2.665  13.675  0.00  0.00    +0.000 HD
ENDBRANCH  12  15
ENDBRANCH  10  12
ENDBRANCH   8  10
ENDBRANCH   1   8
BRANCH   1  17
ATOM     17  C   UNL     1       3.920   5.621  18.644  0.00  0.00    +0.000 C 
BRANCH  17  18
ATOM     18  C   UNL     1       5.401   6.039  18.510  0.00  0.00    +0.000 A 
ATOM     19  C   UNL     1       5.790   7.055  17.619  0.00  0.00    +0.000 A 
ATOM     20  C   UNL     1       7.122   7.448  17.509  0.00  0.00    +0.000 A 
ATOM     21  C   UNL     1       8.093   6.829  18.287  0.00  0.00    +0.000 A 
ATOM     22  C   UNL     1       7.725   5.844  19.202  0.00  0.00    +0.000 A 
ATOM     23  C   UNL     1       6.387   5.468  19.333  0.00  0.00    +0.000 A 
ENDBRANCH  17  18
BRANCH  17  24
ATOM     24  C   UNL     1       2.990   6.857  18.751  0.00  0.00    +0.000 A 
ATOM     25  C   UNL     1       2.739   7.711  17.666  0.00  0.00    +0.000 A 
ATOM     26  C   UNL     1       1.923   8.843  17.805  0.00  0.00    +0.000 A 
ATOM     27  C   UNL     1       1.323   9.132  19.027  0.00  0.00    +0.000 A 
ATOM     28  C   UNL     1       1.504   8.272  20.101  0.00  0.00    +0.000 A 
ATOM     29  C   UNL     1       2.312   7.141  19.957  0.00  0.00    +0.000 A 
ENDBRANCH  17  24
ENDBRANCH   1  17
TORSDOF 9
ENDMDL
MODEL 7
REMARK VINA RESULT:      -8.3      2.765      4.516
REMARK  Name = 
REMARK  9 active torsions:
REMARK  status: ('A' for Active; 'I' for Inactive)
REMARK    1  A    between atoms: P_2  and  O_3
REMARK    2  A    between atoms: P_2  and  O_4
REMARK    3  A    between atoms: P_2  and  C_5
REMARK    4  A    between atoms: C_5  and  N_6
REMARK    5  A    between atoms: N_6  and  C_7
REMARK    6  A    between atoms: C_7  and  C_8
REMARK    7  A    between atoms: C_7  and  C_13
REMARK    8  A    between atoms: C_13  and  C_14
REMARK    9  A    between atoms: C_13  and  C_20
REMARK                            x       y       z     vdW  Elec       q    Type
REMARK                         _______ _______ _______ _____ _____    ______ ____
ROOT
ATOM      1  C   UNL     1       3.332   4.641  17.489  0.00  0.00    +0.000 C 
ENDROOT
BRANCH   1   2
ATOM      2  C   UNL     1       2.410   3.555  18.012  0.00  0.00    +0.000 A 
ATOM      3  N   UNL     1       1.116   3.427  17.767  0.00  0.00    +0.000 NA
ATOM      4  N   UNL     1       0.685   2.322  18.455  0.00  0.00    +0.000 NA
ATOM      5  N   UNL     1       1.670   1.794  19.159  0.00  0.00    +0.000 NA
ATOM      6  N   UNL     1       2.736   2.557  18.887  0.00  0.00    +0.000 N 
ATOM      7  H   UNL     1       3.606   2.339  19.346  0.00  0.00    +0.000 HD
ENDBRANCH   1   2
BRANCH   1   8
ATOM      8  N   UNL     1       4.497   4.096  16.750  0.00  0.00    +0.000 NA
ATOM      9  H   UNL     1       5.354   4.351  17.253  0.00  0.00    +0.000 HD
BRANCH   8  10
ATOM     10  C   UNL     1       4.668   4.525  15.350  0.00  0.00    +0.000 C 
BRANCH  10  12
ATOM     11  O   UNL     1       7.145   5.613  14.454  0.00  0.00    +0.000 OA
ATOM     12  P   UNL     1       6.391   4.399  14.884  0.00  0.00    +0.000 P 
BRANCH  12  13
ATOM     13  O   UNL     1       6.480   3.208  13.817  0.00  0.00    +0.000 OA
ATOM     14  H   UNL     1       7.136   2.525  14.046  0.00  0.00    +0.000 HD
ENDBRANCH  12  13
BRANCH  12  15
ATOM     15  O   UNL     1       7.111   3.716  16.150  0.00  0.00    +0.000 OA
ATOM     16  H   UNL     1       7.575   4.366  16.709  0.00  0.00    +0.000 HD
ENDBRANCH  12  15
ENDBRANCH  10  12
ENDBRANCH   8  10
ENDBRANCH   1   8
BRANCH   1  17
ATOM     17  C   UNL     1       3.811   5.687  18.611  0.00  0.00    +0.000 C 
BRANCH  17  18
ATOM     18  C   UNL     1       5.304   6.055  18.468  0.00  0.00    +0.000 A 
ATOM     19  C   UNL     1       5.721   7.060  17.577  0.00  0.00    +0.000 A 
ATOM     20  C   UNL     1       7.065   7.409  17.458  0.00  0.00    +0.000 A 
ATOM     21  C   UNL     1       8.020   6.755  18.228  0.00  0.00    +0.000 A 
ATOM     22  C   UNL     1       7.625   5.780  19.143  0.00  0.00    +0.000 A 
ATOM     23  C   UNL     1       6.276   5.448  19.283  0.00  0.00    +0.000 A 
ENDBRANCH  17  18
BRANCH  17  24
ATOM     24  C   UNL     1       2.928   6.952  18.771  0.00  0.00    +0.000 A 
ATOM     25  C   UNL     1       2.273   7.271  19.971  0.00  0.00    +0.000 A 
ATOM     26  C   UNL     1       1.452   8.403  20.071  0.00  0.00    +0.000 A 
ATOM     27  C   UNL     1       1.286   9.252  18.980  0.00  0.00    +0.000 A 
ATOM     28  C   UNL     1       1.970   8.994  17.801  0.00  0.00    +0.000 A 
ATOM     29  C   UNL     1       2.793   7.869  17.706  0.00  0.00    +0.000 A 
ENDBRANCH  17  24
ENDBRANCH   1  17
TORSDOF 9
ENDMDL
MODEL 8
REMARK VINA RESULT:      -8.3      2.005      4.559
REMARK  Name = 
REMARK  9 active torsions:
REMARK  status: ('A' for Active; 'I' for Inactive)
REMARK    1  A    between atoms: P_2  and  O_3
REMARK    2  A    between atoms: P_2  and  O_4
REMARK    3  A    between atoms: P_2  and  C_5
REMARK    4  A    between atoms: C_5  and  N_6
REMARK    5  A    between atoms: N_6  and  C_7
REMARK    6  A    between atoms: C_7  and  C_8
REMARK    7  A    between atoms: C_7  and  C_13
REMARK    8  A    between atoms: C_13  and  C_14
REMARK    9  A    between atoms: C_13  and  C_20
REMARK                            x       y       z     vdW  Elec       q    Type
REMARK                         _______ _______ _______ _____ _____    ______ ____
ROOT
ATOM      1  C   UNL     1       3.870   5.418  17.873  0.00  0.00    +0.000 C 
ENDROOT
BRANCH   1   2
ATOM      2  C   UNL     1       3.583   3.973  17.511  0.00  0.00    +0.000 A 
ATOM      3  N   UNL     1       2.522   3.511  16.870  0.00  0.00    +0.000 NA
ATOM      4  N   UNL     1       2.669   2.150  16.779  0.00  0.00    +0.000 NA
ATOM      5  N   UNL     1       3.770   1.756  17.394  0.00  0.00    +0.000 NA
ATOM      6  N   UNL     1       4.334   2.881  17.848  0.00  0.00    +0.000 N 
ATOM      7  H   UNL     1       5.188   2.805  18.376  0.00  0.00    +0.000 HD
ENDBRANCH   1   2
BRANCH   1   8
ATOM      8  N   UNL     1       5.311   5.759  17.771  0.00  0.00    +0.000 NA
ATOM      9  H   UNL     1       5.506   6.547  18.396  0.00  0.00    +0.000 HD
BRANCH   8  10
ATOM     10  C   UNL     1       5.824   6.121  16.437  0.00  0.00    +0.000 C 
BRANCH  10  12
ATOM     11  O   UNL     1       6.130   3.543  15.262  0.00  0.00    +0.000 OA
ATOM     12  P   UNL     1       6.799   4.773  15.777  0.00  0.00    +0.000 P 
BRANCH  12  13
ATOM     13  O   UNL     1       7.920   4.452  16.876  0.00  0.00    +0.000 OA
ATOM     14  H   UNL     1       8.830   4.534  16.542  0.00  0.00    +0.000 HD
ENDBRANCH  12  13
BRANCH  12  15
ATOM     15  O   UNL     1       7.699   5.442  14.624  0.00  0.00    +0.000 OA
ATOM     16  H   UNL     1       7.787   4.868  13.842  0.00  0.00    +0.000 HD
ENDBRANCH  12  15
ENDBRANCH  10  12
ENDBRANCH   8  10
ENDBRANCH   1   8
BRANCH   1  17
ATOM     17  C   UNL     1       3.282   5.863  19.301  0.00  0.00    +0.000 C 
BRANCH  17  18
ATOM     18  C   UNL     1       2.484   7.184  19.218  0.00  0.00    +0.000 A 
ATOM     19  C   UNL     1       2.328   7.862  17.996  0.00  0.00    +0.000 A 
ATOM     20  C   UNL     1       1.593   9.043  17.914  0.00  0.00    +0.000 A 
ATOM     21  C   UNL     1       1.002   9.571  19.056  0.00  0.00    +0.000 A 
ATOM     22  C   UNL     1       1.114   8.897  20.271  0.00  0.00    +0.000 A 
ATOM     23  C   UNL     1       1.827   7.699  20.350  0.00  0.00    +0.000 A 
ENDBRANCH  17  18
BRANCH  17  24
ATOM     24  C   UNL     1       2.494   4.773  20.072  0.00  0.00    +0.000 A 
ATOM     25  C   UNL     1       1.208   4.358  19.693  0.00  0.00    +0.000 A 
ATOM     26  C   UNL     1       0.507   3.396  20.434  0.00  0.00    +0.000 A 
ATOM     27  C   UNL     1       1.085   2.813  21.558  0.00  0.00    +0.000 A 
ATOM     28  C   UNL     1       2.378   3.160  21.921  0.00  0.00    +0.000 A 
ATOM     29  C   UNL     1       3.078   4.113  21.176  0.00  0.00    +0.000 A 
ENDBRANCH  17  24
ENDBRANCH   1  17
TORSDOF 9
ENDMDL
MODEL 9
REMARK VINA RESULT:      -8.2      0.360      1.380
REMARK  Name = 
REMARK  9 active torsions:
REMARK  status: ('A' for Active; 'I' for Inactive)
REMARK    1  A    between atoms: P_2  and  O_3
REMARK    2  A    between atoms: P_2  and  O_4
REMARK    3  A    between atoms: P_2  and  C_5
REMARK    4  A    between atoms: C_5  and  N_6
REMARK    5  A    between atoms: N_6  and  C_7
REMARK    6  A    between atoms: C_7  and  C_8
REMARK    7  A    between atoms: C_7  and  C_13
REMARK    8  A    between atoms: C_13  and  C_14
REMARK    9  A    between atoms: C_13  and  C_20
REMARK                            x       y       z     vdW  Elec       q    Type
REMARK                         _______ _______ _______ _____ _____    ______ ____
ROOT
ATOM      1  C   UNL     1       4.305   6.434  17.886  0.00  0.00    +0.000 C 
ENDROOT
BRANCH   1   2
ATOM      2  C   UNL     1       4.857   5.770  16.638  0.00  0.00    +0.000 A 
ATOM      3  N   UNL     1       4.692   4.509  16.270  0.00  0.00    +0.000 NA
ATOM      4  N   UNL     1       5.378   4.340  15.095  0.00  0.00    +0.000 NA
ATOM      5  N   UNL     1       6.006   5.453  14.755  0.00  0.00    +0.000 NA
ATOM      6  N   UNL     1       5.686   6.335  15.709  0.00  0.00    +0.000 N 
ATOM      7  H   UNL     1       6.084   7.259  15.655  0.00  0.00    +0.000 HD
ENDBRANCH   1   2
BRANCH   1   8
ATOM      8  N   UNL     1       4.895   5.888  19.133  0.00  0.00    +0.000 NA
ATOM      9  H   UNL     1       5.428   6.632  19.596  0.00  0.00    +0.000 HD
BRANCH   8  10
ATOM     10  C   UNL     1       5.790   4.724  19.002  0.00  0.00    +0.000 C 
BRANCH  10  12
ATOM     11  O   UNL     1       8.533   5.009  19.722  0.00  0.00    +0.000 OA
ATOM     12  P   UNL     1       7.467   5.281  18.714  0.00  0.00    +0.000 P 
BRANCH  12  13
ATOM     13  O   UNL     1       7.363   6.832  18.328  0.00  0.00    +0.000 OA
ATOM     14  H   UNL     1       7.887   7.415  18.906  0.00  0.00    +0.000 HD
ENDBRANCH  12  13
BRANCH  12  15
ATOM     15  O   UNL     1       7.871   4.648  17.291  0.00  0.00    +0.000 OA
ATOM     16  H   UNL     1       8.470   5.226  16.784  0.00  0.00    +0.000 HD
ENDBRANCH  12  15
ENDBRANCH  10  12
ENDBRANCH   8  10
ENDBRANCH   1   8
BRANCH   1  17
ATOM     17  C   UNL     1       2.700   6.434  17.969  0.00  0.00    +0.000 C 
BRANCH  17  18
ATOM     18  C   UNL     1       2.151   5.167  18.662  0.00  0.00    +0.000 A 
ATOM     19  C   UNL     1       2.056   5.091  20.063  0.00  0.00    +0.000 A 
ATOM     20  C   UNL     1       1.543   3.957  20.692  0.00  0.00    +0.000 A 
ATOM     21  C   UNL     1       1.118   2.876  19.929  0.00  0.00    +0.000 A 
ATOM     22  C   UNL     1       1.171   2.944  18.538  0.00  0.00    +0.000 A 
ATOM     23  C   UNL     1       1.659   4.089  17.906  0.00  0.00    +0.000 A 
ENDBRANCH  17  18
BRANCH  17  24
ATOM     24  C   UNL     1       2.058   7.721  18.550  0.00  0.00    +0.000 A 
ATOM     25  C   UNL     1       1.671   8.803  17.744  0.00  0.00    +0.000 A 
ATOM     26  C   UNL     1       1.127   9.968  18.304  0.00  0.00    +0.000 A 
ATOM     27  C   UNL     1       0.938  10.066  19.679  0.00  0.00    +0.000 A 
ATOM     28  C   UNL     1       1.255   8.988  20.494  0.00  0.00    +0.000 A 
ATOM     29  C   UNL     1       1.790   7.826  19.932  0.00  0.00    +0.000 A 
ENDBRANCH  17  24
ENDBRANCH   1  17
TORSDOF 9
ENDMDL
