MODEL 1
REMARK VINA RESULT:      -6.2      0.000      0.000
REMARK  Name = 
REMARK  9 active torsions:
REMARK  status: ('A' for Active; 'I' for Inactive)
REMARK    1  A    between atoms: C_1  and  C_2
REMARK    2  A    between atoms: C_2  and  C_3
REMARK    3  A    between atoms: C_3  and  C_4
REMARK    4  A    between atoms: C_4  and  N_5
REMARK    5  A    between atoms: C_14  and  N_15
REMARK    6  A    between atoms: C_16  and  C_18
REMARK    7  A    between atoms: C_18  and  C_19
REMARK    8  A    between atoms: C_18  and  N_20
REMARK    9  A    between atoms: N_20  and  C_21
REMARK                            x       y       z     vdW  Elec       q    Type
REMARK                         _______ _______ _______ _____ _____    ______ ____
ROOT
ATOM      1  N   UNL     1       5.959   4.639  14.855  0.00  0.00    +0.000 NA
ATOM      2  C   UNL     1       6.439   3.625  15.780  0.00  0.00    +0.000 C 
ATOM      3  C   UNL     1       7.348   4.220  16.844  0.00  0.00    +0.000 C 
ATOM      4  C   UNL     1       6.590   5.218  17.709  0.00  0.00    +0.000 C 
ATOM      5  C   UNL     1       5.685   4.464  18.675  0.00  0.00    +0.000 C 
ATOM      6  C   UNL     1       4.709   5.524  19.140  0.00  0.00    +0.000 C 
ATOM      7  C   UNL     1       3.537   4.791  19.733  0.00  0.00    +0.000 C 
ATOM      8  C   UNL     1       2.702   5.723  20.569  0.00  0.00    +0.000 C 
ATOM      9  C   UNL     1       1.728   6.451  19.670  0.00  0.00    +0.000 C 
ATOM     10  C   UNL     1       2.333   7.640  18.916  0.00  0.00    +0.000 C 
ATOM     11  C   UNL     1       3.478   7.359  17.804  0.00  0.00    +0.000 C 
ATOM     12  O   UNL     1       3.596   8.156  16.863  0.00  0.00    +0.000 OA
ATOM     13  N   UNL     1       4.448   6.344  17.953  0.00  0.00    +0.000 N 
ATOM     14  C   UNL     1       5.614   6.185  16.985  0.00  0.00    +0.000 C 
ATOM     15  C   UNL     1       5.203   5.718  15.549  0.00  0.00    +0.000 C 
ENDROOT
BRANCH  10  16
ATOM     16  N   UNL     1       1.170   8.532  18.542  0.00  0.00    +0.000 N 
ATOM     17  C   UNL     1       0.730   9.596  19.317  0.00  0.00    +0.000 C 
ATOM     18  O   UNL     1       1.017   9.671  20.519  0.00  0.00    +0.000 OA
ATOM     19  H   UNL     1       0.875   8.526  17.575  0.00  0.00    +0.000 HD
BRANCH  17  20
ATOM     20  C   UNL     1       0.045  10.813  18.592  0.00  0.00    +0.000 C 
ATOM     21  C   UNL     1      -0.597  11.791  19.585  0.00  0.00    +0.000 C 
BRANCH  20  22
ATOM     22  N   UNL     1      -0.883  10.463  17.497  0.00  0.00    +0.000 NA
ATOM     23  C   UNL     1      -2.167   9.951  17.935  0.00  0.00    +0.000 C 
ATOM     24  H   UNL     1      -0.441   9.880  16.795  0.00  0.00    +0.000 HD
ENDBRANCH  20  22
ENDBRANCH  17  20
ENDBRANCH  10  16
BRANCH   1  25
ATOM     25  C   UNL     1       6.955   5.056  13.858  0.00  0.00    +0.000 C 
BRANCH  25  26
ATOM     26  C   UNL     1       6.805   4.215  12.559  0.00  0.00    +0.000 C 
BRANCH  26  28
ATOM     27  C   UNL     1       5.621   2.247  11.552  0.00  0.00    +0.000 C 
ATOM     28  C   UNL     1       5.473   3.473  12.449  0.00  0.00    +0.000 C 
ENDBRANCH  26  28
ENDBRANCH  25  26
ENDBRANCH   1  25
TORSDOF 6
ENDMDL
MODEL 2
REMARK VINA RESULT:      -6.0      7.534     12.078
REMARK  Name = 
REMARK  9 active torsions:
REMARK  status: ('A' for Active; 'I' for Inactive)
REMARK    1  A    between atoms: C_1  and  C_2
REMARK    2  A    between atoms: C_2  and  C_3
REMARK    3  A    between atoms: C_3  and  C_4
REMARK    4  A    between atoms: C_4  and  N_5
REMARK    5  A    between atoms: C_14  and  N_15
REMARK    6  A    between atoms: C_16  and  C_18
REMARK    7  A    between atoms: C_18  and  C_19
REMARK    8  A    between atoms: C_18  and  N_20
REMARK    9  A    between atoms: N_20  and  C_21
REMARK                            x       y       z     vdW  Elec       q    Type
REMARK                         _______ _______ _______ _____ _____    ______ ____
ROOT
ATOM      1  N   UNL     1      -6.702  11.985  21.369  0.00  0.00    +0.000 NA
ATOM      2  C   UNL     1      -7.363  11.230  20.317  0.00  0.00    +0.000 C 
ATOM      3  C   UNL     1      -7.399  12.002  19.008  0.00  0.00    +0.000 C 
ATOM      4  C   UNL     1      -5.990  12.256  18.488  0.00  0.00    +0.000 C 
ATOM      5  C   UNL     1      -5.429  10.969  17.899  0.00  0.00    +0.000 C 
ATOM      6  C   UNL     1      -3.940  11.234  17.832  0.00  0.00    +0.000 C 
ATOM      7  C   UNL     1      -3.276   9.892  17.687  0.00  0.00    +0.000 C 
ATOM      8  C   UNL     1      -1.854  10.057  17.221  0.00  0.00    +0.000 C 
ATOM      9  C   UNL     1      -0.970  10.309  18.422  0.00  0.00    +0.000 C 
ATOM     10  C   UNL     1      -0.990  11.754  18.928  0.00  0.00    +0.000 C 
ATOM     11  C   UNL     1      -2.365  12.344  19.551  0.00  0.00    +0.000 C 
ATOM     12  O   UNL     1      -2.291  13.243  20.400  0.00  0.00    +0.000 OA
ATOM     13  N   UNL     1      -3.637  11.996  19.047  0.00  0.00    +0.000 N 
ATOM     14  C   UNL     1      -4.916  12.671  19.530  0.00  0.00    +0.000 C 
ATOM     15  C   UNL     1      -5.302  12.340  21.010  0.00  0.00    +0.000 C 
ENDROOT
BRANCH  10  16
ATOM     16  N   UNL     1       0.292  11.941  19.710  0.00  0.00    +0.000 N 
ATOM     17  C   UNL     1       1.313  12.800  19.328  0.00  0.00    +0.000 C 
ATOM     18  O   UNL     1       1.407  13.199  18.160  0.00  0.00    +0.000 OA
ATOM     19  H   UNL     1       0.294  11.638  20.674  0.00  0.00    +0.000 HD
BRANCH  17  20
ATOM     20  C   UNL     1       2.216  13.430  20.452  0.00  0.00    +0.000 C 
ATOM     21  C   UNL     1       1.394  14.232  21.471  0.00  0.00    +0.000 C 
BRANCH  20  22
ATOM     22  N   UNL     1       3.387  14.194  19.976  0.00  0.00    +0.000 NA
ATOM     23  C   UNL     1       4.220  14.740  21.029  0.00  0.00    +0.000 C 
ATOM     24  H   UNL     1       3.135  14.879  19.273  0.00  0.00    +0.000 HD
ENDBRANCH  20  22
ENDBRANCH  17  20
ENDBRANCH  10  16
BRANCH   1  25
ATOM     25  C   UNL     1      -7.533  13.049  21.950  0.00  0.00    +0.000 C 
BRANCH  25  26
ATOM     26  C   UNL     1      -6.675  14.315  22.230  0.00  0.00    +0.000 C 
BRANCH  26  28
ATOM     27  C   UNL     1      -5.341  15.622  23.904  0.00  0.00    +0.000 C 
ATOM     28  C   UNL     1      -6.464  14.605  23.717  0.00  0.00    +0.000 C 
ENDBRANCH  26  28
ENDBRANCH  25  26
ENDBRANCH   1  25
TORSDOF 6
ENDMDL
MODEL 3
REMARK VINA RESULT:      -5.9      0.825      1.135
REMARK  Name = 
REMARK  9 active torsions:
REMARK  status: ('A' for Active; 'I' for Inactive)
REMARK    1  A    between atoms: C_1  and  C_2
REMARK    2  A    between atoms: C_2  and  C_3
REMARK    3  A    between atoms: C_3  and  C_4
REMARK    4  A    between atoms: C_4  and  N_5
REMARK    5  A    between atoms: C_14  and  N_15
REMARK    6  A    between atoms: C_16  and  C_18
REMARK    7  A    between atoms: C_18  and  C_19
REMARK    8  A    between atoms: C_18  and  N_20
REMARK    9  A    between atoms: N_20  and  C_21
REMARK                            x       y       z     vdW  Elec       q    Type
REMARK                         _______ _______ _______ _____ _____    ______ ____
ROOT
ATOM      1  N   UNL     1       5.526   4.672  14.932  0.00  0.00    +0.000 NA
ATOM      2  C   UNL     1       5.981   3.565  15.758  0.00  0.00    +0.000 C 
ATOM      3  C   UNL     1       6.963   4.026  16.823  0.00  0.00    +0.000 C 
ATOM      4  C   UNL     1       6.298   4.995  17.791  0.00  0.00    +0.000 C 
ATOM      5  C   UNL     1       5.388   4.221  18.736  0.00  0.00    +0.000 C 
ATOM      6  C   UNL     1       4.494   5.294  19.320  0.00  0.00    +0.000 C 
ATOM      7  C   UNL     1       3.305   4.585  19.906  0.00  0.00    +0.000 C 
ATOM      8  C   UNL     1       2.558   5.495  20.844  0.00  0.00    +0.000 C 
ATOM      9  C   UNL     1       1.595   6.343  20.042  0.00  0.00    +0.000 C 
ATOM     10  C   UNL     1       2.239   7.550  19.354  0.00  0.00    +0.000 C 
ATOM     11  C   UNL     1       3.322   7.291  18.176  0.00  0.00    +0.000 C 
ATOM     12  O   UNL     1       3.451   8.150  17.293  0.00  0.00    +0.000 OA
ATOM     13  N   UNL     1       4.236   6.216  18.209  0.00  0.00    +0.000 N 
ATOM     14  C   UNL     1       5.354   6.067  17.183  0.00  0.00    +0.000 C 
ATOM     15  C   UNL     1       4.861   5.735  15.735  0.00  0.00    +0.000 C 
ENDROOT
BRANCH  10  16
ATOM     16  N   UNL     1       1.116   8.531  19.096  0.00  0.00    +0.000 N 
ATOM     17  C   UNL     1       0.768   9.555  19.967  0.00  0.00    +0.000 C 
ATOM     18  O   UNL     1       1.104   9.521  21.157  0.00  0.00    +0.000 OA
ATOM     19  H   UNL     1       0.785   8.616  18.145  0.00  0.00    +0.000 HD
BRANCH  17  20
ATOM     20  C   UNL     1       0.128  10.860  19.363  0.00  0.00    +0.000 C 
ATOM     21  C   UNL     1      -0.927  10.545  18.294  0.00  0.00    +0.000 C 
BRANCH  20  22
ATOM     22  N   UNL     1       1.087  11.882  18.897  0.00  0.00    +0.000 NA
ATOM     23  C   UNL     1       0.489  13.156  18.548  0.00  0.00    +0.000 C 
ATOM     24  H   UNL     1       1.706  11.524  18.178  0.00  0.00    +0.000 HD
ENDBRANCH  20  22
ENDBRANCH  17  20
ENDBRANCH  10  16
BRANCH   1  25
ATOM     25  C   UNL     1       6.505   5.108  13.927  0.00  0.00    +0.000 C 
BRANCH  25  26
ATOM     26  C   UNL     1       6.696   4.009  12.843  0.00  0.00    +0.000 C 
BRANCH  26  28
ATOM     27  C   UNL     1       5.593   2.176  11.535  0.00  0.00    +0.000 C 
ATOM     28  C   UNL     1       5.389   3.531  12.208  0.00  0.00    +0.000 C 
ENDBRANCH  26  28
ENDBRANCH  25  26
ENDBRANCH   1  25
TORSDOF 6
ENDMDL
MODEL 4
REMARK VINA RESULT:      -5.9      2.908      8.781
REMARK  Name = 
REMARK  9 active torsions:
REMARK  status: ('A' for Active; 'I' for Inactive)
REMARK    1  A    between atoms: C_1  and  C_2
REMARK    2  A    between atoms: C_2  and  C_3
REMARK    3  A    between atoms: C_3  and  C_4
REMARK    4  A    between atoms: C_4  and  N_5
REMARK    5  A    between atoms: C_14  and  N_15
REMARK    6  A    between atoms: C_16  and  C_18
REMARK    7  A    between atoms: C_18  and  C_19
REMARK    8  A    between atoms: C_18  and  N_20
REMARK    9  A    between atoms: N_20  and  C_21
REMARK                            x       y       z     vdW  Elec       q    Type
REMARK                         _______ _______ _______ _____ _____    ______ ____
ROOT
ATOM      1  N   UNL     1       1.392  14.153  19.560  0.00  0.00    +0.000 NA
ATOM      2  C   UNL     1       0.334  14.164  20.558  0.00  0.00    +0.000 C 
ATOM      3  C   UNL     1      -0.976  13.638  19.995  0.00  0.00    +0.000 C 
ATOM      4  C   UNL     1      -0.841  12.180  19.577  0.00  0.00    +0.000 C 
ATOM      5  C   UNL     1      -0.835  11.297  20.818  0.00  0.00    +0.000 C 
ATOM      6  C   UNL     1      -0.272   9.986  20.313  0.00  0.00    +0.000 C 
ATOM      7  C   UNL     1       0.178   9.220  21.526  0.00  0.00    +0.000 C 
ATOM      8  C   UNL     1       0.384   7.768  21.186  0.00  0.00    +0.000 C 
ATOM      9  C   UNL     1       1.774   7.589  20.619  0.00  0.00    +0.000 C 
ATOM     10  C   UNL     1       1.908   7.973  19.143  0.00  0.00    +0.000 C 
ATOM     11  C   UNL     1       1.705   9.523  18.717  0.00  0.00    +0.000 C 
ATOM     12  O   UNL     1       2.291   9.941  17.708  0.00  0.00    +0.000 OA
ATOM     13  N   UNL     1       0.763  10.366  19.346  0.00  0.00    +0.000 N 
ATOM     14  C   UNL     1       0.465  11.773  18.841  0.00  0.00    +0.000 C 
ATOM     15  C   UNL     1       1.642  12.788  19.023  0.00  0.00    +0.000 C 
ENDROOT
BRANCH  10  16
ATOM     16  N   UNL     1       3.129   7.240  18.630  0.00  0.00    +0.000 N 
ATOM     17  C   UNL     1       3.085   5.985  18.036  0.00  0.00    +0.000 C 
ATOM     18  O   UNL     1       2.117   5.234  18.204  0.00  0.00    +0.000 OA
ATOM     19  H   UNL     1       3.962   7.788  18.467  0.00  0.00    +0.000 HD
BRANCH  17  20
ATOM     20  C   UNL     1       4.188   5.627  16.972  0.00  0.00    +0.000 C 
ATOM     21  C   UNL     1       4.917   4.320  17.314  0.00  0.00    +0.000 C 
BRANCH  20  22
ATOM     22  N   UNL     1       5.138   6.711  16.649  0.00  0.00    +0.000 NA
ATOM     23  C   UNL     1       6.492   6.486  17.114  0.00  0.00    +0.000 C 
ATOM     24  H   UNL     1       4.776   7.623  16.904  0.00  0.00    +0.000 HD
ENDBRANCH  20  22
ENDBRANCH  17  20
ENDBRANCH  10  16
BRANCH   1  25
ATOM     25  C   UNL     1       1.301  15.249  18.585  0.00  0.00    +0.000 C 
BRANCH  25  26
ATOM     26  C   UNL     1       2.648  16.023  18.512  0.00  0.00    +0.000 C 
BRANCH  26  28
ATOM     27  C   UNL     1       4.832  14.974  17.865  0.00  0.00    +0.000 C 
ATOM     28  C   UNL     1       3.543  15.604  17.345  0.00  0.00    +0.000 C 
ENDBRANCH  26  28
ENDBRANCH  25  26
ENDBRANCH   1  25
TORSDOF 6
ENDMDL
MODEL 5
REMARK VINA RESULT:      -5.9      1.980      8.548
REMARK  Name = 
REMARK  9 active torsions:
REMARK  status: ('A' for Active; 'I' for Inactive)
REMARK    1  A    between atoms: C_1  and  C_2
REMARK    2  A    between atoms: C_2  and  C_3
REMARK    3  A    between atoms: C_3  and  C_4
REMARK    4  A    between atoms: C_4  and  N_5
REMARK    5  A    between atoms: C_14  and  N_15
REMARK    6  A    between atoms: C_16  and  C_18
REMARK    7  A    between atoms: C_18  and  C_19
REMARK    8  A    between atoms: C_18  and  N_20
REMARK    9  A    between atoms: N_20  and  C_21
REMARK                            x       y       z     vdW  Elec       q    Type
REMARK                         _______ _______ _______ _____ _____    ______ ____
ROOT
ATOM      1  N   UNL     1       2.019  12.428  19.088  0.00  0.00    +0.000 NA
ATOM      2  C   UNL     1       1.297  12.280  20.341  0.00  0.00    +0.000 C 
ATOM      3  C   UNL     1      -0.062  11.630  20.133  0.00  0.00    +0.000 C 
ATOM      4  C   UNL     1       0.090  10.214  19.593  0.00  0.00    +0.000 C 
ATOM      5  C   UNL     1       0.538   9.290  20.718  0.00  0.00    +0.000 C 
ATOM      6  C   UNL     1       1.057   8.072  19.984  0.00  0.00    +0.000 C 
ATOM      7  C   UNL     1       1.909   7.315  20.966  0.00  0.00    +0.000 C 
ATOM      8  C   UNL     1       2.150   5.911  20.481  0.00  0.00    +0.000 C 
ATOM      9  C   UNL     1       3.330   5.914  19.536  0.00  0.00    +0.000 C 
ATOM     10  C   UNL     1       2.996   6.368  18.111  0.00  0.00    +0.000 C 
ATOM     11  C   UNL     1       2.529   7.900  17.870  0.00  0.00    +0.000 C 
ATOM     12  O   UNL     1       2.757   8.421  16.769  0.00  0.00    +0.000 OA
ATOM     13  N   UNL     1       1.729   8.605  18.795  0.00  0.00    +0.000 N 
ATOM     14  C   UNL     1       1.162   9.987  18.494  0.00  0.00    +0.000 C 
ATOM     15  C   UNL     1       2.237  11.122  18.408  0.00  0.00    +0.000 C 
ENDROOT
BRANCH  10  16
ATOM     16  N   UNL     1       4.084   5.799  17.227  0.00  0.00    +0.000 N 
ATOM     17  C   UNL     1       5.401   6.238  17.240  0.00  0.00    +0.000 C 
ATOM     18  O   UNL     1       5.699   7.346  17.705  0.00  0.00    +0.000 OA
ATOM     19  H   UNL     1       3.914   4.894  16.809  0.00  0.00    +0.000 HD
BRANCH  17  20
ATOM     20  C   UNL     1       6.532   5.214  16.854  0.00  0.00    +0.000 C 
ATOM     21  C   UNL     1       7.495   4.950  18.019  0.00  0.00    +0.000 C 
BRANCH  20  22
ATOM     22  N   UNL     1       7.259   5.509  15.603  0.00  0.00    +0.000 NA
ATOM     23  C   UNL     1       6.763   4.808  14.435  0.00  0.00    +0.000 C 
ATOM     24  H   UNL     1       8.263   5.428  15.718  0.00  0.00    +0.000 HD
ENDBRANCH  20  22
ENDBRANCH  17  20
ENDBRANCH  10  16
BRANCH   1  25
ATOM     25  C   UNL     1       1.546  13.544  18.255  0.00  0.00    +0.000 C 
BRANCH  25  26
ATOM     26  C   UNL     1       1.349  14.820  19.121  0.00  0.00    +0.000 C 
BRANCH  26  28
ATOM     27  C   UNL     1      -0.924  15.333  20.047  0.00  0.00    +0.000 C 
ATOM     28  C   UNL     1       0.025  15.543  18.870  0.00  0.00    +0.000 C 
ENDBRANCH  26  28
ENDBRANCH  25  26
ENDBRANCH   1  25
TORSDOF 6
ENDMDL
MODEL 6
REMARK VINA RESULT:      -5.9      3.221      9.065
REMARK  Name = 
REMARK  9 active torsions:
REMARK  status: ('A' for Active; 'I' for Inactive)
REMARK    1  A    between atoms: C_1  and  C_2
REMARK    2  A    between atoms: C_2  and  C_3
REMARK    3  A    between atoms: C_3  and  C_4
REMARK    4  A    between atoms: C_4  and  N_5
REMARK    5  A    between atoms: C_14  and  N_15
REMARK    6  A    between atoms: C_16  and  C_18
REMARK    7  A    between atoms: C_18  and  C_19
REMARK    8  A    between atoms: C_18  and  N_20
REMARK    9  A    between atoms: N_20  and  C_21
REMARK                            x       y       z     vdW  Elec       q    Type
REMARK                         _______ _______ _______ _____ _____    ______ ____
ROOT
ATOM      1  N   UNL     1       2.119  14.178  19.040  0.00  0.00    +0.000 NA
ATOM      2  C   UNL     1       0.927  14.573  19.773  0.00  0.00    +0.000 C 
ATOM      3  C   UNL     1      -0.342  14.136  19.060  0.00  0.00    +0.000 C 
ATOM      4  C   UNL     1      -0.419  12.617  18.969  0.00  0.00    +0.000 C 
ATOM      5  C   UNL     1      -0.796  12.048  20.330  0.00  0.00    +0.000 C 
ATOM      6  C   UNL     1      -0.416  10.587  20.216  0.00  0.00    +0.000 C 
ATOM      7  C   UNL     1      -0.338  10.057  21.621  0.00  0.00    +0.000 C 
ATOM      8  C   UNL     1      -0.358   8.552  21.619  0.00  0.00    +0.000 C 
ATOM      9  C   UNL     1       1.050   8.042  21.401  0.00  0.00    +0.000 C 
ATOM     10  C   UNL     1       1.507   8.058  19.939  0.00  0.00    +0.000 C 
ATOM     11  C   UNL     1       1.681   9.484  19.190  0.00  0.00    +0.000 C 
ATOM     12  O   UNL     1       2.501   9.570  18.265  0.00  0.00    +0.000 OA
ATOM     13  N   UNL     1       0.824  10.579  19.433  0.00  0.00    +0.000 N 
ATOM     14  C   UNL     1       0.892  11.863  18.616  0.00  0.00    +0.000 C 
ATOM     15  C   UNL     1       2.192  12.704  18.841  0.00  0.00    +0.000 C 
ENDROOT
BRANCH  10  16
ATOM     16  N   UNL     1       2.635   7.053  19.845  0.00  0.00    +0.000 N 
ATOM     17  C   UNL     1       2.852   6.235  18.744  0.00  0.00    +0.000 C 
ATOM     18  O   UNL     1       1.950   6.014  17.926  0.00  0.00    +0.000 OA
ATOM     19  H   UNL     1       3.411   7.167  20.482  0.00  0.00    +0.000 HD
BRANCH  17  20
ATOM     20  C   UNL     1       4.325   5.773  18.440  0.00  0.00    +0.000 C 
ATOM     21  C   UNL     1       4.861   6.375  17.134  0.00  0.00    +0.000 C 
BRANCH  20  22
ATOM     22  N   UNL     1       4.563   4.316  18.504  0.00  0.00    +0.000 NA
ATOM     23  C   UNL     1       4.366   3.616  17.250  0.00  0.00    +0.000 C 
ATOM     24  H   UNL     1       4.074   3.885  19.281  0.00  0.00    +0.000 HD
ENDBRANCH  20  22
ENDBRANCH  17  20
ENDBRANCH  10  16
BRANCH   1  25
ATOM     25  C   UNL     1       2.410  15.025  17.874  0.00  0.00    +0.000 C 
BRANCH  25  26
ATOM     26  C   UNL     1       2.145  16.519  18.210  0.00  0.00    +0.000 C 
BRANCH  26  28
ATOM     27  C   UNL     1       1.101  18.302  16.789  0.00  0.00    +0.000 C 
ATOM     28  C   UNL     1       2.357  17.468  17.030  0.00  0.00    +0.000 C 
ENDBRANCH  26  28
ENDBRANCH  25  26
ENDBRANCH   1  25
TORSDOF 6
ENDMDL
MODEL 7
REMARK VINA RESULT:      -5.8      3.595      8.702
REMARK  Name = 
REMARK  9 active torsions:
REMARK  status: ('A' for Active; 'I' for Inactive)
REMARK    1  A    between atoms: C_1  and  C_2
REMARK    2  A    between atoms: C_2  and  C_3
REMARK    3  A    between atoms: C_3  and  C_4
REMARK    4  A    between atoms: C_4  and  N_5
REMARK    5  A    between atoms: C_14  and  N_15
REMARK    6  A    between atoms: C_16  and  C_18
REMARK    7  A    between atoms: C_18  and  C_19
REMARK    8  A    between atoms: C_18  and  N_20
REMARK    9  A    between atoms: N_20  and  C_21
REMARK                            x       y       z     vdW  Elec       q    Type
REMARK                         _______ _______ _______ _____ _____    ______ ____
ROOT
ATOM      1  N   UNL     1       2.363  14.115  18.844  0.00  0.00    +0.000 NA
ATOM      2  C   UNL     1       1.278  14.640  19.657  0.00  0.00    +0.000 C 
ATOM      3  C   UNL     1      -0.082  14.261  19.093  0.00  0.00    +0.000 C 
ATOM      4  C   UNL     1      -0.273  12.750  19.104  0.00  0.00    +0.000 C 
ATOM      5  C   UNL     1      -0.557  12.288  20.527  0.00  0.00    +0.000 C 
ATOM      6  C   UNL     1      -0.294  10.798  20.470  0.00  0.00    +0.000 C 
ATOM      7  C   UNL     1      -0.118  10.343  21.893  0.00  0.00    +0.000 C 
ATOM      8  C   UNL     1      -0.244   8.845  21.986  0.00  0.00    +0.000 C 
ATOM      9  C   UNL     1       1.097   8.220  21.673  0.00  0.00    +0.000 C 
ATOM     10  C   UNL     1       1.412   8.119  20.177  0.00  0.00    +0.000 C 
ATOM     11  C   UNL     1       1.613   9.484  19.327  0.00  0.00    +0.000 C 
ATOM     12  O   UNL     1       2.345   9.455  18.328  0.00  0.00    +0.000 OA
ATOM     13  N   UNL     1       0.862  10.652  19.579  0.00  0.00    +0.000 N 
ATOM     14  C   UNL     1       0.941  11.880  18.680  0.00  0.00    +0.000 C 
ATOM     15  C   UNL     1       2.313  12.631  18.732  0.00  0.00    +0.000 C 
ENDROOT
BRANCH  10  16
ATOM     16  N   UNL     1       2.452   7.028  20.043  0.00  0.00    +0.000 N 
ATOM     17  C   UNL     1       2.162   5.671  20.100  0.00  0.00    +0.000 C 
ATOM     18  O   UNL     1       1.112   5.264  20.613  0.00  0.00    +0.000 OA
ATOM     19  H   UNL     1       3.339   7.283  19.631  0.00  0.00    +0.000 HD
BRANCH  17  20
ATOM     20  C   UNL     1       3.089   4.678  19.305  0.00  0.00    +0.000 C 
ATOM     21  C   UNL     1       3.022   4.913  17.790  0.00  0.00    +0.000 C 
BRANCH  20  22
ATOM     22  N   UNL     1       2.928   3.249  19.642  0.00  0.00    +0.000 NA
ATOM     23  C   UNL     1       4.169   2.503  19.719  0.00  0.00    +0.000 C 
ATOM     24  H   UNL     1       2.229   2.798  19.062  0.00  0.00    +0.000 HD
ENDBRANCH  20  22
ENDBRANCH  17  20
ENDBRANCH  10  16
BRANCH   1  25
ATOM     25  C   UNL     1       2.599  14.871  17.606  0.00  0.00    +0.000 C 
BRANCH  25  26
ATOM     26  C   UNL     1       3.644  15.997  17.850  0.00  0.00    +0.000 C 
BRANCH  26  28
ATOM     27  C   UNL     1       5.769  14.665  17.839  0.00  0.00    +0.000 C 
ATOM     28  C   UNL     1       4.853  15.553  18.676  0.00  0.00    +0.000 C 
ENDBRANCH  26  28
ENDBRANCH  25  26
ENDBRANCH   1  25
TORSDOF 6
ENDMDL
MODEL 8
REMARK VINA RESULT:      -5.8      7.412     11.761
REMARK  Name = 
REMARK  9 active torsions:
REMARK  status: ('A' for Active; 'I' for Inactive)
REMARK    1  A    between atoms: C_1  and  C_2
REMARK    2  A    between atoms: C_2  and  C_3
REMARK    3  A    between atoms: C_3  and  C_4
REMARK    4  A    between atoms: C_4  and  N_5
REMARK    5  A    between atoms: C_14  and  N_15
REMARK    6  A    between atoms: C_16  and  C_18
REMARK    7  A    between atoms: C_18  and  C_19
REMARK    8  A    between atoms: C_18  and  N_20
REMARK    9  A    between atoms: N_20  and  C_21
REMARK                            x       y       z     vdW  Elec       q    Type
REMARK                         _______ _______ _______ _____ _____    ______ ____
ROOT
ATOM      1  N   UNL     1      -6.606  11.824  21.189  0.00  0.00    +0.000 NA
ATOM      2  C   UNL     1      -7.135  10.945  20.159  0.00  0.00    +0.000 C 
ATOM      3  C   UNL     1      -7.162  11.625  18.800  0.00  0.00    +0.000 C 
ATOM      4  C   UNL     1      -5.752  11.973  18.339  0.00  0.00    +0.000 C 
ATOM      5  C   UNL     1      -5.047  10.707  17.870  0.00  0.00    +0.000 C 
ATOM      6  C   UNL     1      -3.586  11.101  17.864  0.00  0.00    +0.000 C 
ATOM      7  C   UNL     1      -2.799   9.819  17.848  0.00  0.00    +0.000 C 
ATOM      8  C   UNL     1      -1.372  10.082  17.447  0.00  0.00    +0.000 C 
ATOM      9  C   UNL     1      -0.586  10.490  18.673  0.00  0.00    +0.000 C 
ATOM     10  C   UNL     1      -0.762  11.957  19.076  0.00  0.00    +0.000 C 
ATOM     11  C   UNL     1      -2.218  12.458  19.583  0.00  0.00    +0.000 C 
ATOM     12  O   UNL     1      -2.273  13.414  20.370  0.00  0.00    +0.000 OA
ATOM     13  N   UNL     1      -3.423  11.965  19.038  0.00  0.00    +0.000 N 
ATOM     14  C   UNL     1      -4.781  12.550  19.404  0.00  0.00    +0.000 C 
ATOM     15  C   UNL     1      -5.223  12.281  20.882  0.00  0.00    +0.000 C 
ENDROOT
BRANCH  10  16
ATOM     16  N   UNL     1       0.451  12.310  19.909  0.00  0.00    +0.000 N 
ATOM     17  C   UNL     1       1.698  12.605  19.375  0.00  0.00    +0.000 C 
ATOM     18  O   UNL     1       1.997  12.258  18.225  0.00  0.00    +0.000 OA
ATOM     19  H   UNL     1       0.287  12.604  20.862  0.00  0.00    +0.000 HD
BRANCH  17  20
ATOM     20  C   UNL     1       2.640  13.577  20.177  0.00  0.00    +0.000 C 
ATOM     21  C   UNL     1       1.909  14.260  21.341  0.00  0.00    +0.000 C 
BRANCH  20  22
ATOM     22  N   UNL     1       3.394  14.551  19.361  0.00  0.00    +0.000 NA
ATOM     23  C   UNL     1       2.586  15.604  18.778  0.00  0.00    +0.000 C 
ATOM     24  H   UNL     1       4.000  14.096  18.688  0.00  0.00    +0.000 HD
ENDBRANCH  20  22
ENDBRANCH  17  20
ENDBRANCH  10  16
BRANCH   1  25
ATOM     25  C   UNL     1      -7.560  12.843  21.650  0.00  0.00    +0.000 C 
BRANCH  25  26
ATOM     26  C   UNL     1      -6.972  14.268  21.443  0.00  0.00    +0.000 C 
BRANCH  26  28
ATOM     27  C   UNL     1      -6.644  15.826  19.506  0.00  0.00    +0.000 C 
ATOM     28  C   UNL     1      -7.672  15.074  20.348  0.00  0.00    +0.000 C 
ENDBRANCH  26  28
ENDBRANCH  25  26
ENDBRANCH   1  25
TORSDOF 6
ENDMDL
MODEL 9
REMARK VINA RESULT:      -5.8      2.819      8.546
REMARK  Name = 
REMARK  9 active torsions:
REMARK  status: ('A' for Active; 'I' for Inactive)
REMARK    1  A    between atoms: C_1  and  C_2
REMARK    2  A    between atoms: C_2  and  C_3
REMARK    3  A    between atoms: C_3  and  C_4
REMARK    4  A    between atoms: C_4  and  N_5
REMARK    5  A    between atoms: C_14  and  N_15
REMARK    6  A    between atoms: C_16  and  C_18
REMARK    7  A    between atoms: C_18  and  C_19
REMARK    8  A    between atoms: C_18  and  N_20
REMARK    9  A    between atoms: N_20  and  C_21
REMARK                            x       y       z     vdW  Elec       q    Type
REMARK                         _______ _______ _______ _____ _____    ______ ____
ROOT
ATOM      1  N   UNL     1       1.899  13.265  19.372  0.00  0.00    +0.000 NA
ATOM      2  C   UNL     1       1.092  13.224  20.580  0.00  0.00    +0.000 C 
ATOM      3  C   UNL     1      -0.312  12.713  20.302  0.00  0.00    +0.000 C 
ATOM      4  C   UNL     1      -0.277  11.275  19.800  0.00  0.00    +0.000 C 
ATOM      5  C   UNL     1       0.005  10.339  20.968  0.00  0.00    +0.000 C 
ATOM      6  C   UNL     1       0.436   9.056  20.291  0.00  0.00    +0.000 C 
ATOM      7  C   UNL     1       1.145   8.241  21.338  0.00  0.00    +0.000 C 
ATOM      8  C   UNL     1       1.266   6.807  20.897  0.00  0.00    +0.000 C 
ATOM      9  C   UNL     1       2.495   6.664  20.026  0.00  0.00    +0.000 C 
ATOM     10  C   UNL     1       2.295   7.113  18.575  0.00  0.00    +0.000 C 
ATOM     11  C   UNL     1       2.005   8.679  18.275  0.00  0.00    +0.000 C 
ATOM     12  O   UNL     1       2.351   9.145  17.180  0.00  0.00    +0.000 OA
ATOM     13  N   UNL     1       1.230   9.486  19.136  0.00  0.00    +0.000 N 
ATOM     14  C   UNL     1       0.829  10.911  18.773  0.00  0.00    +0.000 C 
ATOM     15  C   UNL     1       2.020  11.926  18.732  0.00  0.00    +0.000 C 
ENDROOT
BRANCH  10  16
ATOM     16  N   UNL     1       3.368   6.413  17.770  0.00  0.00    +0.000 N 
ATOM     17  C   UNL     1       4.421   5.705  18.334  0.00  0.00    +0.000 C 
ATOM     18  O   UNL     1       4.757   5.893  19.511  0.00  0.00    +0.000 OA
ATOM     19  H   UNL     1       3.167   6.223  16.798  0.00  0.00    +0.000 HD
BRANCH  17  20
ATOM     20  C   UNL     1       5.035   4.508  17.519  0.00  0.00    +0.000 C 
ATOM     21  C   UNL     1       4.014   3.387  17.282  0.00  0.00    +0.000 C 
BRANCH  20  22
ATOM     22  N   UNL     1       6.315   3.978  18.031  0.00  0.00    +0.000 NA
ATOM     23  C   UNL     1       7.491   4.686  17.566  0.00  0.00    +0.000 C 
ATOM     24  H   UNL     1       6.384   2.973  17.916  0.00  0.00    +0.000 HD
ENDBRANCH  20  22
ENDBRANCH  17  20
ENDBRANCH  10  16
BRANCH   1  25
ATOM     25  C   UNL     1       1.595  14.402  18.490  0.00  0.00    +0.000 C 
BRANCH  25  26
ATOM     26  C   UNL     1       2.710  15.481  18.594  0.00  0.00    +0.000 C 
BRANCH  26  28
ATOM     27  C   UNL     1       5.120  15.320  17.922  0.00  0.00    +0.000 C 
ATOM     28  C   UNL     1       3.688  15.477  17.418  0.00  0.00    +0.000 C 
ENDBRANCH  26  28
ENDBRANCH  25  26
ENDBRANCH   1  25
TORSDOF 6
ENDMDL
