MODEL 1
REMARK VINA RESULT:      -7.6      0.000      0.000
REMARK  Name = 
REMARK  6 active torsions:
REMARK  status: ('A' for Active; 'I' for Inactive)
REMARK    1  A    between atoms: C_2  and  C_3
REMARK    2  A    between atoms: C_3  and  C_4
REMARK    3  A    between atoms: C_4  and  N_5
REMARK    4  A    between atoms: C_4  and  C_18
REMARK    5  A    between atoms: C_6  and  C_8
REMARK    6  A    between atoms: C_8  and  C_9
REMARK                            x       y       z     vdW  Elec       q    Type
REMARK                         _______ _______ _______ _____ _____    ______ ____
ROOT
ATOM      1  N   UNL     1       5.307   4.232  16.107  0.00  0.00    +0.000 N 
ATOM      2  C   UNL     1       4.196   4.466  16.882  0.00  0.00    +0.000 C 
ATOM      3  O   UNL     1       3.971   5.551  17.412  0.00  0.00    +0.000 OA
ATOM      4  H   UNL     1       5.464   3.327  15.677  0.00  0.00    +0.000 HD
ENDROOT
BRANCH   1   5
ATOM      5  C   UNL     1       6.267   5.298  15.816  0.00  0.00    +0.000 C 
BRANCH   5   6
ATOM      6  C   UNL     1       6.987   4.928  14.511  0.00  0.00    +0.000 C 
ATOM      7  N   UNL     1       6.574   3.773  13.911  0.00  0.00    +0.000 N 
ATOM      8  O   UNL     1       7.896   5.601  14.030  0.00  0.00    +0.000 OA
ATOM      9  H   UNL     1       5.814   3.208  14.268  0.00  0.00    +0.000 HD
ATOM     10  H   UNL     1       7.006   3.504  13.038  0.00  0.00    +0.000 HD
ENDBRANCH   5   6
BRANCH   5  11
ATOM     11  C   UNL     1       7.286   5.470  16.947  0.00  0.00    +0.000 C 
BRANCH  11  13
ATOM     12  C   UNL     1       7.594   8.040  17.620  0.00  0.00    +0.000 C 
ATOM     13  C   UNL     1       7.468   6.885  17.311  0.00  0.00    +0.000 C 
ENDBRANCH  11  13
ENDBRANCH   5  11
ENDBRANCH   1   5
BRANCH   2  14
ATOM     14  C   UNL     1       3.240   3.297  17.013  0.00  0.00    +0.000 C 
BRANCH  14  15
ATOM     15  C   UNL     1       2.682   3.170  18.408  0.00  0.00    +0.000 A 
ATOM     16  C   UNL     1       3.458   2.656  19.458  0.00  0.00    +0.000 A 
ATOM     17  C   UNL     1       2.908   2.539  20.733  0.00  0.00    +0.000 A 
ATOM     18  F   UNL     1       3.650   2.030  21.726  0.00  0.00    +0.000 F 
ATOM     19  C   UNL     1       1.597   2.939  20.977  0.00  0.00    +0.000 A 
ATOM     20  F   UNL     1       1.068   2.808  22.200  0.00  0.00    +0.000 F 
ATOM     21  C   UNL     1       0.824   3.473  19.955  0.00  0.00    +0.000 A 
ATOM     22  C   UNL     1       1.375   3.591  18.682  0.00  0.00    +0.000 A 
ATOM     23  F   UNL     1       0.628   4.108  17.698  0.00  0.00    +0.000 F 
ENDBRANCH  14  15
ENDBRANCH   2  14
TORSDOF 6
ENDMDL
MODEL 2
REMARK VINA RESULT:      -7.5      2.165      2.752
REMARK  Name = 
REMARK  6 active torsions:
REMARK  status: ('A' for Active; 'I' for Inactive)
REMARK    1  A    between atoms: C_2  and  C_3
REMARK    2  A    between atoms: C_3  and  C_4
REMARK    3  A    between atoms: C_4  and  N_5
REMARK    4  A    between atoms: C_4  and  C_18
REMARK    5  A    between atoms: C_6  and  C_8
REMARK    6  A    between atoms: C_8  and  C_9
REMARK                            x       y       z     vdW  Elec       q    Type
REMARK                         _______ _______ _______ _____ _____    ______ ____
ROOT
ATOM      1  N   UNL     1       5.648   6.299  17.827  0.00  0.00    +0.000 N 
ATOM      2  C   UNL     1       4.689   6.699  16.926  0.00  0.00    +0.000 C 
ATOM      3  O   UNL     1       4.948   6.968  15.756  0.00  0.00    +0.000 OA
ATOM      4  H   UNL     1       5.404   6.077  18.786  0.00  0.00    +0.000 HD
ENDROOT
BRANCH   1   5
ATOM      5  C   UNL     1       7.041   6.111  17.420  0.00  0.00    +0.000 C 
BRANCH   5   6
ATOM      6  C   UNL     1       7.306   4.600  17.362  0.00  0.00    +0.000 C 
ATOM      7  N   UNL     1       6.294   3.839  16.851  0.00  0.00    +0.000 N 
ATOM      8  O   UNL     1       8.345   4.083  17.766  0.00  0.00    +0.000 OA
ATOM      9  H   UNL     1       5.436   4.234  16.489  0.00  0.00    +0.000 HD
ATOM     10  H   UNL     1       6.436   2.841  16.774  0.00  0.00    +0.000 HD
ENDBRANCH   5   6
BRANCH   5  11
ATOM     11  C   UNL     1       8.014   6.778  18.399  0.00  0.00    +0.000 C 
BRANCH  11  13
ATOM     12  C   UNL     1       8.257   9.401  17.939  0.00  0.00    +0.000 C 
ATOM     13  C   UNL     1       8.156   8.219  18.134  0.00  0.00    +0.000 C 
ENDBRANCH  11  13
ENDBRANCH   5  11
ENDBRANCH   1   5
BRANCH   2  14
ATOM     14  C   UNL     1       3.274   6.752  17.467  0.00  0.00    +0.000 C 
BRANCH  14  15
ATOM     15  C   UNL     1       2.864   5.456  18.119  0.00  0.00    +0.000 A 
ATOM     16  C   UNL     1       2.836   4.254  17.395  0.00  0.00    +0.000 A 
ATOM     17  C   UNL     1       2.438   3.076  18.024  0.00  0.00    +0.000 A 
ATOM     18  F   UNL     1       2.396   1.936  17.320  0.00  0.00    +0.000 F 
ATOM     19  C   UNL     1       2.080   3.078  19.368  0.00  0.00    +0.000 A 
ATOM     20  F   UNL     1       1.681   1.946  19.963  0.00  0.00    +0.000 F 
ATOM     21  C   UNL     1       2.127   4.254  20.106  0.00  0.00    +0.000 A 
ATOM     22  C   UNL     1       2.525   5.430  19.477  0.00  0.00    +0.000 A 
ATOM     23  F   UNL     1       2.571   6.563  20.191  0.00  0.00    +0.000 F 
ENDBRANCH  14  15
ENDBRANCH   2  14
TORSDOF 6
ENDMDL
MODEL 3
REMARK VINA RESULT:      -7.5      1.128      1.128
REMARK  Name = 
REMARK  6 active torsions:
REMARK  status: ('A' for Active; 'I' for Inactive)
REMARK    1  A    between atoms: C_2  and  C_3
REMARK    2  A    between atoms: C_3  and  C_4
REMARK    3  A    between atoms: C_4  and  N_5
REMARK    4  A    between atoms: C_4  and  C_18
REMARK    5  A    between atoms: C_6  and  C_8
REMARK    6  A    between atoms: C_8  and  C_9
REMARK                            x       y       z     vdW  Elec       q    Type
REMARK                         _______ _______ _______ _____ _____    ______ ____
ROOT
ATOM      1  N   UNL     1       5.450   3.771  16.529  0.00  0.00    +0.000 N 
ATOM      2  C   UNL     1       4.207   4.179  16.950  0.00  0.00    +0.000 C 
ATOM      3  O   UNL     1       3.927   5.358  17.153  0.00  0.00    +0.000 OA
ATOM      4  H   UNL     1       5.651   2.791  16.362  0.00  0.00    +0.000 HD
ENDROOT
BRANCH   1   5
ATOM      5  C   UNL     1       6.508   4.740  16.235  0.00  0.00    +0.000 C 
BRANCH   5   6
ATOM      6  C   UNL     1       6.871   4.593  14.751  0.00  0.00    +0.000 C 
ATOM      7  N   UNL     1       7.783   5.490  14.271  0.00  0.00    +0.000 N 
ATOM      8  O   UNL     1       6.369   3.747  14.016  0.00  0.00    +0.000 OA
ATOM      9  H   UNL     1       8.232   6.184  14.854  0.00  0.00    +0.000 HD
ATOM     10  H   UNL     1       8.067   5.415  13.305  0.00  0.00    +0.000 HD
ENDBRANCH   5   6
BRANCH   5  11
ATOM     11  C   UNL     1       7.748   4.507  17.105  0.00  0.00    +0.000 C 
BRANCH  11  13
ATOM     12  C   UNL     1       7.608   5.794  19.445  0.00  0.00    +0.000 C 
ATOM     13  C   UNL     1       7.660   5.224  18.388  0.00  0.00    +0.000 C 
ENDBRANCH  11  13
ENDBRANCH   5  11
ENDBRANCH   1   5
BRANCH   2  14
ATOM     14  C   UNL     1       3.184   3.073  17.115  0.00  0.00    +0.000 C 
BRANCH  14  15
ATOM     15  C   UNL     1       2.631   3.013  18.516  0.00  0.00    +0.000 A 
ATOM     16  C   UNL     1       3.402   2.522  19.582  0.00  0.00    +0.000 A 
ATOM     17  C   UNL     1       2.856   2.466  20.863  0.00  0.00    +0.000 A 
ATOM     18  F   UNL     1       3.592   1.980  21.871  0.00  0.00    +0.000 F 
ATOM     19  C   UNL     1       1.556   2.904  21.098  0.00  0.00    +0.000 A 
ATOM     20  F   UNL     1       1.030   2.832  22.328  0.00  0.00    +0.000 F 
ATOM     21  C   UNL     1       0.789   3.416  20.060  0.00  0.00    +0.000 A 
ATOM     22  C   UNL     1       1.335   3.472  18.781  0.00  0.00    +0.000 A 
ATOM     23  F   UNL     1       0.594   3.968  17.781  0.00  0.00    +0.000 F 
ENDBRANCH  14  15
ENDBRANCH   2  14
TORSDOF 6
ENDMDL
MODEL 4
REMARK VINA RESULT:      -7.4      1.310      1.861
REMARK  Name = 
REMARK  6 active torsions:
REMARK  status: ('A' for Active; 'I' for Inactive)
REMARK    1  A    between atoms: C_2  and  C_3
REMARK    2  A    between atoms: C_3  and  C_4
REMARK    3  A    between atoms: C_4  and  N_5
REMARK    4  A    between atoms: C_4  and  C_18
REMARK    5  A    between atoms: C_6  and  C_8
REMARK    6  A    between atoms: C_8  and  C_9
REMARK                            x       y       z     vdW  Elec       q    Type
REMARK                         _______ _______ _______ _____ _____    ______ ____
ROOT
ATOM      1  N   UNL     1       5.261   4.074  16.164  0.00  0.00    +0.000 N 
ATOM      2  C   UNL     1       4.177   4.538  16.870  0.00  0.00    +0.000 C 
ATOM      3  O   UNL     1       4.180   5.615  17.461  0.00  0.00    +0.000 OA
ATOM      4  H   UNL     1       5.229   3.183  15.681  0.00  0.00    +0.000 HD
ENDROOT
BRANCH   1   5
ATOM      5  C   UNL     1       6.476   4.879  16.022  0.00  0.00    +0.000 C 
BRANCH   5   6
ATOM      6  C   UNL     1       6.960   4.735  14.572  0.00  0.00    +0.000 C 
ATOM      7  N   UNL     1       6.412   3.705  13.863  0.00  0.00    +0.000 N 
ATOM      8  O   UNL     1       7.803   5.474  14.069  0.00  0.00    +0.000 OA
ATOM      9  H   UNL     1       5.700   3.094  14.240  0.00  0.00    +0.000 HD
ATOM     10  H   UNL     1       6.686   3.589  12.897  0.00  0.00    +0.000 HD
ENDBRANCH   5   6
BRANCH   5  11
ATOM     11  C   UNL     1       7.574   4.425  16.990  0.00  0.00    +0.000 C 
BRANCH  11  13
ATOM     12  C   UNL     1       7.676   5.933  19.196  0.00  0.00    +0.000 C 
ATOM     13  C   UNL     1       7.618   5.261  18.201  0.00  0.00    +0.000 C 
ENDBRANCH  11  13
ENDBRANCH   5  11
ENDBRANCH   1   5
BRANCH   2  14
ATOM     14  C   UNL     1       2.956   3.641  16.845  0.00  0.00    +0.000 C 
BRANCH  14  15
ATOM     15  C   UNL     1       2.407   3.384  18.225  0.00  0.00    +0.000 A 
ATOM     16  C   UNL     1       1.624   4.343  18.887  0.00  0.00    +0.000 A 
ATOM     17  C   UNL     1       1.145   4.082  20.169  0.00  0.00    +0.000 A 
ATOM     18  F   UNL     1       0.413   5.010  20.800  0.00  0.00    +0.000 F 
ATOM     19  C   UNL     1       1.425   2.871  20.795  0.00  0.00    +0.000 A 
ATOM     20  F   UNL     1       0.976   2.631  22.034  0.00  0.00    +0.000 F 
ATOM     21  C   UNL     1       2.176   1.901  20.145  0.00  0.00    +0.000 A 
ATOM     22  C   UNL     1       2.655   2.164  18.864  0.00  0.00    +0.000 A 
ATOM     23  F   UNL     1       3.379   1.226  18.238  0.00  0.00    +0.000 F 
ENDBRANCH  14  15
ENDBRANCH   2  14
TORSDOF 6
ENDMDL
MODEL 5
REMARK VINA RESULT:      -7.3      1.780      2.869
REMARK  Name = 
REMARK  6 active torsions:
REMARK  status: ('A' for Active; 'I' for Inactive)
REMARK    1  A    between atoms: C_2  and  C_3
REMARK    2  A    between atoms: C_3  and  C_4
REMARK    3  A    between atoms: C_4  and  N_5
REMARK    4  A    between atoms: C_4  and  C_18
REMARK    5  A    between atoms: C_6  and  C_8
REMARK    6  A    between atoms: C_8  and  C_9
REMARK                            x       y       z     vdW  Elec       q    Type
REMARK                         _______ _______ _______ _____ _____    ______ ____
ROOT
ATOM      1  N   UNL     1       5.099   4.477  15.700  0.00  0.00    +0.000 N 
ATOM      2  C   UNL     1       4.497   3.915  16.802  0.00  0.00    +0.000 C 
ATOM      3  O   UNL     1       5.084   3.150  17.562  0.00  0.00    +0.000 OA
ATOM      4  H   UNL     1       4.591   5.111  15.093  0.00  0.00    +0.000 HD
ENDROOT
BRANCH   1   5
ATOM      5  C   UNL     1       6.512   4.238  15.403  0.00  0.00    +0.000 C 
BRANCH   5   6
ATOM      6  C   UNL     1       7.340   5.075  16.388  0.00  0.00    +0.000 C 
ATOM      7  N   UNL     1       7.912   4.385  17.419  0.00  0.00    +0.000 N 
ATOM      8  O   UNL     1       7.475   6.292  16.289  0.00  0.00    +0.000 OA
ATOM      9  H   UNL     1       7.839   3.380  17.517  0.00  0.00    +0.000 HD
ATOM     10  H   UNL     1       8.484   4.894  18.078  0.00  0.00    +0.000 HD
ENDBRANCH   5   6
BRANCH   5  11
ATOM     11  C   UNL     1       6.862   4.624  13.962  0.00  0.00    +0.000 C 
BRANCH  11  13
ATOM     12  C   UNL     1       5.495   3.195  12.162  0.00  0.00    +0.000 C 
ATOM     13  C   UNL     1       6.107   3.827  12.981  0.00  0.00    +0.000 C 
ENDBRANCH  11  13
ENDBRANCH   5  11
ENDBRANCH   1   5
BRANCH   2  14
ATOM     14  C   UNL     1       3.060   4.333  17.038  0.00  0.00    +0.000 C 
BRANCH  14  15
ATOM     15  C   UNL     1       2.545   3.871  18.377  0.00  0.00    +0.000 A 
ATOM     16  C   UNL     1       2.525   4.733  19.485  0.00  0.00    +0.000 A 
ATOM     17  C   UNL     1       2.056   4.271  20.714  0.00  0.00    +0.000 A 
ATOM     18  F   UNL     1       2.058   5.094  21.771  0.00  0.00    +0.000 F 
ATOM     19  C   UNL     1       1.595   2.965  20.849  0.00  0.00    +0.000 A 
ATOM     20  F   UNL     1       1.161   2.521  22.036  0.00  0.00    +0.000 F 
ATOM     21  C   UNL     1       1.583   2.108  19.756  0.00  0.00    +0.000 A 
ATOM     22  C   UNL     1       2.051   2.570  18.530  0.00  0.00    +0.000 A 
ATOM     23  F   UNL     1       2.038   1.741  17.477  0.00  0.00    +0.000 F 
ENDBRANCH  14  15
ENDBRANCH   2  14
TORSDOF 6
ENDMDL
MODEL 6
REMARK VINA RESULT:      -7.3      1.978      3.108
REMARK  Name = 
REMARK  6 active torsions:
REMARK  status: ('A' for Active; 'I' for Inactive)
REMARK    1  A    between atoms: C_2  and  C_3
REMARK    2  A    between atoms: C_3  and  C_4
REMARK    3  A    between atoms: C_4  and  N_5
REMARK    4  A    between atoms: C_4  and  C_18
REMARK    5  A    between atoms: C_6  and  C_8
REMARK    6  A    between atoms: C_8  and  C_9
REMARK                            x       y       z     vdW  Elec       q    Type
REMARK                         _______ _______ _______ _____ _____    ______ ____
ROOT
ATOM      1  N   UNL     1       5.126   5.021  16.063  0.00  0.00    +0.000 N 
ATOM      2  C   UNL     1       4.313   4.319  16.921  0.00  0.00    +0.000 C 
ATOM      3  O   UNL     1       4.574   3.181  17.302  0.00  0.00    +0.000 OA
ATOM      4  H   UNL     1       4.888   5.963  15.770  0.00  0.00    +0.000 HD
ENDROOT
BRANCH   1   5
ATOM      5  C   UNL     1       6.397   4.465  15.596  0.00  0.00    +0.000 C 
BRANCH   5   6
ATOM      6  C   UNL     1       7.493   4.946  16.557  0.00  0.00    +0.000 C 
ATOM      7  N   UNL     1       7.673   6.298  16.624  0.00  0.00    +0.000 N 
ATOM      8  O   UNL     1       8.192   4.181  17.216  0.00  0.00    +0.000 OA
ATOM      9  H   UNL     1       7.100   6.957  16.112  0.00  0.00    +0.000 HD
ATOM     10  H   UNL     1       8.369   6.659  17.261  0.00  0.00    +0.000 HD
ENDBRANCH   5   6
BRANCH   5  11
ATOM     11  C   UNL     1       6.720   4.910  14.165  0.00  0.00    +0.000 C 
BRANCH  11  13
ATOM     12  C   UNL     1       5.838   3.174  12.333  0.00  0.00    +0.000 C 
ATOM     13  C   UNL     1       6.229   3.946  13.167  0.00  0.00    +0.000 C 
ENDBRANCH  11  13
ENDBRANCH   5  11
ENDBRANCH   1   5
BRANCH   2  14
ATOM     14  C   UNL     1       3.081   5.062  17.399  0.00  0.00    +0.000 C 
BRANCH  14  15
ATOM     15  C   UNL     1       2.469   4.425  18.621  0.00  0.00    +0.000 A 
ATOM     16  C   UNL     1       1.429   3.489  18.509  0.00  0.00    +0.000 A 
ATOM     17  C   UNL     1       0.875   2.929  19.659  0.00  0.00    +0.000 A 
ATOM     18  F   UNL     1      -0.130   2.050  19.544  0.00  0.00    +0.000 F 
ATOM     19  C   UNL     1       1.353   3.280  20.917  0.00  0.00    +0.000 A 
ATOM     20  F   UNL     1       0.806   2.751  22.020  0.00  0.00    +0.000 F 
ATOM     21  C   UNL     1       2.399   4.185  21.044  0.00  0.00    +0.000 A 
ATOM     22  C   UNL     1       2.952   4.743  19.895  0.00  0.00    +0.000 A 
ATOM     23  F   UNL     1       3.962   5.615  20.021  0.00  0.00    +0.000 F 
ENDBRANCH  14  15
ENDBRANCH   2  14
TORSDOF 6
ENDMDL
MODEL 7
REMARK VINA RESULT:      -7.2      2.021      2.718
REMARK  Name = 
REMARK  6 active torsions:
REMARK  status: ('A' for Active; 'I' for Inactive)
REMARK    1  A    between atoms: C_2  and  C_3
REMARK    2  A    between atoms: C_3  and  C_4
REMARK    3  A    between atoms: C_4  and  N_5
REMARK    4  A    between atoms: C_4  and  C_18
REMARK    5  A    between atoms: C_6  and  C_8
REMARK    6  A    between atoms: C_8  and  C_9
REMARK                            x       y       z     vdW  Elec       q    Type
REMARK                         _______ _______ _______ _____ _____    ______ ____
ROOT
ATOM      1  N   UNL     1       5.320   5.221  17.391  0.00  0.00    +0.000 N 
ATOM      2  C   UNL     1       4.057   4.739  17.146  0.00  0.00    +0.000 C 
ATOM      3  O   UNL     1       3.844   3.761  16.433  0.00  0.00    +0.000 OA
ATOM      4  H   UNL     1       5.466   6.026  17.990  0.00  0.00    +0.000 HD
ENDROOT
BRANCH   1   5
ATOM      5  C   UNL     1       6.506   4.549  16.857  0.00  0.00    +0.000 C 
BRANCH   5   6
ATOM      6  C   UNL     1       7.601   4.618  17.931  0.00  0.00    +0.000 C 
ATOM      7  N   UNL     1       7.320   5.398  19.016  0.00  0.00    +0.000 N 
ATOM      8  O   UNL     1       8.679   4.037  17.830  0.00  0.00    +0.000 OA
ATOM      9  H   UNL     1       6.434   5.871  19.140  0.00  0.00    +0.000 HD
ATOM     10  H   UNL     1       8.005   5.453  19.757  0.00  0.00    +0.000 HD
ENDBRANCH   5   6
BRANCH   5  11
ATOM     11  C   UNL     1       6.997   5.206  15.562  0.00  0.00    +0.000 C 
BRANCH  11  13
ATOM     12  C   UNL     1       6.217   3.824  13.410  0.00  0.00    +0.000 C 
ATOM     13  C   UNL     1       6.567   4.457  14.370  0.00  0.00    +0.000 C 
ENDBRANCH  11  13
ENDBRANCH   5  11
ENDBRANCH   1   5
BRANCH   2  14
ATOM     14  C   UNL     1       2.934   5.477  17.848  0.00  0.00    +0.000 C 
BRANCH  14  15
ATOM     15  C   UNL     1       2.346   4.677  18.982  0.00  0.00    +0.000 A 
ATOM     16  C   UNL     1       2.783   4.857  20.303  0.00  0.00    +0.000 A 
ATOM     17  C   UNL     1       2.229   4.090  21.327  0.00  0.00    +0.000 A 
ATOM     18  F   UNL     1       2.666   4.256  22.583  0.00  0.00    +0.000 F 
ATOM     19  C   UNL     1       1.236   3.155  21.052  0.00  0.00    +0.000 A 
ATOM     20  F   UNL     1       0.719   2.409  22.037  0.00  0.00    +0.000 F 
ATOM     21  C   UNL     1       0.774   2.983  19.754  0.00  0.00    +0.000 A 
ATOM     22  C   UNL     1       1.328   3.749  18.732  0.00  0.00    +0.000 A 
ATOM     23  F   UNL     1       0.879   3.582  17.481  0.00  0.00    +0.000 F 
ENDBRANCH  14  15
ENDBRANCH   2  14
TORSDOF 6
ENDMDL
MODEL 8
REMARK VINA RESULT:      -7.2      2.170      2.672
REMARK  Name = 
REMARK  6 active torsions:
REMARK  status: ('A' for Active; 'I' for Inactive)
REMARK    1  A    between atoms: C_2  and  C_3
REMARK    2  A    between atoms: C_3  and  C_4
REMARK    3  A    between atoms: C_4  and  N_5
REMARK    4  A    between atoms: C_4  and  C_18
REMARK    5  A    between atoms: C_6  and  C_8
REMARK    6  A    between atoms: C_8  and  C_9
REMARK                            x       y       z     vdW  Elec       q    Type
REMARK                         _______ _______ _______ _____ _____    ______ ____
ROOT
ATOM      1  N   UNL     1       5.356   6.316  17.766  0.00  0.00    +0.000 N 
ATOM      2  C   UNL     1       5.137   5.601  18.919  0.00  0.00    +0.000 C 
ATOM      3  O   UNL     1       5.985   4.865  19.416  0.00  0.00    +0.000 OA
ATOM      4  H   UNL     1       4.639   6.922  17.381  0.00  0.00    +0.000 HD
ENDROOT
BRANCH   1   5
ATOM      5  C   UNL     1       6.653   6.287  17.089  0.00  0.00    +0.000 C 
BRANCH   5   6
ATOM      6  C   UNL     1       6.894   4.847  16.612  0.00  0.00    +0.000 C 
ATOM      7  N   UNL     1       7.972   4.213  17.159  0.00  0.00    +0.000 N 
ATOM      8  O   UNL     1       6.188   4.289  15.775  0.00  0.00    +0.000 OA
ATOM      9  H   UNL     1       8.559   4.635  17.866  0.00  0.00    +0.000 HD
ATOM     10  H   UNL     1       8.154   3.256  16.889  0.00  0.00    +0.000 HD
ENDBRANCH   5   6
BRANCH   5  11
ATOM     11  C   UNL     1       7.789   6.729  18.018  0.00  0.00    +0.000 C 
BRANCH  11  13
ATOM     12  C   UNL     1       8.198   9.368  17.881  0.00  0.00    +0.000 C 
ATOM     13  C   UNL     1       8.013   8.182  17.956  0.00  0.00    +0.000 C 
ENDBRANCH  11  13
ENDBRANCH   5  11
ENDBRANCH   1   5
BRANCH   2  14
ATOM     14  C   UNL     1       3.780   5.810  19.562  0.00  0.00    +0.000 C 
BRANCH  14  15
ATOM     15  C   UNL     1       2.838   4.664  19.291  0.00  0.00    +0.000 A 
ATOM     16  C   UNL     1       3.123   3.707  18.304  0.00  0.00    +0.000 A 
ATOM     17  C   UNL     1       2.224   2.668  18.068  0.00  0.00    +0.000 A 
ATOM     18  F   UNL     1       2.495   1.770  17.111  0.00  0.00    +0.000 F 
ATOM     19  C   UNL     1       1.052   2.564  18.811  0.00  0.00    +0.000 A 
ATOM     20  F   UNL     1       0.184   1.574  18.568  0.00  0.00    +0.000 F 
ATOM     21  C   UNL     1       0.768   3.488  19.808  0.00  0.00    +0.000 A 
ATOM     22  C   UNL     1       1.667   4.525  20.044  0.00  0.00    +0.000 A 
ATOM     23  F   UNL     1       1.391   5.414  21.008  0.00  0.00    +0.000 F 
ENDBRANCH  14  15
ENDBRANCH   2  14
TORSDOF 6
ENDMDL
MODEL 9
REMARK VINA RESULT:      -7.2      1.318      2.493
REMARK  Name = 
REMARK  6 active torsions:
REMARK  status: ('A' for Active; 'I' for Inactive)
REMARK    1  A    between atoms: C_2  and  C_3
REMARK    2  A    between atoms: C_3  and  C_4
REMARK    3  A    between atoms: C_4  and  N_5
REMARK    4  A    between atoms: C_4  and  C_18
REMARK    5  A    between atoms: C_6  and  C_8
REMARK    6  A    between atoms: C_8  and  C_9
REMARK                            x       y       z     vdW  Elec       q    Type
REMARK                         _______ _______ _______ _____ _____    ______ ____
ROOT
ATOM      1  N   UNL     1       5.656   3.367  16.120  0.00  0.00    +0.000 N 
ATOM      2  C   UNL     1       4.527   4.050  16.505  0.00  0.00    +0.000 C 
ATOM      3  O   UNL     1       4.486   5.275  16.586  0.00  0.00    +0.000 OA
ATOM      4  H   UNL     1       5.659   2.355  16.055  0.00  0.00    +0.000 HD
ENDROOT
BRANCH   1   5
ATOM      5  C   UNL     1       6.873   4.076  15.721  0.00  0.00    +0.000 C 
BRANCH   5   6
ATOM      6  C   UNL     1       7.264   5.010  16.876  0.00  0.00    +0.000 C 
ATOM      7  N   UNL     1       7.296   4.439  18.116  0.00  0.00    +0.000 N 
ATOM      8  O   UNL     1       7.514   6.202  16.721  0.00  0.00    +0.000 OA
ATOM      9  H   UNL     1       7.118   3.456  18.275  0.00  0.00    +0.000 HD
ATOM     10  H   UNL     1       7.570   5.013  18.901  0.00  0.00    +0.000 HD
ENDBRANCH   5   6
BRANCH   5  11
ATOM     11  C   UNL     1       6.664   4.886  14.438  0.00  0.00    +0.000 C 
BRANCH  11  13
ATOM     12  C   UNL     1       6.015   3.309  12.378  0.00  0.00    +0.000 C 
ATOM     13  C   UNL     1       6.316   4.025  13.296  0.00  0.00    +0.000 C 
ENDBRANCH  11  13
ENDBRANCH   5  11
ENDBRANCH   1   5
BRANCH   2  14
ATOM     14  C   UNL     1       3.314   3.187  16.791  0.00  0.00    +0.000 C 
BRANCH  14  15
ATOM     15  C   UNL     1       2.908   3.236  18.242  0.00  0.00    +0.000 A 
ATOM     16  C   UNL     1       3.669   2.594  19.231  0.00  0.00    +0.000 A 
ATOM     17  C   UNL     1       3.259   2.646  20.563  0.00  0.00    +0.000 A 
ATOM     18  F   UNL     1       3.981   2.015  21.498  0.00  0.00    +0.000 F 
ATOM     19  C   UNL     1       2.108   3.341  20.921  0.00  0.00    +0.000 A 
ATOM     20  F   UNL     1       1.709   3.373  22.200  0.00  0.00    +0.000 F 
ATOM     21  C   UNL     1       1.358   4.003  19.958  0.00  0.00    +0.000 A 
ATOM     22  C   UNL     1       1.769   3.951  18.629  0.00  0.00    +0.000 A 
ATOM     23  F   UNL     1       1.045   4.592  17.702  0.00  0.00    +0.000 F 
ENDBRANCH  14  15
ENDBRANCH   2  14
TORSDOF 6
ENDMDL
