MODEL 1
REMARK VINA RESULT:      -7.9      0.000      0.000
REMARK  Name = 
REMARK  10 active torsions:
REMARK  status: ('A' for Active; 'I' for Inactive)
REMARK    1  A    between atoms: C_1  and  O_2
REMARK    2  A    between atoms: O_2  and  C_3
REMARK    3  A    between atoms: C_6  and  N_7
REMARK    4  A    between atoms: N_7  and  C_8
REMARK    5  A    between atoms: C_8  and  O_9
REMARK    6  A    between atoms: C_16  and  C_17
REMARK    7  A    between atoms: C_17  and  C_18
REMARK    8  A    between atoms: C_20  and  O_21
REMARK    9  A    between atoms: C_23  and  N_24
REMARK   10  A    between atoms: C_25  and  C_26
REMARK                            x       y       z     vdW  Elec       q    Type
REMARK                         _______ _______ _______ _____ _____    ______ ____
ROOT
ATOM      1  C   UNL     1       1.255   8.635  20.877  0.00  0.00    +0.000 C 
ATOM      2  C   UNL     1       0.466   9.723  20.696  0.00  0.00    +0.000 C 
ATOM      3  C   UNL     1       0.131  10.135  19.314  0.00  0.00    +0.000 C 
ATOM      4  O   UNL     1       0.682   9.643  18.330  0.00  0.00    +0.000 OA
ATOM      5  O   UNL     1      -0.837  11.057  19.148  0.00  0.00    +0.000 OA
ATOM      6  C   UNL     1      -1.498  11.637  20.168  0.00  0.00    +0.000 C 
ATOM      7  O   UNL     1      -2.484  12.325  19.929  0.00  0.00    +0.000 OA
ATOM      8  C   UNL     1      -1.024  11.467  21.545  0.00  0.00    +0.000 C 
ATOM      9  C   UNL     1      -0.082  10.540  21.770  0.00  0.00    +0.000 C 
ENDROOT
BRANCH   8  10
ATOM     10  C   UNL     1      -1.611  12.228  22.699  0.00  0.00    +0.000 C 
ATOM     11  C   UNL     1      -1.142  13.625  23.015  0.00  0.00    +0.000 C 
ATOM     12  O   UNL     1      -2.490  11.737  23.413  0.00  0.00    +0.000 OA
ENDBRANCH   8  10
BRANCH   1  13
ATOM     13  N   UNL     1       1.846   7.898  19.861  0.00  0.00    +0.000 N 
ATOM     14  H   UNL     1       1.895   8.428  18.980  0.00  0.00    +0.000 HD
BRANCH  13  18
ATOM     15  C   UNL     1       3.433   3.971  19.665  0.00  0.00    +0.000 A 
ATOM     16  C   UNL     1       2.202   4.239  20.276  0.00  0.00    +0.000 A 
ATOM     17  C   UNL     1       1.688   5.539  20.305  0.00  0.00    +0.000 A 
ATOM     18  C   UNL     1       2.383   6.610  19.734  0.00  0.00    +0.000 A 
ATOM     19  C   UNL     1       3.555   6.294  19.046  0.00  0.00    +0.000 A 
ATOM     20  C   UNL     1       4.089   5.001  18.970  0.00  0.00    +0.000 A 
BRANCH  20  21
ATOM     21  N   UNL     1       5.279   4.737  18.230  0.00  0.00    +0.000 N 
ATOM     22  C   UNL     1       6.582   4.938  18.670  0.00  0.00    +0.000 C 
ATOM     23  C   UNL     1       7.651   4.639  17.654  0.00  0.00    +0.000 C 
ATOM     24  O   UNL     1       6.932   5.321  19.787  0.00  0.00    +0.000 OA
ATOM     25  H   UNL     1       5.124   4.425  17.277  0.00  0.00    +0.000 HD
ENDBRANCH  20  21
BRANCH  15  27
ATOM     26  C   UNL     1       3.459   1.766  18.838  0.00  0.00    +0.000 C 
ATOM     27  O   UNL     1       4.038   2.736  19.726  0.00  0.00    +0.000 OA
ENDBRANCH  15  27
ENDBRANCH  13  18
ENDBRANCH   1  13
BRANCH   1  28
ATOM     28  O   UNL     1       1.526   8.278  22.189  0.00  0.00    +0.000 OA
ATOM     29  H   UNL     1       0.772   8.540  22.734  0.00  0.00    +0.000 HD
ENDBRANCH   1  28
BRANCH   9  30
ATOM     30  O   UNL     1       0.427  10.347  23.042  0.00  0.00    +0.000 OA
ATOM     31  H   UNL     1       1.385  10.155  22.980  0.00  0.00    +0.000 HD
ENDBRANCH   9  30
TORSDOF 7
ENDMDL
MODEL 2
REMARK VINA RESULT:      -7.8      2.365      8.662
REMARK  Name = 
REMARK  10 active torsions:
REMARK  status: ('A' for Active; 'I' for Inactive)
REMARK    1  A    between atoms: C_1  and  O_2
REMARK    2  A    between atoms: O_2  and  C_3
REMARK    3  A    between atoms: C_6  and  N_7
REMARK    4  A    between atoms: N_7  and  C_8
REMARK    5  A    between atoms: C_8  and  O_9
REMARK    6  A    between atoms: C_16  and  C_17
REMARK    7  A    between atoms: C_17  and  C_18
REMARK    8  A    between atoms: C_20  and  O_21
REMARK    9  A    between atoms: C_23  and  N_24
REMARK   10  A    between atoms: C_25  and  C_26
REMARK                            x       y       z     vdW  Elec       q    Type
REMARK                         _______ _______ _______ _____ _____    ______ ____
ROOT
ATOM      1  C   UNL     1       2.212   7.320  19.846  0.00  0.00    +0.000 C 
ATOM      2  C   UNL     1       2.870   6.401  19.097  0.00  0.00    +0.000 C 
ATOM      3  C   UNL     1       3.499   6.836  17.829  0.00  0.00    +0.000 C 
ATOM      4  O   UNL     1       3.294   7.947  17.342  0.00  0.00    +0.000 OA
ATOM      5  O   UNL     1       4.345   5.985  17.220  0.00  0.00    +0.000 OA
ATOM      6  C   UNL     1       4.634   4.756  17.690  0.00  0.00    +0.000 C 
ATOM      7  O   UNL     1       5.549   4.119  17.179  0.00  0.00    +0.000 OA
ATOM      8  C   UNL     1       3.843   4.179  18.781  0.00  0.00    +0.000 C 
ATOM      9  C   UNL     1       3.006   4.992  19.441  0.00  0.00    +0.000 C 
ENDROOT
BRANCH   8  10
ATOM     10  C   UNL     1       4.002   2.754  19.226  0.00  0.00    +0.000 C 
ATOM     11  C   UNL     1       3.315   1.636  18.482  0.00  0.00    +0.000 C 
ATOM     12  O   UNL     1       4.697   2.458  20.202  0.00  0.00    +0.000 OA
ENDBRANCH   8  10
BRANCH   1  13
ATOM     13  N   UNL     1       2.010   8.645  19.490  0.00  0.00    +0.000 N 
ATOM     14  H   UNL     1       2.884   9.102  19.193  0.00  0.00    +0.000 HD
BRANCH  13  18
ATOM     15  C   UNL     1      -1.370  11.206  19.511  0.00  0.00    +0.000 A 
ATOM     16  C   UNL     1      -0.607  10.981  20.664  0.00  0.00    +0.000 A 
ATOM     17  C   UNL     1       0.518  10.153  20.625  0.00  0.00    +0.000 A 
ATOM     18  C   UNL     1       0.916   9.519  19.443  0.00  0.00    +0.000 A 
ATOM     19  C   UNL     1       0.196   9.843  18.292  0.00  0.00    +0.000 A 
ATOM     20  C   UNL     1      -0.920  10.690  18.284  0.00  0.00    +0.000 A 
BRANCH  20  21
ATOM     21  N   UNL     1      -1.600  11.002  17.070  0.00  0.00    +0.000 N 
ATOM     22  C   UNL     1      -2.714  10.345  16.559  0.00  0.00    +0.000 C 
ATOM     23  C   UNL     1      -3.186  10.841  15.219  0.00  0.00    +0.000 C 
ATOM     24  O   UNL     1      -3.335   9.425  17.090  0.00  0.00    +0.000 OA
ATOM     25  H   UNL     1      -1.173  11.744  16.525  0.00  0.00    +0.000 HD
ENDBRANCH  20  21
BRANCH  15  27
ATOM     26  C   UNL     1      -2.557  13.011  20.447  0.00  0.00    +0.000 C 
ATOM     27  O   UNL     1      -2.556  11.905  19.531  0.00  0.00    +0.000 OA
ENDBRANCH  15  27
ENDBRANCH  13  18
ENDBRANCH   1  13
BRANCH   1  28
ATOM     28  O   UNL     1       1.657   6.869  21.034  0.00  0.00    +0.000 OA
ATOM     29  H   UNL     1       0.740   7.174  21.073  0.00  0.00    +0.000 HD
ENDBRANCH   1  28
BRANCH   9  30
ATOM     30  O   UNL     1       2.212   4.506  20.464  0.00  0.00    +0.000 OA
ATOM     31  H   UNL     1       1.782   3.676  20.172  0.00  0.00    +0.000 HD
ENDBRANCH   9  30
TORSDOF 7
ENDMDL
MODEL 3
REMARK VINA RESULT:      -7.8      1.515      2.633
REMARK  Name = 
REMARK  10 active torsions:
REMARK  status: ('A' for Active; 'I' for Inactive)
REMARK    1  A    between atoms: C_1  and  O_2
REMARK    2  A    between atoms: O_2  and  C_3
REMARK    3  A    between atoms: C_6  and  N_7
REMARK    4  A    between atoms: N_7  and  C_8
REMARK    5  A    between atoms: C_8  and  O_9
REMARK    6  A    between atoms: C_16  and  C_17
REMARK    7  A    between atoms: C_17  and  C_18
REMARK    8  A    between atoms: C_20  and  O_21
REMARK    9  A    between atoms: C_23  and  N_24
REMARK   10  A    between atoms: C_25  and  C_26
REMARK                            x       y       z     vdW  Elec       q    Type
REMARK                         _______ _______ _______ _____ _____    ______ ____
ROOT
ATOM      1  C   UNL     1       1.602   8.571  19.555  0.00  0.00    +0.000 C 
ATOM      2  C   UNL     1       1.109   9.734  20.048  0.00  0.00    +0.000 C 
ATOM      3  C   UNL     1       0.842   9.831  21.501  0.00  0.00    +0.000 C 
ATOM      4  O   UNL     1       0.876   8.850  22.243  0.00  0.00    +0.000 OA
ATOM      5  O   UNL     1       0.585  11.049  22.015  0.00  0.00    +0.000 OA
ATOM      6  C   UNL     1       0.539  12.175  21.277  0.00  0.00    +0.000 C 
ATOM      7  O   UNL     1       0.483  13.261  21.845  0.00  0.00    +0.000 OA
ATOM      8  C   UNL     1       0.528  12.098  19.814  0.00  0.00    +0.000 C 
ATOM      9  C   UNL     1       0.807  10.914  19.250  0.00  0.00    +0.000 C 
ENDROOT
BRANCH   8  10
ATOM     10  C   UNL     1       0.301  13.302  18.945  0.00  0.00    +0.000 C 
ATOM     11  C   UNL     1       1.372  14.352  18.794  0.00  0.00    +0.000 C 
ATOM     12  O   UNL     1      -0.758  13.461  18.331  0.00  0.00    +0.000 OA
ENDBRANCH   8  10
BRANCH   1  13
ATOM     13  N   UNL     1       1.818   7.416  20.292  0.00  0.00    +0.000 N 
ATOM     14  H   UNL     1       1.501   7.518  21.266  0.00  0.00    +0.000 HD
BRANCH  13  18
ATOM     15  C   UNL     1       3.450   3.543  19.730  0.00  0.00    +0.000 A 
ATOM     16  C   UNL     1       2.222   3.740  20.373  0.00  0.00    +0.000 A 
ATOM     17  C   UNL     1       1.692   5.025  20.523  0.00  0.00    +0.000 A 
ATOM     18  C   UNL     1       2.369   6.152  20.045  0.00  0.00    +0.000 A 
ATOM     19  C   UNL     1       3.539   5.915  19.322  0.00  0.00    +0.000 A 
ATOM     20  C   UNL     1       4.087   4.640  19.125  0.00  0.00    +0.000 A 
BRANCH  20  21
ATOM     21  N   UNL     1       5.273   4.459  18.355  0.00  0.00    +0.000 N 
ATOM     22  C   UNL     1       6.556   4.855  18.716  0.00  0.00    +0.000 C 
ATOM     23  C   UNL     1       7.617   4.600  17.679  0.00  0.00    +0.000 C 
ATOM     24  O   UNL     1       6.895   5.376  19.778  0.00  0.00    +0.000 OA
ATOM     25  H   UNL     1       5.124   4.048  17.440  0.00  0.00    +0.000 HD
ENDBRANCH  20  21
BRANCH  15  27
ATOM     26  C   UNL     1       3.569   1.463  18.634  0.00  0.00    +0.000 C 
ATOM     27  O   UNL     1       4.070   2.316  19.675  0.00  0.00    +0.000 OA
ENDBRANCH  15  27
ENDBRANCH  13  18
ENDBRANCH   1  13
BRANCH   1  28
ATOM     28  O   UNL     1       1.854   8.534  18.192  0.00  0.00    +0.000 OA
ATOM     29  H   UNL     1       1.158   8.012  17.771  0.00  0.00    +0.000 HD
ENDBRANCH   1  28
BRANCH   9  30
ATOM     30  O   UNL     1       0.789  10.767  17.875  0.00  0.00    +0.000 OA
ATOM     31  H   UNL     1       0.598  11.633  17.460  0.00  0.00    +0.000 HD
ENDBRANCH   9  30
TORSDOF 7
ENDMDL
MODEL 4
REMARK VINA RESULT:      -7.8      1.021      1.021
REMARK  Name = 
REMARK  10 active torsions:
REMARK  status: ('A' for Active; 'I' for Inactive)
REMARK    1  A    between atoms: C_1  and  O_2
REMARK    2  A    between atoms: O_2  and  C_3
REMARK    3  A    between atoms: C_6  and  N_7
REMARK    4  A    between atoms: N_7  and  C_8
REMARK    5  A    between atoms: C_8  and  O_9
REMARK    6  A    between atoms: C_16  and  C_17
REMARK    7  A    between atoms: C_17  and  C_18
REMARK    8  A    between atoms: C_20  and  O_21
REMARK    9  A    between atoms: C_23  and  N_24
REMARK   10  A    between atoms: C_25  and  C_26
REMARK                            x       y       z     vdW  Elec       q    Type
REMARK                         _______ _______ _______ _____ _____    ______ ____
ROOT
ATOM      1  C   UNL     1       1.433   8.587  20.729  0.00  0.00    +0.000 C 
ATOM      2  C   UNL     1       0.622   9.663  20.577  0.00  0.00    +0.000 C 
ATOM      3  C   UNL     1       0.267  10.095  19.206  0.00  0.00    +0.000 C 
ATOM      4  O   UNL     1       0.820   9.635  18.208  0.00  0.00    +0.000 OA
ATOM      5  O   UNL     1      -0.720  11.001  19.066  0.00  0.00    +0.000 OA
ATOM      6  C   UNL     1      -1.384  11.547  20.103  0.00  0.00    +0.000 C 
ATOM      7  O   UNL     1      -2.385  12.221  19.885  0.00  0.00    +0.000 OA
ATOM      8  C   UNL     1      -0.895  11.359  21.472  0.00  0.00    +0.000 C 
ATOM      9  C   UNL     1       0.066  10.447  21.671  0.00  0.00    +0.000 C 
ENDROOT
BRANCH   8  10
ATOM     10  C   UNL     1      -1.488  12.085  22.646  0.00  0.00    +0.000 C 
ATOM     11  C   UNL     1      -1.077  13.501  22.961  0.00  0.00    +0.000 C 
ATOM     12  O   UNL     1      -2.325  11.549  23.378  0.00  0.00    +0.000 OA
ENDBRANCH   8  10
BRANCH   1  13
ATOM     13  N   UNL     1       2.030   7.882  19.694  0.00  0.00    +0.000 N 
ATOM     14  H   UNL     1       2.313   8.501  18.921  0.00  0.00    +0.000 HD
BRANCH  13  18
ATOM     15  C   UNL     1       2.997   3.797  19.099  0.00  0.00    +0.000 A 
ATOM     16  C   UNL     1       2.180   4.215  20.157  0.00  0.00    +0.000 A 
ATOM     17  C   UNL     1       1.855   5.565  20.316  0.00  0.00    +0.000 A 
ATOM     18  C   UNL     1       2.335   6.540  19.435  0.00  0.00    +0.000 A 
ATOM     19  C   UNL     1       3.062   6.080  18.336  0.00  0.00    +0.000 A 
ATOM     20  C   UNL     1       3.385   4.732  18.125  0.00  0.00    +0.000 A 
BRANCH  20  21
ATOM     21  N   UNL     1       4.111   4.321  16.969  0.00  0.00    +0.000 N 
ATOM     22  C   UNL     1       5.494   4.263  16.843  0.00  0.00    +0.000 C 
ATOM     23  C   UNL     1       5.994   3.858  15.483  0.00  0.00    +0.000 C 
ATOM     24  O   UNL     1       6.324   4.501  17.721  0.00  0.00    +0.000 OA
ATOM     25  H   UNL     1       3.534   4.109  16.161  0.00  0.00    +0.000 HD
ENDBRANCH  20  21
BRANCH  15  27
ATOM     26  C   UNL     1       4.415   2.134  19.975  0.00  0.00    +0.000 C 
ATOM     27  O   UNL     1       3.449   2.502  18.978  0.00  0.00    +0.000 OA
ENDBRANCH  15  27
ENDBRANCH  13  18
ENDBRANCH   1  13
BRANCH   1  28
ATOM     28  O   UNL     1       1.721   8.209  22.031  0.00  0.00    +0.000 OA
ATOM     29  H   UNL     1       1.107   7.506  22.284  0.00  0.00    +0.000 HD
ENDBRANCH   1  28
BRANCH   9  30
ATOM     30  O   UNL     1       0.589  10.238  22.935  0.00  0.00    +0.000 OA
ATOM     31  H   UNL     1       1.250  10.934  23.130  0.00  0.00    +0.000 HD
ENDBRANCH   9  30
TORSDOF 7
ENDMDL
MODEL 5
REMARK VINA RESULT:      -7.6      1.671      1.701
REMARK  Name = 
REMARK  10 active torsions:
REMARK  status: ('A' for Active; 'I' for Inactive)
REMARK    1  A    between atoms: C_1  and  O_2
REMARK    2  A    between atoms: O_2  and  C_3
REMARK    3  A    between atoms: C_6  and  N_7
REMARK    4  A    between atoms: N_7  and  C_8
REMARK    5  A    between atoms: C_8  and  O_9
REMARK    6  A    between atoms: C_16  and  C_17
REMARK    7  A    between atoms: C_17  and  C_18
REMARK    8  A    between atoms: C_20  and  O_21
REMARK    9  A    between atoms: C_23  and  N_24
REMARK   10  A    between atoms: C_25  and  C_26
REMARK                            x       y       z     vdW  Elec       q    Type
REMARK                         _______ _______ _______ _____ _____    ______ ____
ROOT
ATOM      1  C   UNL     1       1.704   8.345  20.066  0.00  0.00    +0.000 C 
ATOM      2  C   UNL     1       0.928   9.457  20.100  0.00  0.00    +0.000 C 
ATOM      3  C   UNL     1       0.591  10.127  18.823  0.00  0.00    +0.000 C 
ATOM      4  O   UNL     1       1.132   9.824  17.760  0.00  0.00    +0.000 OA
ATOM      5  O   UNL     1      -0.365  11.075  18.842  0.00  0.00    +0.000 OA
ATOM      6  C   UNL     1      -1.014  11.459  19.958  0.00  0.00    +0.000 C 
ATOM      7  O   UNL     1      -1.992  12.192  19.860  0.00  0.00    +0.000 OA
ATOM      8  C   UNL     1      -0.535  11.026  21.274  0.00  0.00    +0.000 C 
ATOM      9  C   UNL     1       0.395  10.062  21.313  0.00  0.00    +0.000 C 
ENDROOT
BRANCH   8  10
ATOM     10  C   UNL     1      -1.108  11.562  22.555  0.00  0.00    +0.000 C 
ATOM     11  C   UNL     1      -0.992  13.026  22.895  0.00  0.00    +0.000 C 
ATOM     12  O   UNL     1      -1.688  10.825  23.358  0.00  0.00    +0.000 OA
ENDBRANCH   8  10
BRANCH   1  13
ATOM     13  N   UNL     1       2.281   7.807  18.925  0.00  0.00    +0.000 N 
ATOM     14  H   UNL     1       2.535   8.535  18.243  0.00  0.00    +0.000 HD
BRANCH  13  18
ATOM     15  C   UNL     1       3.162   3.842  17.707  0.00  0.00    +0.000 A 
ATOM     16  C   UNL     1       1.931   4.181  18.283  0.00  0.00    +0.000 A 
ATOM     17  C   UNL     1       1.655   5.500  18.653  0.00  0.00    +0.000 A 
ATOM     18  C   UNL     1       2.593   6.521  18.466  0.00  0.00    +0.000 A 
ATOM     19  C   UNL     1       3.768   6.171  17.799  0.00  0.00    +0.000 A 
ATOM     20  C   UNL     1       4.070   4.866  17.388  0.00  0.00    +0.000 A 
BRANCH  20  21
ATOM     21  N   UNL     1       5.278   4.575  16.687  0.00  0.00    +0.000 N 
ATOM     22  C   UNL     1       5.790   5.280  15.604  0.00  0.00    +0.000 C 
ATOM     23  C   UNL     1       7.051   4.711  15.012  0.00  0.00    +0.000 C 
ATOM     24  O   UNL     1       5.322   6.302  15.102  0.00  0.00    +0.000 OA
ATOM     25  H   UNL     1       5.756   3.737  17.000  0.00  0.00    +0.000 HD
ENDBRANCH  20  21
BRANCH  15  27
ATOM     26  C   UNL     1       3.575   1.712  18.621  0.00  0.00    +0.000 C 
ATOM     27  O   UNL     1       3.527   2.541  17.448  0.00  0.00    +0.000 OA
ENDBRANCH  15  27
ENDBRANCH  13  18
ENDBRANCH   1  13
BRANCH   1  28
ATOM     28  O   UNL     1       1.976   7.743  21.285  0.00  0.00    +0.000 OA
ATOM     29  H   UNL     1       1.228   7.907  21.875  0.00  0.00    +0.000 HD
ENDBRANCH   1  28
BRANCH   9  30
ATOM     30  O   UNL     1       0.907   9.626  22.522  0.00  0.00    +0.000 OA
ATOM     31  H   UNL     1       1.762   9.173  22.366  0.00  0.00    +0.000 HD
ENDBRANCH   9  30
TORSDOF 7
ENDMDL
MODEL 6
REMARK VINA RESULT:      -7.5      1.950      2.910
REMARK  Name = 
REMARK  10 active torsions:
REMARK  status: ('A' for Active; 'I' for Inactive)
REMARK    1  A    between atoms: C_1  and  O_2
REMARK    2  A    between atoms: O_2  and  C_3
REMARK    3  A    between atoms: C_6  and  N_7
REMARK    4  A    between atoms: N_7  and  C_8
REMARK    5  A    between atoms: C_8  and  O_9
REMARK    6  A    between atoms: C_16  and  C_17
REMARK    7  A    between atoms: C_17  and  C_18
REMARK    8  A    between atoms: C_20  and  O_21
REMARK    9  A    between atoms: C_23  and  N_24
REMARK   10  A    between atoms: C_25  and  C_26
REMARK                            x       y       z     vdW  Elec       q    Type
REMARK                         _______ _______ _______ _____ _____    ______ ____
ROOT
ATOM      1  C   UNL     1       1.711   8.915  18.698  0.00  0.00    +0.000 C 
ATOM      2  C   UNL     1       0.865   9.537  19.556  0.00  0.00    +0.000 C 
ATOM      3  C   UNL     1       0.832   9.091  20.968  0.00  0.00    +0.000 C 
ATOM      4  O   UNL     1       1.402   8.068  21.347  0.00  0.00    +0.000 OA
ATOM      5  O   UNL     1       0.177   9.861  21.857  0.00  0.00    +0.000 OA
ATOM      6  C   UNL     1      -0.462  11.000  21.530  0.00  0.00    +0.000 C 
ATOM      7  O   UNL     1      -0.874  11.734  22.422  0.00  0.00    +0.000 OA
ATOM      8  C   UNL     1      -0.687  11.340  20.122  0.00  0.00    +0.000 C 
ATOM      9  C   UNL     1      -0.036  10.623  19.196  0.00  0.00    +0.000 C 
ENDROOT
BRANCH   8  10
ATOM     10  C   UNL     1      -1.544  12.499  19.700  0.00  0.00    +0.000 C 
ATOM     11  C   UNL     1      -3.046  12.420  19.798  0.00  0.00    +0.000 C 
ATOM     12  O   UNL     1      -1.046  13.543  19.267  0.00  0.00    +0.000 OA
ENDBRANCH   8  10
BRANCH   1  13
ATOM     13  N   UNL     1       2.514   7.829  19.012  0.00  0.00    +0.000 N 
ATOM     14  H   UNL     1       3.086   8.004  19.850  0.00  0.00    +0.000 HD
BRANCH  13  18
ATOM     15  C   UNL     1       3.159   3.907  17.534  0.00  0.00    +0.000 A 
ATOM     16  C   UNL     1       1.969   4.266  18.179  0.00  0.00    +0.000 A 
ATOM     17  C   UNL     1       1.770   5.572  18.634  0.00  0.00    +0.000 A 
ATOM     18  C   UNL     1       2.748   6.559  18.468  0.00  0.00    +0.000 A 
ATOM     19  C   UNL     1       3.878   6.197  17.734  0.00  0.00    +0.000 A 
ATOM     20  C   UNL     1       4.102   4.906  17.237  0.00  0.00    +0.000 A 
BRANCH  20  21
ATOM     21  N   UNL     1       5.266   4.603  16.471  0.00  0.00    +0.000 N 
ATOM     22  C   UNL     1       5.805   5.380  15.452  0.00  0.00    +0.000 C 
ATOM     23  C   UNL     1       7.004   4.785  14.764  0.00  0.00    +0.000 C 
ATOM     24  O   UNL     1       5.406   6.482  15.076  0.00  0.00    +0.000 OA
ATOM     25  H   UNL     1       5.686   3.703  16.679  0.00  0.00    +0.000 HD
ENDBRANCH  20  21
BRANCH  15  27
ATOM     26  C   UNL     1       3.377   1.687  18.287  0.00  0.00    +0.000 C 
ATOM     27  O   UNL     1       3.452   2.608  17.187  0.00  0.00    +0.000 OA
ENDBRANCH  15  27
ENDBRANCH  13  18
ENDBRANCH   1  13
BRANCH   1  28
ATOM     28  O   UNL     1       1.720   9.380  17.392  0.00  0.00    +0.000 OA
ATOM     29  H   UNL     1       2.518   9.049  16.959  0.00  0.00    +0.000 HD
ENDBRANCH   1  28
BRANCH   9  30
ATOM     30  O   UNL     1      -0.223  10.876  17.848  0.00  0.00    +0.000 OA
ATOM     31  H   UNL     1      -1.178  11.003  17.674  0.00  0.00    +0.000 HD
ENDBRANCH   9  30
TORSDOF 7
ENDMDL
MODEL 7
REMARK VINA RESULT:      -7.5      1.937      3.179
REMARK  Name = 
REMARK  10 active torsions:
REMARK  status: ('A' for Active; 'I' for Inactive)
REMARK    1  A    between atoms: C_1  and  O_2
REMARK    2  A    between atoms: O_2  and  C_3
REMARK    3  A    between atoms: C_6  and  N_7
REMARK    4  A    between atoms: N_7  and  C_8
REMARK    5  A    between atoms: C_8  and  O_9
REMARK    6  A    between atoms: C_16  and  C_17
REMARK    7  A    between atoms: C_17  and  C_18
REMARK    8  A    between atoms: C_20  and  O_21
REMARK    9  A    between atoms: C_23  and  N_24
REMARK   10  A    between atoms: C_25  and  C_26
REMARK                            x       y       z     vdW  Elec       q    Type
REMARK                         _______ _______ _______ _____ _____    ______ ____
ROOT
ATOM      1  C   UNL     1       0.345  10.348  20.895  0.00  0.00    +0.000 C 
ATOM      2  C   UNL     1      -0.726  11.179  20.934  0.00  0.00    +0.000 C 
ATOM      3  C   UNL     1      -1.322  11.630  19.656  0.00  0.00    +0.000 C 
ATOM      4  O   UNL     1      -0.777  11.430  18.571  0.00  0.00    +0.000 OA
ATOM      5  O   UNL     1      -2.516  12.250  19.701  0.00  0.00    +0.000 OA
ATOM      6  C   UNL     1      -3.185  12.499  20.843  0.00  0.00    +0.000 C 
ATOM      7  O   UNL     1      -4.343  12.899  20.784  0.00  0.00    +0.000 OA
ATOM      8  C   UNL     1      -2.524  12.319  22.138  0.00  0.00    +0.000 C 
ATOM      9  C   UNL     1      -1.346  11.680  22.153  0.00  0.00    +0.000 C 
ENDROOT
BRANCH   8  10
ATOM     10  C   UNL     1      -3.156  12.746  23.432  0.00  0.00    +0.000 C 
ATOM     11  C   UNL     1      -3.081  14.181  23.886  0.00  0.00    +0.000 C 
ATOM     12  O   UNL     1      -3.754  11.941  24.152  0.00  0.00    +0.000 OA
ENDBRANCH   8  10
BRANCH   1  13
ATOM     13  N   UNL     1       0.990   9.929  19.741  0.00  0.00    +0.000 N 
ATOM     14  H   UNL     1       0.941  10.636  18.994  0.00  0.00    +0.000 HD
BRANCH  13  18
ATOM     15  C   UNL     1       2.998   6.466  18.342  0.00  0.00    +0.000 A 
ATOM     16  C   UNL     1       2.920   7.635  17.574  0.00  0.00    +0.000 A 
ATOM     17  C   UNL     1       2.275   8.772  18.068  0.00  0.00    +0.000 A 
ATOM     18  C   UNL     1       1.684   8.781  19.336  0.00  0.00    +0.000 A 
ATOM     19  C   UNL     1       1.866   7.637  20.114  0.00  0.00    +0.000 A 
ATOM     20  C   UNL     1       2.530   6.488  19.666  0.00  0.00    +0.000 A 
BRANCH  20  21
ATOM     21  N   UNL     1       2.705   5.358  20.519  0.00  0.00    +0.000 N 
ATOM     22  C   UNL     1       1.771   4.358  20.762  0.00  0.00    +0.000 C 
ATOM     23  C   UNL     1       2.197   3.318  21.763  0.00  0.00    +0.000 C 
ATOM     24  O   UNL     1       0.661   4.245  20.242  0.00  0.00    +0.000 OA
ATOM     25  H   UNL     1       3.586   5.342  21.023  0.00  0.00    +0.000 HD
ENDBRANCH  20  21
BRANCH  15  27
ATOM     26  C   UNL     1       4.926   5.316  17.631  0.00  0.00    +0.000 C 
ATOM     27  O   UNL     1       3.506   5.286  17.847  0.00  0.00    +0.000 OA
ENDBRANCH  15  27
ENDBRANCH  13  18
ENDBRANCH   1  13
BRANCH   1  28
ATOM     28  O   UNL     1       0.856   9.938  22.117  0.00  0.00    +0.000 OA
ATOM     29  H   UNL     1       0.130   9.569  22.638  0.00  0.00    +0.000 HD
ENDBRANCH   1  28
BRANCH   9  30
ATOM     30  O   UNL     1      -0.657  11.499  23.340  0.00  0.00    +0.000 OA
ATOM     31  H   UNL     1      -1.054  10.751  23.832  0.00  0.00    +0.000 HD
ENDBRANCH   9  30
TORSDOF 7
ENDMDL
MODEL 8
REMARK VINA RESULT:      -7.5      1.104      1.104
REMARK  Name = 
REMARK  10 active torsions:
REMARK  status: ('A' for Active; 'I' for Inactive)
REMARK    1  A    between atoms: C_1  and  O_2
REMARK    2  A    between atoms: O_2  and  C_3
REMARK    3  A    between atoms: C_6  and  N_7
REMARK    4  A    between atoms: N_7  and  C_8
REMARK    5  A    between atoms: C_8  and  O_9
REMARK    6  A    between atoms: C_16  and  C_17
REMARK    7  A    between atoms: C_17  and  C_18
REMARK    8  A    between atoms: C_20  and  O_21
REMARK    9  A    between atoms: C_23  and  N_24
REMARK   10  A    between atoms: C_25  and  C_26
REMARK                            x       y       z     vdW  Elec       q    Type
REMARK                         _______ _______ _______ _____ _____    ______ ____
ROOT
ATOM      1  C   UNL     1       1.573   8.516  19.986  0.00  0.00    +0.000 C 
ATOM      2  C   UNL     1       0.749   9.591  20.044  0.00  0.00    +0.000 C 
ATOM      3  C   UNL     1       0.286  10.200  18.776  0.00  0.00    +0.000 C 
ATOM      4  O   UNL     1       0.759   9.885  17.685  0.00  0.00    +0.000 OA
ATOM      5  O   UNL     1      -0.711  11.103  18.838  0.00  0.00    +0.000 OA
ATOM      6  C   UNL     1      -1.292  11.495  19.988  0.00  0.00    +0.000 C 
ATOM      7  O   UNL     1      -2.309  12.179  19.942  0.00  0.00    +0.000 OA
ATOM      8  C   UNL     1      -0.696  11.132  21.277  0.00  0.00    +0.000 C 
ATOM      9  C   UNL     1       0.280  10.213  21.274  0.00  0.00    +0.000 C 
ENDROOT
BRANCH   8  10
ATOM     10  C   UNL     1      -1.196  11.685  22.580  0.00  0.00    +0.000 C 
ATOM     11  C   UNL     1      -1.006  13.141  22.920  0.00  0.00    +0.000 C 
ATOM     12  O   UNL     1      -1.776  10.969  23.403  0.00  0.00    +0.000 OA
ENDBRANCH   8  10
BRANCH   1  13
ATOM     13  N   UNL     1       2.089   7.965  18.822  0.00  0.00    +0.000 N 
ATOM     14  H   UNL     1       2.175   8.664  18.071  0.00  0.00    +0.000 HD
BRANCH  13  18
ATOM     15  C   UNL     1       3.246   4.039  17.712  0.00  0.00    +0.000 A 
ATOM     16  C   UNL     1       1.900   4.396  17.869  0.00  0.00    +0.000 A 
ATOM     17  C   UNL     1       1.543   5.703  18.210  0.00  0.00    +0.000 A 
ATOM     18  C   UNL     1       2.510   6.694  18.411  0.00  0.00    +0.000 A 
ATOM     19  C   UNL     1       3.833   6.333  18.149  0.00  0.00    +0.000 A 
ATOM     20  C   UNL     1       4.229   5.041  17.778  0.00  0.00    +0.000 A 
BRANCH  20  21
ATOM     21  N   UNL     1       5.595   4.740  17.500  0.00  0.00    +0.000 N 
ATOM     22  C   UNL     1       6.649   4.789  18.405  0.00  0.00    +0.000 C 
ATOM     23  C   UNL     1       8.003   4.488  17.823  0.00  0.00    +0.000 C 
ATOM     24  O   UNL     1       6.576   5.043  19.607  0.00  0.00    +0.000 OA
ATOM     25  H   UNL     1       5.790   4.526  16.527  0.00  0.00    +0.000 HD
ENDBRANCH  20  21
BRANCH  15  27
ATOM     26  C   UNL     1       3.493   1.898  18.659  0.00  0.00    +0.000 C 
ATOM     27  O   UNL     1       3.650   2.740  17.506  0.00  0.00    +0.000 OA
ENDBRANCH  15  27
ENDBRANCH  13  18
ENDBRANCH   1  13
BRANCH   1  28
ATOM     28  O   UNL     1       1.965   7.969  21.199  0.00  0.00    +0.000 OA
ATOM     29  H   UNL     1       2.131   8.695  21.816  0.00  0.00    +0.000 HD
ENDBRANCH   1  28
BRANCH   9  30
ATOM     30  O   UNL     1       0.902   9.844  22.454  0.00  0.00    +0.000 OA
ATOM     31  H   UNL     1       1.292  10.637  22.875  0.00  0.00    +0.000 HD
ENDBRANCH   9  30
TORSDOF 7
ENDMDL
MODEL 9
REMARK VINA RESULT:      -7.5      1.318      2.455
REMARK  Name = 
REMARK  10 active torsions:
REMARK  status: ('A' for Active; 'I' for Inactive)
REMARK    1  A    between atoms: C_1  and  O_2
REMARK    2  A    between atoms: O_2  and  C_3
REMARK    3  A    between atoms: C_6  and  N_7
REMARK    4  A    between atoms: N_7  and  C_8
REMARK    5  A    between atoms: C_8  and  O_9
REMARK    6  A    between atoms: C_16  and  C_17
REMARK    7  A    between atoms: C_17  and  C_18
REMARK    8  A    between atoms: C_20  and  O_21
REMARK    9  A    between atoms: C_23  and  N_24
REMARK   10  A    between atoms: C_25  and  C_26
REMARK                            x       y       z     vdW  Elec       q    Type
REMARK                         _______ _______ _______ _____ _____    ______ ____
ROOT
ATOM      1  C   UNL     1       1.227   9.063  19.759  0.00  0.00    +0.000 C 
ATOM      2  C   UNL     1       0.481   9.850  20.573  0.00  0.00    +0.000 C 
ATOM      3  C   UNL     1       0.614   9.683  22.038  0.00  0.00    +0.000 C 
ATOM      4  O   UNL     1       1.232   8.744  22.539  0.00  0.00    +0.000 OA
ATOM      5  O   UNL     1       0.061  10.619  22.832  0.00  0.00    +0.000 OA
ATOM      6  C   UNL     1      -0.621  11.683  22.368  0.00  0.00    +0.000 C 
ATOM      7  O   UNL     1      -0.933  12.580  23.144  0.00  0.00    +0.000 OA
ATOM      8  C   UNL     1      -1.009  11.750  20.956  0.00  0.00    +0.000 C 
ATOM      9  C   UNL     1      -0.463  10.860  20.117  0.00  0.00    +0.000 C 
ENDROOT
BRANCH   8  10
ATOM     10  C   UNL     1      -1.918  12.820  20.420  0.00  0.00    +0.000 C 
ATOM     11  C   UNL     1      -3.408  12.737  20.630  0.00  0.00    +0.000 C 
ATOM     12  O   UNL     1      -1.473  13.791  19.801  0.00  0.00    +0.000 OA
ENDBRANCH   8  10
BRANCH   1  13
ATOM     13  N   UNL     1       2.069   8.045  20.182  0.00  0.00    +0.000 N 
ATOM     14  H   UNL     1       2.688   8.350  20.946  0.00  0.00    +0.000 HD
BRANCH  13  18
ATOM     15  C   UNL     1       2.803   3.968  19.276  0.00  0.00    +0.000 A 
ATOM     16  C   UNL     1       2.039   4.352  20.385  0.00  0.00    +0.000 A 
ATOM     17  C   UNL     1       1.790   5.701  20.648  0.00  0.00    +0.000 A 
ATOM     18  C   UNL     1       2.295   6.710  19.821  0.00  0.00    +0.000 A 
ATOM     19  C   UNL     1       2.966   6.293  18.671  0.00  0.00    +0.000 A 
ATOM     20  C   UNL     1       3.212   4.949  18.357  0.00  0.00    +0.000 A 
BRANCH  20  21
ATOM     21  N   UNL     1       3.882   4.584  17.152  0.00  0.00    +0.000 N 
ATOM     22  C   UNL     1       5.257   4.482  16.975  0.00  0.00    +0.000 C 
ATOM     23  C   UNL     1       5.695   4.144  15.575  0.00  0.00    +0.000 C 
ATOM     24  O   UNL     1       6.124   4.632  17.835  0.00  0.00    +0.000 OA
ATOM     25  H   UNL     1       3.270   4.445  16.355  0.00  0.00    +0.000 HD
ENDBRANCH  20  21
BRANCH  15  27
ATOM     26  C   UNL     1       4.260   2.224  19.893  0.00  0.00    +0.000 C 
ATOM     27  O   UNL     1       3.182   2.664  19.052  0.00  0.00    +0.000 OA
ENDBRANCH  15  27
ENDBRANCH  13  18
ENDBRANCH   1  13
BRANCH   1  28
ATOM     28  O   UNL     1       1.082   9.269  18.396  0.00  0.00    +0.000 OA
ATOM     29  H   UNL     1       0.978  10.218  18.244  0.00  0.00    +0.000 HD
ENDBRANCH   1  28
BRANCH   9  30
ATOM     30  O   UNL     1      -0.807  10.852  18.776  0.00  0.00    +0.000 OA
ATOM     31  H   UNL     1      -1.779  10.933  18.692  0.00  0.00    +0.000 HD
ENDBRANCH   9  30
TORSDOF 7
ENDMDL
