MODEL 1
REMARK VINA RESULT:      -5.3      0.000      0.000
REMARK  Name = 
REMARK  4 active torsions:
REMARK  status: ('A' for Active; 'I' for Inactive)
REMARK    1  A    between atoms: C_1  and  C_2
REMARK    2  A    between atoms: C_2  and  C_3
REMARK    3  A    between atoms: C_6  and  C_7
REMARK    4  A    between atoms: C_6  and  C_8
REMARK                            x       y       z     vdW  Elec       q    Type
REMARK                         _______ _______ _______ _____ _____    ______ ____
ROOT
ATOM      1  C   UNL     1       7.495   7.057  17.650  0.00  0.00    +0.000 C 
ATOM      2  C   UNL     1       6.571   5.879  17.377  0.00  0.00    +0.000 C 
ATOM      3  C   UNL     1       7.340   4.652  16.895  0.00  0.00    +0.000 C 
ATOM      4  C   UNL     1       5.545   5.577  18.513  0.00  0.00    +0.000 C 
ATOM      5  O   UNL     1       5.664   5.318  19.693  0.00  0.00    +0.000 OA
ATOM      6  C   UNL     1       4.311   5.692  17.573  0.00  0.00    +0.000 C 
ATOM      7  C   UNL     1       3.265   6.713  18.006  0.00  0.00    +0.000 C 
ATOM      8  C   UNL     1       3.679   4.351  17.212  0.00  0.00    +0.000 C 
ATOM      9  C   UNL     1       5.324   6.218  16.516  0.00  0.00    +0.000 C 
ATOM     10  O   UNL     1       5.191   6.693  15.405  0.00  0.00    +0.000 OA
ENDROOT
TORSDOF 0
ENDMDL
MODEL 2
REMARK VINA RESULT:      -5.2      3.841      5.336
REMARK  Name = 
REMARK  4 active torsions:
REMARK  status: ('A' for Active; 'I' for Inactive)
REMARK    1  A    between atoms: C_1  and  C_2
REMARK    2  A    between atoms: C_2  and  C_3
REMARK    3  A    between atoms: C_6  and  C_7
REMARK    4  A    between atoms: C_6  and  C_8
REMARK                            x       y       z     vdW  Elec       q    Type
REMARK                         _______ _______ _______ _____ _____    ______ ____
ROOT
ATOM      1  C   UNL     1       1.110   4.865  20.566  0.00  0.00    +0.000 C 
ATOM      2  C   UNL     1       1.891   3.587  20.302  0.00  0.00    +0.000 C 
ATOM      3  C   UNL     1       2.072   2.758  21.571  0.00  0.00    +0.000 C 
ATOM      4  C   UNL     1       1.398   2.762  19.073  0.00  0.00    +0.000 C 
ATOM      5  O   UNL     1       0.328   2.268  18.778  0.00  0.00    +0.000 OA
ATOM      6  C   UNL     1       2.789   2.769  18.376  0.00  0.00    +0.000 C 
ATOM      7  C   UNL     1       2.799   3.343  16.964  0.00  0.00    +0.000 C 
ATOM      8  C   UNL     1       3.527   1.436  18.452  0.00  0.00    +0.000 C 
ATOM      9  C   UNL     1       3.198   3.781  19.485  0.00  0.00    +0.000 C 
ATOM     10  O   UNL     1       4.192   4.455  19.666  0.00  0.00    +0.000 OA
ENDROOT
TORSDOF 0
ENDMDL
MODEL 3
REMARK VINA RESULT:      -5.2      0.121      3.518
REMARK  Name = 
REMARK  4 active torsions:
REMARK  status: ('A' for Active; 'I' for Inactive)
REMARK    1  A    between atoms: C_1  and  C_2
REMARK    2  A    between atoms: C_2  and  C_3
REMARK    3  A    between atoms: C_6  and  C_7
REMARK    4  A    between atoms: C_6  and  C_8
REMARK                            x       y       z     vdW  Elec       q    Type
REMARK                         _______ _______ _______ _____ _____    ______ ____
ROOT
ATOM      1  C   UNL     1       3.308   6.620  17.993  0.00  0.00    +0.000 C 
ATOM      2  C   UNL     1       4.389   5.643  17.555  0.00  0.00    +0.000 C 
ATOM      3  C   UNL     1       3.817   4.264  17.241  0.00  0.00    +0.000 C 
ATOM      4  C   UNL     1       5.359   6.190  16.461  0.00  0.00    +0.000 C 
ATOM      5  O   UNL     1       5.187   6.631  15.343  0.00  0.00    +0.000 OA
ATOM      6  C   UNL     1       6.634   5.929  17.313  0.00  0.00    +0.000 C 
ATOM      7  C   UNL     1       7.510   7.153  17.551  0.00  0.00    +0.000 C 
ATOM      8  C   UNL     1       7.453   4.728  16.850  0.00  0.00    +0.000 C 
ATOM      9  C   UNL     1       5.644   5.611  18.469  0.00  0.00    +0.000 C 
ATOM     10  O   UNL     1       5.798   5.386  19.653  0.00  0.00    +0.000 OA
ENDROOT
TORSDOF 0
ENDMDL
MODEL 4
REMARK VINA RESULT:      -5.2      3.835      4.956
REMARK  Name = 
REMARK  4 active torsions:
REMARK  status: ('A' for Active; 'I' for Inactive)
REMARK    1  A    between atoms: C_1  and  C_2
REMARK    2  A    between atoms: C_2  and  C_3
REMARK    3  A    between atoms: C_6  and  C_7
REMARK    4  A    between atoms: C_6  and  C_8
REMARK                            x       y       z     vdW  Elec       q    Type
REMARK                         _______ _______ _______ _____ _____    ______ ____
ROOT
ATOM      1  C   UNL     1       2.783   3.335  16.960  0.00  0.00    +0.000 C 
ATOM      2  C   UNL     1       2.799   2.765  18.370  0.00  0.00    +0.000 C 
ATOM      3  C   UNL     1       3.529   1.426  18.435  0.00  0.00    +0.000 C 
ATOM      4  C   UNL     1       3.231   3.775  19.478  0.00  0.00    +0.000 C 
ATOM      5  O   UNL     1       4.229   4.446  19.648  0.00  0.00    +0.000 OA
ATOM      6  C   UNL     1       1.930   3.582  20.309  0.00  0.00    +0.000 C 
ATOM      7  C   UNL     1       1.147   4.861  20.584  0.00  0.00    +0.000 C 
ATOM      8  C   UNL     1       2.121   2.751  21.574  0.00  0.00    +0.000 C 
ATOM      9  C   UNL     1       1.421   2.765  19.087  0.00  0.00    +0.000 C 
ATOM     10  O   UNL     1       0.344   2.277  18.807  0.00  0.00    +0.000 OA
ENDROOT
TORSDOF 0
ENDMDL
MODEL 5
REMARK VINA RESULT:      -5.2      1.731      2.592
REMARK  Name = 
REMARK  4 active torsions:
REMARK  status: ('A' for Active; 'I' for Inactive)
REMARK    1  A    between atoms: C_1  and  C_2
REMARK    2  A    between atoms: C_2  and  C_3
REMARK    3  A    between atoms: C_6  and  C_7
REMARK    4  A    between atoms: C_6  and  C_8
REMARK                            x       y       z     vdW  Elec       q    Type
REMARK                         _______ _______ _______ _____ _____    ______ ____
ROOT
ATOM      1  C   UNL     1       7.674   7.221  17.829  0.00  0.00    +0.000 C 
ATOM      2  C   UNL     1       6.735   6.028  17.919  0.00  0.00    +0.000 C 
ATOM      3  C   UNL     1       6.527   5.573  19.361  0.00  0.00    +0.000 C 
ATOM      4  C   UNL     1       5.411   6.176  17.106  0.00  0.00    +0.000 C 
ATOM      5  O   UNL     1       4.512   6.992  17.123  0.00  0.00    +0.000 OA
ATOM      6  C   UNL     1       5.645   4.874  16.287  0.00  0.00    +0.000 C 
ATOM      7  C   UNL     1       5.645   5.057  14.774  0.00  0.00    +0.000 C 
ATOM      8  C   UNL     1       4.763   3.705  16.717  0.00  0.00    +0.000 C 
ATOM      9  C   UNL     1       7.059   4.870  16.936  0.00  0.00    +0.000 C 
ATOM     10  O   UNL     1       8.049   4.189  16.760  0.00  0.00    +0.000 OA
ENDROOT
TORSDOF 0
ENDMDL
MODEL 6
REMARK VINA RESULT:      -5.2      1.760      2.841
REMARK  Name = 
REMARK  4 active torsions:
REMARK  status: ('A' for Active; 'I' for Inactive)
REMARK    1  A    between atoms: C_1  and  C_2
REMARK    2  A    between atoms: C_2  and  C_3
REMARK    3  A    between atoms: C_6  and  C_7
REMARK    4  A    between atoms: C_6  and  C_8
REMARK                            x       y       z     vdW  Elec       q    Type
REMARK                         _______ _______ _______ _____ _____    ______ ____
ROOT
ATOM      1  C   UNL     1       7.052   4.748  14.320  0.00  0.00    +0.000 C 
ATOM      2  C   UNL     1       6.358   4.731  15.673  0.00  0.00    +0.000 C 
ATOM      3  C   UNL     1       5.329   3.607  15.771  0.00  0.00    +0.000 C 
ATOM      4  C   UNL     1       7.316   4.818  16.901  0.00  0.00    +0.000 C 
ATOM      5  O   UNL     1       8.249   4.138  17.278  0.00  0.00    +0.000 OA
ATOM      6  C   UNL     1       6.618   6.077  17.490  0.00  0.00    +0.000 C 
ATOM      7  C   UNL     1       7.533   7.275  17.714  0.00  0.00    +0.000 C 
ATOM      8  C   UNL     1       5.751   5.790  18.712  0.00  0.00    +0.000 C 
ATOM      9  C   UNL     1       5.829   6.111  16.150  0.00  0.00    +0.000 C 
ATOM     10  O   UNL     1       5.055   6.912  15.664  0.00  0.00    +0.000 OA
ENDROOT
TORSDOF 0
ENDMDL
MODEL 7
REMARK VINA RESULT:      -5.2      1.734      3.024
REMARK  Name = 
REMARK  4 active torsions:
REMARK  status: ('A' for Active; 'I' for Inactive)
REMARK    1  A    between atoms: C_1  and  C_2
REMARK    2  A    between atoms: C_2  and  C_3
REMARK    3  A    between atoms: C_6  and  C_7
REMARK    4  A    between atoms: C_6  and  C_8
REMARK                            x       y       z     vdW  Elec       q    Type
REMARK                         _______ _______ _______ _____ _____    ______ ____
ROOT
ATOM      1  C   UNL     1       5.621   5.085  14.792  0.00  0.00    +0.000 C 
ATOM      2  C   UNL     1       5.641   4.884  16.300  0.00  0.00    +0.000 C 
ATOM      3  C   UNL     1       4.757   3.716  16.731  0.00  0.00    +0.000 C 
ATOM      4  C   UNL     1       7.065   4.868  16.938  0.00  0.00    +0.000 C 
ATOM      5  O   UNL     1       8.052   4.187  16.749  0.00  0.00    +0.000 OA
ATOM      6  C   UNL     1       6.747   6.021  17.932  0.00  0.00    +0.000 C 
ATOM      7  C   UNL     1       7.682   7.222  17.844  0.00  0.00    +0.000 C 
ATOM      8  C   UNL     1       6.549   5.561  19.373  0.00  0.00    +0.000 C 
ATOM      9  C   UNL     1       5.423   6.178  17.130  0.00  0.00    +0.000 C 
ATOM     10  O   UNL     1       4.526   6.997  17.163  0.00  0.00    +0.000 OA
ENDROOT
TORSDOF 0
ENDMDL
MODEL 8
REMARK VINA RESULT:      -5.1      2.505      4.148
REMARK  Name = 
REMARK  4 active torsions:
REMARK  status: ('A' for Active; 'I' for Inactive)
REMARK    1  A    between atoms: C_1  and  C_2
REMARK    2  A    between atoms: C_2  and  C_3
REMARK    3  A    between atoms: C_6  and  C_7
REMARK    4  A    between atoms: C_6  and  C_8
REMARK                            x       y       z     vdW  Elec       q    Type
REMARK                         _______ _______ _______ _____ _____    ______ ____
ROOT
ATOM      1  C   UNL     1       2.621   2.922  20.236  0.00  0.00    +0.000 C 
ATOM      2  C   UNL     1       3.322   2.885  18.886  0.00  0.00    +0.000 C 
ATOM      3  C   UNL     1       3.569   1.456  18.411  0.00  0.00    +0.000 C 
ATOM      4  C   UNL     1       2.695   3.813  17.799  0.00  0.00    +0.000 C 
ATOM      5  O   UNL     1       1.585   3.893  17.315  0.00  0.00    +0.000 OA
ATOM      6  C   UNL     1       4.024   4.577  17.534  0.00  0.00    +0.000 C 
ATOM      7  C   UNL     1       3.945   6.088  17.714  0.00  0.00    +0.000 C 
ATOM      8  C   UNL     1       4.707   4.196  16.223  0.00  0.00    +0.000 C 
ATOM      9  C   UNL     1       4.566   3.808  18.774  0.00  0.00    +0.000 C 
ATOM     10  O   UNL     1       5.600   3.882  19.407  0.00  0.00    +0.000 OA
ENDROOT
TORSDOF 0
ENDMDL
MODEL 9
REMARK VINA RESULT:      -5.1      2.712      4.472
REMARK  Name = 
REMARK  4 active torsions:
REMARK  status: ('A' for Active; 'I' for Inactive)
REMARK    1  A    between atoms: C_1  and  C_2
REMARK    2  A    between atoms: C_2  and  C_3
REMARK    3  A    between atoms: C_6  and  C_7
REMARK    4  A    between atoms: C_6  and  C_8
REMARK                            x       y       z     vdW  Elec       q    Type
REMARK                         _______ _______ _______ _____ _____    ______ ____
ROOT
ATOM      1  C   UNL     1       1.871   2.108  19.556  0.00  0.00    +0.000 C 
ATOM      2  C   UNL     1       2.352   3.544  19.415  0.00  0.00    +0.000 C 
ATOM      3  C   UNL     1       1.844   4.429  20.551  0.00  0.00    +0.000 C 
ATOM      4  C   UNL     1       3.878   3.698  19.129  0.00  0.00    +0.000 C 
ATOM      5  O   UNL     1       4.875   3.334  19.719  0.00  0.00    +0.000 OA
ATOM      6  C   UNL     1       3.658   4.521  17.827  0.00  0.00    +0.000 C 
ATOM      7  C   UNL     1       4.306   3.935  16.578  0.00  0.00    +0.000 C 
ATOM      8  C   UNL     1       3.959   6.009  17.977  0.00  0.00    +0.000 C 
ATOM      9  C   UNL     1       2.155   4.159  18.003  0.00  0.00    +0.000 C 
ATOM     10  O   UNL     1       1.176   4.325  17.303  0.00  0.00    +0.000 OA
ENDROOT
TORSDOF 0
ENDMDL
