MODEL 1
REMARK VINA RESULT:      -7.2      0.000      0.000
REMARK  Name = 
REMARK  7 active torsions:
REMARK  status: ('A' for Active; 'I' for Inactive)
REMARK    1  A    between atoms: C_1  and  O_2
REMARK    2  A    between atoms: O_2  and  C_3
REMARK    3  A    between atoms: C_3  and  C_4
REMARK    4  A    between atoms: C_4  and  N_5
REMARK    5  A    between atoms: C_6  and  C_8
REMARK    6  A    between atoms: N_12  and  S_13
REMARK    7  A    between atoms: S_13  and  C_16
REMARK                            x       y       z     vdW  Elec       q    Type
REMARK                         _______ _______ _______ _____ _____    ______ ____
ROOT
ATOM      1  C   UNL     1       1.774   4.404  18.951  0.00  0.00    +0.000 C 
ATOM      2  C   UNL     1       0.933   4.153  20.209  0.00  0.00    +0.000 C 
ATOM      3  C   UNL     1       0.520   2.710  20.095  0.00  0.00    +0.000 C 
ATOM      4  C   UNL     1       1.657   2.037  19.345  0.00  0.00    +0.000 C 
ATOM      5  N   UNL     1       2.470   3.096  18.705  0.00  0.00    +0.000 NA
ENDROOT
BRANCH   1   7
ATOM      6  N   UNL     1       2.402   6.553  17.898  0.00  0.00    +0.000 N 
ATOM      7  C   UNL     1       2.473   5.764  19.038  0.00  0.00    +0.000 C 
ATOM      8  O   UNL     1       3.133   6.101  20.011  0.00  0.00    +0.000 OA
ATOM      9  H   UNL     1       1.574   6.457  17.325  0.00  0.00    +0.000 HD
BRANCH   6  10
ATOM     10  C   UNL     1       3.010   7.871  17.865  0.00  0.00    +0.000 C 
BRANCH  10  11
ATOM     11  C   UNL     1       2.010   8.962  18.246  0.00  0.00    +0.000 C 
BRANCH  11  13
ATOM     12  C   UNL     1       2.031  11.321  18.241  0.00  0.00    +0.000 C 
ATOM     13  O   UNL     1       2.317  10.146  17.500  0.00  0.00    +0.000 OA
ENDBRANCH  11  13
ENDBRANCH  10  11
ENDBRANCH   6  10
ENDBRANCH   1   7
BRANCH   5  14
ATOM     14  S   UNL     1       4.162   2.963  18.939  0.00  0.00    +0.000 S 
ATOM     15  O   UNL     1       4.520   3.453  20.230  0.00  0.00    +0.000 OA
ATOM     16  O   UNL     1       4.481   1.591  18.545  0.00  0.00    +0.000 OA
BRANCH  14  17
ATOM     17  C   UNL     1       4.937   4.027  17.688  0.00  0.00    +0.000 A 
ATOM     18  C   UNL     1       4.528   3.973  16.337  0.00  0.00    +0.000 A 
ATOM     19  C   UNL     1       4.862   5.012  15.464  0.00  0.00    +0.000 A 
ATOM     20  C   UNL     1       5.716   6.021  15.891  0.00  0.00    +0.000 A 
ATOM     21  C   UNL     1       6.314   5.926  17.152  0.00  0.00    +0.000 A 
ATOM     22  C   UNL     1       7.356   6.793  17.490  0.00  0.00    +0.000 A 
ATOM     23  C   UNL     1       8.013   6.638  18.701  0.00  0.00    +0.000 A 
ATOM     24  C   UNL     1       7.541   5.677  19.568  0.00  0.00    +0.000 A 
ATOM     25  N   UNL     1       6.492   4.874  19.299  0.00  0.00    +0.000 NA
ATOM     26  C   UNL     1       5.910   4.942  18.097  0.00  0.00    +0.000 A 
ENDBRANCH  14  17
ENDBRANCH   5  14
TORSDOF 6
ENDMDL
MODEL 2
REMARK VINA RESULT:      -6.9      1.724      1.881
REMARK  Name = 
REMARK  7 active torsions:
REMARK  status: ('A' for Active; 'I' for Inactive)
REMARK    1  A    between atoms: C_1  and  O_2
REMARK    2  A    between atoms: O_2  and  C_3
REMARK    3  A    between atoms: C_3  and  C_4
REMARK    4  A    between atoms: C_4  and  N_5
REMARK    5  A    between atoms: C_6  and  C_8
REMARK    6  A    between atoms: N_12  and  S_13
REMARK    7  A    between atoms: S_13  and  C_16
REMARK                            x       y       z     vdW  Elec       q    Type
REMARK                         _______ _______ _______ _____ _____    ______ ____
ROOT
ATOM      1  C   UNL     1       1.630   4.304  18.788  0.00  0.00    +0.000 C 
ATOM      2  C   UNL     1       0.668   3.842  19.889  0.00  0.00    +0.000 C 
ATOM      3  C   UNL     1       0.547   2.358  19.674  0.00  0.00    +0.000 C 
ATOM      4  C   UNL     1       1.887   1.936  19.098  0.00  0.00    +0.000 C 
ATOM      5  N   UNL     1       2.582   3.154  18.622  0.00  0.00    +0.000 NA
ENDROOT
BRANCH   1   7
ATOM      6  N   UNL     1       1.708   6.297  20.251  0.00  0.00    +0.000 N 
ATOM      7  C   UNL     1       2.048   5.759  19.018  0.00  0.00    +0.000 C 
ATOM      8  O   UNL     1       2.565   6.440  18.142  0.00  0.00    +0.000 OA
ATOM      9  H   UNL     1       1.678   5.661  21.037  0.00  0.00    +0.000 HD
BRANCH   6  10
ATOM     10  C   UNL     1       2.068   7.662  20.594  0.00  0.00    +0.000 C 
BRANCH  10  11
ATOM     11  C   UNL     1       0.865   8.447  21.115  0.00  0.00    +0.000 C 
BRANCH  11  13
ATOM     12  C   UNL     1       0.054   9.424  23.104  0.00  0.00    +0.000 C 
ATOM     13  O   UNL     1       1.208   9.024  22.380  0.00  0.00    +0.000 OA
ENDBRANCH  11  13
ENDBRANCH  10  11
ENDBRANCH   6  10
ENDBRANCH   1   7
BRANCH   5  14
ATOM     14  S   UNL     1       4.214   3.308  19.119  0.00  0.00    +0.000 S 
ATOM     15  O   UNL     1       4.295   4.097  20.305  0.00  0.00    +0.000 OA
ATOM     16  O   UNL     1       4.737   1.942  19.093  0.00  0.00    +0.000 OA
BRANCH  14  17
ATOM     17  C   UNL     1       5.074   4.190  17.785  0.00  0.00    +0.000 A 
ATOM     18  C   UNL     1       4.717   3.984  16.433  0.00  0.00    +0.000 A 
ATOM     19  C   UNL     1       5.121   4.900  15.457  0.00  0.00    +0.000 A 
ATOM     20  C   UNL     1       5.992   5.927  15.797  0.00  0.00    +0.000 A 
ATOM     21  C   UNL     1       6.536   5.969  17.085  0.00  0.00    +0.000 A 
ATOM     22  C   UNL     1       7.593   6.839  17.361  0.00  0.00    +0.000 A 
ATOM     23  C   UNL     1       8.196   6.813  18.609  0.00  0.00    +0.000 A 
ATOM     24  C   UNL     1       7.657   5.978  19.564  0.00  0.00    +0.000 A 
ATOM     25  N   UNL     1       6.592   5.180  19.348  0.00  0.00    +0.000 NA
ATOM     26  C   UNL     1       6.061   5.118  18.122  0.00  0.00    +0.000 A 
ENDBRANCH  14  17
ENDBRANCH   5  14
TORSDOF 6
ENDMDL
MODEL 3
REMARK VINA RESULT:      -6.8      2.623      6.123
REMARK  Name = 
REMARK  7 active torsions:
REMARK  status: ('A' for Active; 'I' for Inactive)
REMARK    1  A    between atoms: C_1  and  O_2
REMARK    2  A    between atoms: O_2  and  C_3
REMARK    3  A    between atoms: C_3  and  C_4
REMARK    4  A    between atoms: C_4  and  N_5
REMARK    5  A    between atoms: C_6  and  C_8
REMARK    6  A    between atoms: N_12  and  S_13
REMARK    7  A    between atoms: S_13  and  C_16
REMARK                            x       y       z     vdW  Elec       q    Type
REMARK                         _______ _______ _______ _____ _____    ______ ____
ROOT
ATOM      1  C   UNL     1       6.233   5.968  17.083  0.00  0.00    +0.000 C 
ATOM      2  C   UNL     1       7.550   5.201  17.258  0.00  0.00    +0.000 C 
ATOM      3  C   UNL     1       7.852   5.319  18.728  0.00  0.00    +0.000 C 
ATOM      4  C   UNL     1       6.493   5.395  19.402  0.00  0.00    +0.000 C 
ATOM      5  N   UNL     1       5.489   5.722  18.364  0.00  0.00    +0.000 NA
ENDROOT
BRANCH   1   7
ATOM      6  N   UNL     1       5.854   4.468  15.152  0.00  0.00    +0.000 N 
ATOM      7  C   UNL     1       5.662   5.737  15.681  0.00  0.00    +0.000 C 
ATOM      8  O   UNL     1       5.151   6.634  15.025  0.00  0.00    +0.000 OA
ATOM      9  H   UNL     1       5.885   3.698  15.808  0.00  0.00    +0.000 HD
BRANCH   6  10
ATOM     10  C   UNL     1       5.341   4.122  13.839  0.00  0.00    +0.000 C 
BRANCH  10  11
ATOM     11  C   UNL     1       6.460   3.685  12.894  0.00  0.00    +0.000 C 
BRANCH  11  13
ATOM     12  C   UNL     1       4.556   3.154  11.605  0.00  0.00    +0.000 C 
ATOM     13  O   UNL     1       5.905   2.821  11.896  0.00  0.00    +0.000 OA
ENDBRANCH  11  13
ENDBRANCH  10  11
ENDBRANCH   6  10
ENDBRANCH   1   7
BRANCH   5  14
ATOM     14  S   UNL     1       4.084   4.740  18.369  0.00  0.00    +0.000 S 
ATOM     15  O   UNL     1       3.636   4.515  17.034  0.00  0.00    +0.000 OA
ATOM     16  O   UNL     1       4.425   3.616  19.243  0.00  0.00    +0.000 OA
BRANCH  14  17
ATOM     17  C   UNL     1       2.806   5.680  19.252  0.00  0.00    +0.000 A 
ATOM     18  C   UNL     1       2.091   5.100  20.324  0.00  0.00    +0.000 A 
ATOM     19  C   UNL     1       1.380   5.914  21.210  0.00  0.00    +0.000 A 
ATOM     20  C   UNL     1       1.260   7.273  20.950  0.00  0.00    +0.000 A 
ATOM     21  C   UNL     1       1.762   7.790  19.751  0.00  0.00    +0.000 A 
ATOM     22  C   UNL     1       1.431   9.091  19.368  0.00  0.00    +0.000 A 
ATOM     23  C   UNL     1       1.848   9.571  18.136  0.00  0.00    +0.000 A 
ATOM     24  C   UNL     1       2.659   8.759  17.372  0.00  0.00    +0.000 A 
ATOM     25  N   UNL     1       3.054   7.526  17.749  0.00  0.00    +0.000 NA
ATOM     26  C   UNL     1       2.580   7.008  18.888  0.00  0.00    +0.000 A 
ENDBRANCH  14  17
ENDBRANCH   5  14
TORSDOF 6
ENDMDL
MODEL 4
REMARK VINA RESULT:      -6.6      2.676      6.061
REMARK  Name = 
REMARK  7 active torsions:
REMARK  status: ('A' for Active; 'I' for Inactive)
REMARK    1  A    between atoms: C_1  and  O_2
REMARK    2  A    between atoms: O_2  and  C_3
REMARK    3  A    between atoms: C_3  and  C_4
REMARK    4  A    between atoms: C_4  and  N_5
REMARK    5  A    between atoms: C_6  and  C_8
REMARK    6  A    between atoms: N_12  and  S_13
REMARK    7  A    between atoms: S_13  and  C_16
REMARK                            x       y       z     vdW  Elec       q    Type
REMARK                         _______ _______ _______ _____ _____    ______ ____
ROOT
ATOM      1  C   UNL     1       6.331   6.175  17.223  0.00  0.00    +0.000 C 
ATOM      2  C   UNL     1       7.751   5.822  17.684  0.00  0.00    +0.000 C 
ATOM      3  C   UNL     1       7.658   5.809  19.186  0.00  0.00    +0.000 C 
ATOM      4  C   UNL     1       6.234   5.375  19.486  0.00  0.00    +0.000 C 
ATOM      5  N   UNL     1       5.439   5.533  18.246  0.00  0.00    +0.000 NA
ENDROOT
BRANCH   1   7
ATOM      6  N   UNL     1       7.099   5.110  15.127  0.00  0.00    +0.000 N 
ATOM      7  C   UNL     1       6.199   5.991  15.709  0.00  0.00    +0.000 C 
ATOM      8  O   UNL     1       5.415   6.646  15.034  0.00  0.00    +0.000 OA
ATOM      9  H   UNL     1       7.413   4.333  15.694  0.00  0.00    +0.000 HD
BRANCH   6  10
ATOM     10  C   UNL     1       7.060   4.838  13.701  0.00  0.00    +0.000 C 
BRANCH  10  11
ATOM     11  C   UNL     1       6.192   3.621  13.382  0.00  0.00    +0.000 C 
BRANCH  11  13
ATOM     12  C   UNL     1       4.638   3.240  11.648  0.00  0.00    +0.000 C 
ATOM     13  O   UNL     1       5.982   3.566  11.967  0.00  0.00    +0.000 OA
ENDBRANCH  11  13
ENDBRANCH  10  11
ENDBRANCH   6  10
ENDBRANCH   1   7
BRANCH   5  14
ATOM     14  S   UNL     1       4.471   4.185  17.820  0.00  0.00    +0.000 S 
ATOM     15  O   UNL     1       3.932   4.360  16.511  0.00  0.00    +0.000 OA
ATOM     16  O   UNL     1       5.299   3.022  18.139  0.00  0.00    +0.000 OA
BRANCH  14  17
ATOM     17  C   UNL     1       3.095   4.149  19.005  0.00  0.00    +0.000 A 
ATOM     18  C   UNL     1       2.552   2.922  19.448  0.00  0.00    +0.000 A 
ATOM     19  C   UNL     1       1.755   2.885  20.596  0.00  0.00    +0.000 A 
ATOM     20  C   UNL     1       1.383   4.073  21.213  0.00  0.00    +0.000 A 
ATOM     21  C   UNL     1       1.721   5.292  20.616  0.00  0.00    +0.000 A 
ATOM     22  C   UNL     1       1.144   6.474  21.086  0.00  0.00    +0.000 A 
ATOM     23  C   UNL     1       1.403   7.671  20.436  0.00  0.00    +0.000 A 
ATOM     24  C   UNL     1       2.304   7.651  19.393  0.00  0.00    +0.000 A 
ATOM     25  N   UNL     1       2.931   6.537  18.963  0.00  0.00    +0.000 NA
ATOM     26  C   UNL     1       2.618   5.359  19.514  0.00  0.00    +0.000 A 
ENDBRANCH  14  17
ENDBRANCH   5  14
TORSDOF 6
ENDMDL
MODEL 5
REMARK VINA RESULT:      -6.4      1.298      2.337
REMARK  Name = 
REMARK  7 active torsions:
REMARK  status: ('A' for Active; 'I' for Inactive)
REMARK    1  A    between atoms: C_1  and  O_2
REMARK    2  A    between atoms: O_2  and  C_3
REMARK    3  A    between atoms: C_3  and  C_4
REMARK    4  A    between atoms: C_4  and  N_5
REMARK    5  A    between atoms: C_6  and  C_8
REMARK    6  A    between atoms: N_12  and  S_13
REMARK    7  A    between atoms: S_13  and  C_16
REMARK                            x       y       z     vdW  Elec       q    Type
REMARK                         _______ _______ _______ _____ _____    ______ ____
ROOT
ATOM      1  C   UNL     1       2.043   4.250  18.317  0.00  0.00    +0.000 C 
ATOM      2  C   UNL     1       0.780   3.697  18.988  0.00  0.00    +0.000 C 
ATOM      3  C   UNL     1       0.808   2.226  18.670  0.00  0.00    +0.000 C 
ATOM      4  C   UNL     1       2.282   1.874  18.578  0.00  0.00    +0.000 C 
ATOM      5  N   UNL     1       3.044   3.137  18.436  0.00  0.00    +0.000 NA
ENDROOT
BRANCH   1   7
ATOM      6  N   UNL     1       2.819   6.538  17.782  0.00  0.00    +0.000 N 
ATOM      7  C   UNL     1       2.290   5.698  18.752  0.00  0.00    +0.000 C 
ATOM      8  O   UNL     1       2.123   6.074  19.904  0.00  0.00    +0.000 OA
ATOM      9  H   UNL     1       2.566   6.346  16.821  0.00  0.00    +0.000 HD
BRANCH   6  10
ATOM     10  C   UNL     1       3.079   7.937  18.069  0.00  0.00    +0.000 C 
BRANCH  10  11
ATOM     11  C   UNL     1       1.869   8.813  17.745  0.00  0.00    +0.000 C 
BRANCH  11  13
ATOM     12  C   UNL     1       0.234  10.194  18.737  0.00  0.00    +0.000 C 
ATOM     13  O   UNL     1       1.344   9.341  18.968  0.00  0.00    +0.000 OA
ENDBRANCH  11  13
ENDBRANCH  10  11
ENDBRANCH   6  10
ENDBRANCH   1   7
BRANCH   5  14
ATOM     14  S   UNL     1       4.394   3.299  19.480  0.00  0.00    +0.000 S 
ATOM     15  O   UNL     1       3.986   3.857  20.728  0.00  0.00    +0.000 OA
ATOM     16  O   UNL     1       5.060   1.998  19.424  0.00  0.00    +0.000 OA
BRANCH  14  17
ATOM     17  C   UNL     1       5.526   4.467  18.673  0.00  0.00    +0.000 A 
ATOM     18  C   UNL     1       6.212   5.447  19.425  0.00  0.00    +0.000 A 
ATOM     19  C   UNL     1       7.323   6.096  18.878  0.00  0.00    +0.000 A 
ATOM     20  C   UNL     1       7.659   5.880  17.547  0.00  0.00    +0.000 A 
ATOM     21  C   UNL     1       6.819   5.100  16.745  0.00  0.00    +0.000 A 
ATOM     22  C   UNL     1       7.008   5.081  15.361  0.00  0.00    +0.000 A 
ATOM     23  C   UNL     1       6.119   4.386  14.556  0.00  0.00    +0.000 A 
ATOM     24  C   UNL     1       5.125   3.659  15.177  0.00  0.00    +0.000 A 
ATOM     25  N   UNL     1       4.963   3.600  16.514  0.00  0.00    +0.000 NA
ATOM     26  C   UNL     1       5.749   4.344  17.300  0.00  0.00    +0.000 A 
ENDBRANCH  14  17
ENDBRANCH   5  14
TORSDOF 6
ENDMDL
MODEL 6
REMARK VINA RESULT:      -6.4      1.756      2.649
REMARK  Name = 
REMARK  7 active torsions:
REMARK  status: ('A' for Active; 'I' for Inactive)
REMARK    1  A    between atoms: C_1  and  O_2
REMARK    2  A    between atoms: O_2  and  C_3
REMARK    3  A    between atoms: C_3  and  C_4
REMARK    4  A    between atoms: C_4  and  N_5
REMARK    5  A    between atoms: C_6  and  C_8
REMARK    6  A    between atoms: N_12  and  S_13
REMARK    7  A    between atoms: S_13  and  C_16
REMARK                            x       y       z     vdW  Elec       q    Type
REMARK                         _______ _______ _______ _____ _____    ______ ____
ROOT
ATOM      1  C   UNL     1       2.158   4.242  18.137  0.00  0.00    +0.000 C 
ATOM      2  C   UNL     1       0.847   3.782  18.788  0.00  0.00    +0.000 C 
ATOM      3  C   UNL     1       0.861   2.286  18.627  0.00  0.00    +0.000 C 
ATOM      4  C   UNL     1       2.330   1.903  18.658  0.00  0.00    +0.000 C 
ATOM      5  N   UNL     1       3.126   3.132  18.430  0.00  0.00    +0.000 NA
ENDROOT
BRANCH   1   7
ATOM      6  N   UNL     1       1.917   6.191  19.642  0.00  0.00    +0.000 N 
ATOM      7  C   UNL     1       2.411   5.723  18.432  0.00  0.00    +0.000 C 
ATOM      8  O   UNL     1       2.932   6.475  17.618  0.00  0.00    +0.000 OA
ATOM      9  H   UNL     1       1.882   5.532  20.409  0.00  0.00    +0.000 HD
BRANCH   6  10
ATOM     10  C   UNL     1       2.111   7.573  20.042  0.00  0.00    +0.000 C 
BRANCH  10  11
ATOM     11  C   UNL     1       1.152   7.976  21.161  0.00  0.00    +0.000 C 
BRANCH  11  13
ATOM     12  C   UNL     1       0.820   9.768  19.661  0.00  0.00    +0.000 C 
ATOM     13  O   UNL     1       0.846   9.369  21.023  0.00  0.00    +0.000 OA
ENDBRANCH  11  13
ENDBRANCH  10  11
ENDBRANCH   6  10
ENDBRANCH   1   7
BRANCH   5  14
ATOM     14  S   UNL     1       4.418   3.382  19.528  0.00  0.00    +0.000 S 
ATOM     15  O   UNL     1       3.943   4.025  20.709  0.00  0.00    +0.000 OA
ATOM     16  O   UNL     1       5.093   2.086  19.602  0.00  0.00    +0.000 OA
BRANCH  14  17
ATOM     17  C   UNL     1       5.585   4.498  18.698  0.00  0.00    +0.000 A 
ATOM     18  C   UNL     1       6.298   5.475  19.429  0.00  0.00    +0.000 A 
ATOM     19  C   UNL     1       7.428   6.079  18.870  0.00  0.00    +0.000 A 
ATOM     20  C   UNL     1       7.760   5.822  17.546  0.00  0.00    +0.000 A 
ATOM     21  C   UNL     1       6.901   5.048  16.759  0.00  0.00    +0.000 A 
ATOM     22  C   UNL     1       7.093   4.991  15.377  0.00  0.00    +0.000 A 
ATOM     23  C   UNL     1       6.186   4.303  14.586  0.00  0.00    +0.000 A 
ATOM     24  C   UNL     1       5.171   3.620  15.220  0.00  0.00    +0.000 A 
ATOM     25  N   UNL     1       5.003   3.597  16.557  0.00  0.00    +0.000 NA
ATOM     26  C   UNL     1       5.808   4.336  17.329  0.00  0.00    +0.000 A 
ENDBRANCH  14  17
ENDBRANCH   5  14
TORSDOF 6
ENDMDL
MODEL 7
REMARK VINA RESULT:      -6.4      6.878      9.296
REMARK  Name = 
REMARK  7 active torsions:
REMARK  status: ('A' for Active; 'I' for Inactive)
REMARK    1  A    between atoms: C_1  and  O_2
REMARK    2  A    between atoms: O_2  and  C_3
REMARK    3  A    between atoms: C_3  and  C_4
REMARK    4  A    between atoms: C_4  and  N_5
REMARK    5  A    between atoms: C_6  and  C_8
REMARK    6  A    between atoms: N_12  and  S_13
REMARK    7  A    between atoms: S_13  and  C_16
REMARK                            x       y       z     vdW  Elec       q    Type
REMARK                         _______ _______ _______ _____ _____    ______ ____
ROOT
ATOM      1  C   UNL     1      -3.963  11.107  18.433  0.00  0.00    +0.000 C 
ATOM      2  C   UNL     1      -5.025  12.149  18.061  0.00  0.00    +0.000 C 
ATOM      3  C   UNL     1      -5.267  12.901  19.343  0.00  0.00    +0.000 C 
ATOM      4  C   UNL     1      -3.939  12.857  20.078  0.00  0.00    +0.000 C 
ATOM      5  N   UNL     1      -3.111  11.796  19.459  0.00  0.00    +0.000 NA
ENDROOT
BRANCH   1   7
ATOM      6  N   UNL     1      -3.537  11.140  15.996  0.00  0.00    +0.000 N 
ATOM      7  C   UNL     1      -3.429  10.416  17.175  0.00  0.00    +0.000 C 
ATOM      8  O   UNL     1      -3.018   9.263  17.184  0.00  0.00    +0.000 OA
ATOM      9  H   UNL     1      -3.479  12.148  16.069  0.00  0.00    +0.000 HD
BRANCH   6  10
ATOM     10  C   UNL     1      -3.048  10.598  14.740  0.00  0.00    +0.000 C 
BRANCH  10  11
ATOM     11  C   UNL     1      -4.149   9.862  13.978  0.00  0.00    +0.000 C 
BRANCH  11  13
ATOM     12  C   UNL     1      -5.031   9.674  11.798  0.00  0.00    +0.000 C 
ATOM     13  O   UNL     1      -3.878   9.959  12.575  0.00  0.00    +0.000 OA
ENDBRANCH  11  13
ENDBRANCH  10  11
ENDBRANCH   6  10
ENDBRANCH   1   7
BRANCH   5  14
ATOM     14  S   UNL     1      -1.503  12.250  19.081  0.00  0.00    +0.000 S 
ATOM     15  O   UNL     1      -1.387  12.536  17.688  0.00  0.00    +0.000 OA
ATOM     16  O   UNL     1      -1.161  13.260  20.082  0.00  0.00    +0.000 OA
BRANCH  14  17
ATOM     17  C   UNL     1      -0.462  10.811  19.458  0.00  0.00    +0.000 A 
ATOM     18  C   UNL     1       0.175  10.087  18.425  0.00  0.00    +0.000 A 
ATOM     19  C   UNL     1       1.232   9.223  18.728  0.00  0.00    +0.000 A 
ATOM     20  C   UNL     1       1.555   8.971  20.055  0.00  0.00    +0.000 A 
ATOM     21  C   UNL     1       0.751   9.499  21.070  0.00  0.00    +0.000 A 
ATOM     22  C   UNL     1       0.913   9.053  22.383  0.00  0.00    +0.000 A 
ATOM     23  C   UNL     1       0.055   9.504  23.374  0.00  0.00    +0.000 A 
ATOM     24  C   UNL     1      -0.879  10.457  23.027  0.00  0.00    +0.000 A 
ATOM     25  N   UNL     1      -1.011  10.960  21.783  0.00  0.00    +0.000 NA
ATOM     26  C   UNL     1      -0.259  10.464  20.795  0.00  0.00    +0.000 A 
ENDBRANCH  14  17
ENDBRANCH   5  14
TORSDOF 6
ENDMDL
MODEL 8
REMARK VINA RESULT:      -6.4      2.255      6.160
REMARK  Name = 
REMARK  7 active torsions:
REMARK  status: ('A' for Active; 'I' for Inactive)
REMARK    1  A    between atoms: C_1  and  O_2
REMARK    2  A    between atoms: O_2  and  C_3
REMARK    3  A    between atoms: C_3  and  C_4
REMARK    4  A    between atoms: C_4  and  N_5
REMARK    5  A    between atoms: C_6  and  C_8
REMARK    6  A    between atoms: N_12  and  S_13
REMARK    7  A    between atoms: S_13  and  C_16
REMARK                            x       y       z     vdW  Elec       q    Type
REMARK                         _______ _______ _______ _____ _____    ______ ____
ROOT
ATOM      1  C   UNL     1       4.318   4.349  17.152  0.00  0.00    +0.000 C 
ATOM      2  C   UNL     1       5.815   4.679  17.139  0.00  0.00    +0.000 C 
ATOM      3  C   UNL     1       5.884   6.054  16.530  0.00  0.00    +0.000 C 
ATOM      4  C   UNL     1       4.585   6.727  16.936  0.00  0.00    +0.000 C 
ATOM      5  N   UNL     1       3.649   5.672  17.391  0.00  0.00    +0.000 NA
ENDROOT
BRANCH   1   7
ATOM      6  N   UNL     1       4.706   3.001  19.190  0.00  0.00    +0.000 N 
ATOM      7  C   UNL     1       4.057   3.078  17.966  0.00  0.00    +0.000 C 
ATOM      8  O   UNL     1       3.396   2.145  17.531  0.00  0.00    +0.000 OA
ATOM      9  H   UNL     1       4.877   3.873  19.674  0.00  0.00    +0.000 HD
BRANCH   6  10
ATOM     10  C   UNL     1       4.523   1.853  20.060  0.00  0.00    +0.000 C 
BRANCH  10  11
ATOM     11  C   UNL     1       3.559   2.162  21.205  0.00  0.00    +0.000 C 
BRANCH  11  13
ATOM     12  C   UNL     1       1.345   2.884  21.583  0.00  0.00    +0.000 C 
ATOM     13  O   UNL     1       2.231   2.247  20.675  0.00  0.00    +0.000 OA
ENDBRANCH  11  13
ENDBRANCH  10  11
ENDBRANCH   6  10
ENDBRANCH   1   7
BRANCH   5  14
ATOM     14  S   UNL     1       2.863   5.984  18.881  0.00  0.00    +0.000 S 
ATOM     15  O   UNL     1       1.703   5.164  19.007  0.00  0.00    +0.000 OA
ATOM     16  O   UNL     1       3.931   5.926  19.880  0.00  0.00    +0.000 OA
BRANCH  14  17
ATOM     17  C   UNL     1       2.333   7.720  18.827  0.00  0.00    +0.000 A 
ATOM     18  C   UNL     1       2.650   8.540  17.720  0.00  0.00    +0.000 A 
ATOM     19  C   UNL     1       1.958   9.738  17.518  0.00  0.00    +0.000 A 
ATOM     20  C   UNL     1       1.066  10.187  18.483  0.00  0.00    +0.000 A 
ATOM     21  C   UNL     1       0.951   9.491  19.691  0.00  0.00    +0.000 A 
ATOM     22  C   UNL     1       0.253  10.064  20.756  0.00  0.00    +0.000 A 
ATOM     23  C   UNL     1       0.220   9.419  21.982  0.00  0.00    +0.000 A 
ATOM     24  C   UNL     1       0.811   8.177  22.069  0.00  0.00    +0.000 A 
ATOM     25  N   UNL     1       1.429   7.566  21.038  0.00  0.00    +0.000 NA
ATOM     26  C   UNL     1       1.558   8.217  19.877  0.00  0.00    +0.000 A 
ENDBRANCH  14  17
ENDBRANCH   5  14
TORSDOF 6
ENDMDL
MODEL 9
REMARK VINA RESULT:      -6.3      2.395      5.760
REMARK  Name = 
REMARK  7 active torsions:
REMARK  status: ('A' for Active; 'I' for Inactive)
REMARK    1  A    between atoms: C_1  and  O_2
REMARK    2  A    between atoms: O_2  and  C_3
REMARK    3  A    between atoms: C_3  and  C_4
REMARK    4  A    between atoms: C_4  and  N_5
REMARK    5  A    between atoms: C_6  and  C_8
REMARK    6  A    between atoms: N_12  and  S_13
REMARK    7  A    between atoms: S_13  and  C_16
REMARK                            x       y       z     vdW  Elec       q    Type
REMARK                         _______ _______ _______ _____ _____    ______ ____
ROOT
ATOM      1  C   UNL     1       4.053   3.761  19.561  0.00  0.00    +0.000 C 
ATOM      2  C   UNL     1       3.145   2.533  19.416  0.00  0.00    +0.000 C 
ATOM      3  C   UNL     1       2.092   2.727  20.474  0.00  0.00    +0.000 C 
ATOM      4  C   UNL     1       1.941   4.232  20.604  0.00  0.00    +0.000 C 
ATOM      5  N   UNL     1       3.120   4.865  19.969  0.00  0.00    +0.000 NA
ENDROOT
BRANCH   1   7
ATOM      6  N   UNL     1       6.227   4.509  18.646  0.00  0.00    +0.000 N 
ATOM      7  C   UNL     1       5.039   3.837  18.392  0.00  0.00    +0.000 C 
ATOM      8  O   UNL     1       4.766   3.418  17.275  0.00  0.00    +0.000 OA
ATOM      9  H   UNL     1       6.582   4.469  19.592  0.00  0.00    +0.000 HD
BRANCH   6  10
ATOM     10  C   UNL     1       7.249   4.631  17.622  0.00  0.00    +0.000 C 
BRANCH  10  11
ATOM     11  C   UNL     1       7.013   5.850  16.733  0.00  0.00    +0.000 C 
BRANCH  11  13
ATOM     12  C   UNL     1       6.839   4.884  14.587  0.00  0.00    +0.000 C 
ATOM     13  O   UNL     1       7.658   5.631  15.473  0.00  0.00    +0.000 OA
ENDBRANCH  11  13
ENDBRANCH  10  11
ENDBRANCH   6  10
ENDBRANCH   1   7
BRANCH   5  14
ATOM     14  S   UNL     1       2.770   6.143  18.883  0.00  0.00    +0.000 S 
ATOM     15  O   UNL     1       3.978   6.763  18.447  0.00  0.00    +0.000 OA
ATOM     16  O   UNL     1       1.838   5.560  17.918  0.00  0.00    +0.000 OA
BRANCH  14  17
ATOM     17  C   UNL     1       1.807   7.363  19.822  0.00  0.00    +0.000 A 
ATOM     18  C   UNL     1       1.178   7.009  21.037  0.00  0.00    +0.000 A 
ATOM     19  C   UNL     1       0.748   8.006  21.917  0.00  0.00    +0.000 A 
ATOM     20  C   UNL     1       0.811   9.339  21.530  0.00  0.00    +0.000 A 
ATOM     21  C   UNL     1       1.202   9.657  20.225  0.00  0.00    +0.000 A 
ATOM     22  C   UNL     1       1.031  10.959  19.750  0.00  0.00    +0.000 A 
ATOM     23  C   UNL     1       1.328  11.253  18.429  0.00  0.00    +0.000 A 
ATOM     24  C   UNL     1       1.874  10.251  17.656  0.00  0.00    +0.000 A 
ATOM     25  N   UNL     1       2.118   9.004  18.108  0.00  0.00    +0.000 NA
ATOM     26  C   UNL     1       1.745   8.675  19.350  0.00  0.00    +0.000 A 
ENDBRANCH  14  17
ENDBRANCH   5  14
TORSDOF 6
ENDMDL
