MODEL 1
REMARK VINA RESULT:      -6.7      0.000      0.000
REMARK  Name = 
REMARK  4 active torsions:
REMARK  status: ('A' for Active; 'I' for Inactive)
REMARK    1  A    between atoms: C_1  and  C_2
REMARK    2  A    between atoms: C_2  and  N_3
REMARK    3  A    between atoms: P_8  and  N_10
REMARK    4  A    between atoms: N_10  and  C_11
REMARK                            x       y       z     vdW  Elec       q    Type
REMARK                         _______ _______ _______ _____ _____    ______ ____
ROOT
ATOM      1  C   UNL     1       4.208   4.002  16.693  0.00  0.00    +0.000 C 
ATOM      2  C   UNL     1       5.335   4.951  17.133  0.00  0.00    +0.000 C 
ATOM      3  C   UNL     1       6.704   4.262  17.147  0.00  0.00    +0.000 C 
ATOM      4  O   UNL     1       7.530   4.545  16.026  0.00  0.00    +0.000 OA
ATOM      5  P   UNL     1       6.961   4.921  14.571  0.00  0.00    +0.000 P 
ATOM      6  O   UNL     1       7.965   5.657  13.743  0.00  0.00    +0.000 OA
ATOM      7  O   UNL     1       5.673   5.836  14.900  0.00  0.00    +0.000 OA
ATOM      8  C   UNL     1       5.403   6.191  16.248  0.00  0.00    +0.000 C 
ENDROOT
BRANCH   2   9
ATOM      9  N   UNL     1       5.029   5.358  18.567  0.00  0.00    +0.000 N 
ATOM     10  O   UNL     1       5.948   5.334  19.395  0.00  0.00    +0.000 OA
ATOM     11  O   UNL     1       3.863   5.707  18.814  0.00  0.00    +0.000 OA
ENDBRANCH   2   9
BRANCH   5  12
ATOM     12  N   UNL     1       6.333   3.563  13.899  0.00  0.00    +0.000 NA
ATOM     13  H   UNL     1       5.442   3.372  14.348  0.00  0.00    +0.000 HD
BRANCH  12  14
ATOM     14  C   UNL     1       6.152   3.536  12.445  0.00  0.00    +0.000 C 
ATOM     15  C   UNL     1       5.704   2.251  11.801  0.00  0.00    +0.000 C 
ATOM     16  C   UNL     1       4.773   3.426  11.854  0.00  0.00    +0.000 C 
ENDBRANCH  12  14
ENDBRANCH   5  12
TORSDOF 3
ENDMDL
MODEL 2
REMARK VINA RESULT:      -6.6      3.154      4.284
REMARK  Name = 
REMARK  4 active torsions:
REMARK  status: ('A' for Active; 'I' for Inactive)
REMARK    1  A    between atoms: C_1  and  C_2
REMARK    2  A    between atoms: C_2  and  N_3
REMARK    3  A    between atoms: P_8  and  N_10
REMARK    4  A    between atoms: N_10  and  C_11
REMARK                            x       y       z     vdW  Elec       q    Type
REMARK                         _______ _______ _______ _____ _____    ______ ____
ROOT
ATOM      1  C   UNL     1       2.529   3.294  17.277  0.00  0.00    +0.000 C 
ATOM      2  C   UNL     1       2.650   3.490  18.798  0.00  0.00    +0.000 C 
ATOM      3  C   UNL     1       3.715   2.580  19.419  0.00  0.00    +0.000 C 
ATOM      4  O   UNL     1       4.954   3.213  19.703  0.00  0.00    +0.000 OA
ATOM      5  P   UNL     1       5.517   4.478  18.887  0.00  0.00    +0.000 P 
ATOM      6  O   UNL     1       6.527   5.254  19.671  0.00  0.00    +0.000 OA
ATOM      7  O   UNL     1       4.192   5.351  18.592  0.00  0.00    +0.000 OA
ATOM      8  C   UNL     1       2.955   4.941  19.155  0.00  0.00    +0.000 C 
ENDROOT
BRANCH   2   9
ATOM      9  N   UNL     1       1.313   3.082  19.399  0.00  0.00    +0.000 N 
ATOM     10  O   UNL     1       1.034   3.478  20.538  0.00  0.00    +0.000 OA
ATOM     11  O   UNL     1       0.570   2.380  18.692  0.00  0.00    +0.000 OA
ENDBRANCH   2   9
BRANCH   5  12
ATOM     12  N   UNL     1       6.000   3.960  17.408  0.00  0.00    +0.000 NA
ATOM     13  H   UNL     1       5.424   3.165  17.150  0.00  0.00    +0.000 HD
BRANCH  12  14
ATOM     14  C   UNL     1       6.001   4.929  16.308  0.00  0.00    +0.000 C 
ATOM     15  C   UNL     1       6.961   4.718  15.167  0.00  0.00    +0.000 C 
ATOM     16  C   UNL     1       5.488   4.535  14.950  0.00  0.00    +0.000 C 
ENDBRANCH  12  14
ENDBRANCH   5  12
TORSDOF 3
ENDMDL
MODEL 3
REMARK VINA RESULT:      -6.5      2.618      5.406
REMARK  Name = 
REMARK  4 active torsions:
REMARK  status: ('A' for Active; 'I' for Inactive)
REMARK    1  A    between atoms: C_1  and  C_2
REMARK    2  A    between atoms: C_2  and  N_3
REMARK    3  A    between atoms: P_8  and  N_10
REMARK    4  A    between atoms: N_10  and  C_11
REMARK                            x       y       z     vdW  Elec       q    Type
REMARK                         _______ _______ _______ _____ _____    ______ ____
ROOT
ATOM      1  C   UNL     1       5.231   6.243  15.898  0.00  0.00    +0.000 C 
ATOM      2  C   UNL     1       6.050   4.952  16.057  0.00  0.00    +0.000 C 
ATOM      3  C   UNL     1       7.032   5.027  17.232  0.00  0.00    +0.000 C 
ATOM      4  O   UNL     1       6.610   4.358  18.411  0.00  0.00    +0.000 OA
ATOM      5  P   UNL     1       5.067   4.146  18.813  0.00  0.00    +0.000 P 
ATOM      6  O   UNL     1       4.882   3.011  19.769  0.00  0.00    +0.000 OA
ATOM      7  O   UNL     1       4.351   3.855  17.396  0.00  0.00    +0.000 OA
ATOM      8  C   UNL     1       5.151   3.733  16.229  0.00  0.00    +0.000 C 
ENDROOT
BRANCH   2   9
ATOM      9  N   UNL     1       6.883   4.803  14.792  0.00  0.00    +0.000 N 
ATOM     10  O   UNL     1       7.869   5.537  14.646  0.00  0.00    +0.000 OA
ATOM     11  O   UNL     1       6.523   3.933  13.983  0.00  0.00    +0.000 OA
ENDBRANCH   2   9
BRANCH   5  12
ATOM     12  N   UNL     1       4.458   5.592  19.287  0.00  0.00    +0.000 NA
ATOM     13  H   UNL     1       5.055   6.324  18.913  0.00  0.00    +0.000 HD
BRANCH  12  14
ATOM     14  C   UNL     1       3.063   5.893  18.950  0.00  0.00    +0.000 C 
ATOM     15  C   UNL     1       2.329   6.914  19.779  0.00  0.00    +0.000 C 
ATOM     16  C   UNL     1       2.697   7.227  18.358  0.00  0.00    +0.000 C 
ENDBRANCH  12  14
ENDBRANCH   5  12
TORSDOF 3
ENDMDL
MODEL 4
REMARK VINA RESULT:      -6.4      3.156      5.624
REMARK  Name = 
REMARK  4 active torsions:
REMARK  status: ('A' for Active; 'I' for Inactive)
REMARK    1  A    between atoms: C_1  and  C_2
REMARK    2  A    between atoms: C_2  and  N_3
REMARK    3  A    between atoms: P_8  and  N_10
REMARK    4  A    between atoms: N_10  and  C_11
REMARK                            x       y       z     vdW  Elec       q    Type
REMARK                         _______ _______ _______ _____ _____    ______ ____
ROOT
ATOM      1  C   UNL     1       6.163   5.446  18.941  0.00  0.00    +0.000 C 
ATOM      2  C   UNL     1       5.681   5.529  17.484  0.00  0.00    +0.000 C 
ATOM      3  C   UNL     1       5.480   4.145  16.858  0.00  0.00    +0.000 C 
ATOM      4  O   UNL     1       4.132   3.704  16.795  0.00  0.00    +0.000 OA
ATOM      5  P   UNL     1       2.993   4.164  17.833  0.00  0.00    +0.000 P 
ATOM      6  O   UNL     1       1.617   3.998  17.274  0.00  0.00    +0.000 OA
ATOM      7  O   UNL     1       3.344   5.715  18.106  0.00  0.00    +0.000 OA
ATOM      8  C   UNL     1       4.388   6.329  17.364  0.00  0.00    +0.000 C 
ENDROOT
BRANCH   2   9
ATOM      9  N   UNL     1       6.786   6.216  16.696  0.00  0.00    +0.000 N 
ATOM     10  O   UNL     1       7.310   5.602  15.758  0.00  0.00    +0.000 OA
ATOM     11  O   UNL     1       7.085   7.372  17.039  0.00  0.00    +0.000 OA
ENDBRANCH   2   9
BRANCH   5  12
ATOM     12  N   UNL     1       3.280   3.425  19.269  0.00  0.00    +0.000 NA
ATOM     13  H   UNL     1       3.709   4.103  19.892  0.00  0.00    +0.000 HD
BRANCH  12  14
ATOM     14  C   UNL     1       2.148   2.793  19.954  0.00  0.00    +0.000 C 
ATOM     15  C   UNL     1       2.149   2.758  21.459  0.00  0.00    +0.000 C 
ATOM     16  C   UNL     1       1.169   3.630  20.731  0.00  0.00    +0.000 C 
ENDBRANCH  12  14
ENDBRANCH   5  12
TORSDOF 3
ENDMDL
MODEL 5
REMARK VINA RESULT:      -6.4      3.085      5.653
REMARK  Name = 
REMARK  4 active torsions:
REMARK  status: ('A' for Active; 'I' for Inactive)
REMARK    1  A    between atoms: C_1  and  C_2
REMARK    2  A    between atoms: C_2  and  N_3
REMARK    3  A    between atoms: P_8  and  N_10
REMARK    4  A    between atoms: N_10  and  C_11
REMARK                            x       y       z     vdW  Elec       q    Type
REMARK                         _______ _______ _______ _____ _____    ______ ____
ROOT
ATOM      1  C   UNL     1       4.745   6.523  17.015  0.00  0.00    +0.000 C 
ATOM      2  C   UNL     1       5.971   5.628  17.260  0.00  0.00    +0.000 C 
ATOM      3  C   UNL     1       6.440   5.671  18.718  0.00  0.00    +0.000 C 
ATOM      4  O   UNL     1       6.045   4.558  19.509  0.00  0.00    +0.000 OA
ATOM      5  P   UNL     1       4.716   3.696  19.235  0.00  0.00    +0.000 P 
ATOM      6  O   UNL     1       4.794   2.330  19.837  0.00  0.00    +0.000 OA
ATOM      7  O   UNL     1       4.637   3.635  17.625  0.00  0.00    +0.000 OA
ATOM      8  C   UNL     1       5.701   4.182  16.859  0.00  0.00    +0.000 C 
ENDROOT
BRANCH   2   9
ATOM      9  N   UNL     1       7.102   6.194  16.414  0.00  0.00    +0.000 N 
ATOM     10  O   UNL     1       7.590   7.284  16.736  0.00  0.00    +0.000 OA
ATOM     11  O   UNL     1       7.477   5.509  15.449  0.00  0.00    +0.000 OA
ENDBRANCH   2   9
BRANCH   5  12
ATOM     12  N   UNL     1       3.420   4.601  19.672  0.00  0.00    +0.000 NA
ATOM     13  H   UNL     1       2.994   4.970  18.827  0.00  0.00    +0.000 HD
BRANCH  12  14
ATOM     14  C   UNL     1       2.384   3.966  20.492  0.00  0.00    +0.000 C 
ATOM     15  C   UNL     1       0.995   4.547  20.470  0.00  0.00    +0.000 C 
ATOM     16  C   UNL     1       1.258   3.210  19.841  0.00  0.00    +0.000 C 
ENDBRANCH  12  14
ENDBRANCH   5  12
TORSDOF 3
ENDMDL
MODEL 6
REMARK VINA RESULT:      -6.3      3.161      5.541
REMARK  Name = 
REMARK  4 active torsions:
REMARK  status: ('A' for Active; 'I' for Inactive)
REMARK    1  A    between atoms: C_1  and  C_2
REMARK    2  A    between atoms: C_2  and  N_3
REMARK    3  A    between atoms: P_8  and  N_10
REMARK    4  A    between atoms: N_10  and  C_11
REMARK                            x       y       z     vdW  Elec       q    Type
REMARK                         _______ _______ _______ _____ _____    ______ ____
ROOT
ATOM      1  C   UNL     1       4.706   6.603  17.425  0.00  0.00    +0.000 C 
ATOM      2  C   UNL     1       5.775   5.500  17.515  0.00  0.00    +0.000 C 
ATOM      3  C   UNL     1       5.864   4.888  18.917  0.00  0.00    +0.000 C 
ATOM      4  O   UNL     1       5.216   3.633  19.066  0.00  0.00    +0.000 OA
ATOM      5  P   UNL     1       3.949   3.173  18.191  0.00  0.00    +0.000 P 
ATOM      6  O   UNL     1       3.789   1.686  18.163  0.00  0.00    +0.000 OA
ATOM      7  O   UNL     1       4.273   3.766  16.726  0.00  0.00    +0.000 OA
ATOM      8  C   UNL     1       5.527   4.393  16.496  0.00  0.00    +0.000 C 
ENDROOT
BRANCH   2   9
ATOM      9  N   UNL     1       7.114   6.166  17.235  0.00  0.00    +0.000 N 
ATOM     10  O   UNL     1       7.741   6.650  18.186  0.00  0.00    +0.000 OA
ATOM     11  O   UNL     1       7.505   6.167  16.057  0.00  0.00    +0.000 OA
ENDBRANCH   2   9
BRANCH   5  12
ATOM     12  N   UNL     1       2.642   4.026  18.694  0.00  0.00    +0.000 NA
ATOM     13  H   UNL     1       1.816   3.619  18.265  0.00  0.00    +0.000 HD
BRANCH  12  14
ATOM     14  C   UNL     1       2.418   4.152  20.138  0.00  0.00    +0.000 C 
ATOM     15  C   UNL     1       1.255   4.981  20.614  0.00  0.00    +0.000 C 
ATOM     16  C   UNL     1       1.231   3.490  20.782  0.00  0.00    +0.000 C 
ENDBRANCH  12  14
ENDBRANCH   5  12
TORSDOF 3
ENDMDL
MODEL 7
REMARK VINA RESULT:      -6.3      3.228      5.711
REMARK  Name = 
REMARK  4 active torsions:
REMARK  status: ('A' for Active; 'I' for Inactive)
REMARK    1  A    between atoms: C_1  and  C_2
REMARK    2  A    between atoms: C_2  and  N_3
REMARK    3  A    between atoms: P_8  and  N_10
REMARK    4  A    between atoms: N_10  and  C_11
REMARK                            x       y       z     vdW  Elec       q    Type
REMARK                         _______ _______ _______ _____ _____    ______ ____
ROOT
ATOM      1  C   UNL     1       3.898   6.400  17.510  0.00  0.00    +0.000 C 
ATOM      2  C   UNL     1       5.171   5.553  17.353  0.00  0.00    +0.000 C 
ATOM      3  C   UNL     1       5.989   5.486  18.648  0.00  0.00    +0.000 C 
ATOM      4  O   UNL     1       5.837   4.287  19.393  0.00  0.00    +0.000 OA
ATOM      5  P   UNL     1       4.507   3.384  19.369  0.00  0.00    +0.000 P 
ATOM      6  O   UNL     1       4.772   1.974  19.791  0.00  0.00    +0.000 OA
ATOM      7  O   UNL     1       4.028   3.467  17.830  0.00  0.00    +0.000 OA
ATOM      8  C   UNL     1       4.851   4.137  16.886  0.00  0.00    +0.000 C 
ENDROOT
BRANCH   2   9
ATOM      9  N   UNL     1       6.038   6.253  16.317  0.00  0.00    +0.000 N 
ATOM     10  O   UNL     1       5.534   6.538  15.223  0.00  0.00    +0.000 OA
ATOM     11  O   UNL     1       7.208   6.510  16.645  0.00  0.00    +0.000 OA
ENDBRANCH   2   9
BRANCH   5  12
ATOM     12  N   UNL     1       3.336   4.175  20.202  0.00  0.00    +0.000 NA
ATOM     13  H   UNL     1       3.004   4.943  19.625  0.00  0.00    +0.000 HD
BRANCH  12  14
ATOM     14  C   UNL     1       2.186   3.399  20.674  0.00  0.00    +0.000 C 
ATOM     15  C   UNL     1       0.803   3.935  20.415  0.00  0.00    +0.000 C 
ATOM     16  C   UNL     1       1.279   2.711  19.690  0.00  0.00    +0.000 C 
ENDBRANCH  12  14
ENDBRANCH   5  12
TORSDOF 3
ENDMDL
MODEL 8
REMARK VINA RESULT:      -6.2      3.228      5.460
REMARK  Name = 
REMARK  4 active torsions:
REMARK  status: ('A' for Active; 'I' for Inactive)
REMARK    1  A    between atoms: C_1  and  C_2
REMARK    2  A    between atoms: C_2  and  N_3
REMARK    3  A    between atoms: P_8  and  N_10
REMARK    4  A    between atoms: N_10  and  C_11
REMARK                            x       y       z     vdW  Elec       q    Type
REMARK                         _______ _______ _______ _____ _____    ______ ____
ROOT
ATOM      1  C   UNL     1       5.303   3.804  17.052  0.00  0.00    +0.000 C 
ATOM      2  C   UNL     1       5.717   5.245  17.392  0.00  0.00    +0.000 C 
ATOM      3  C   UNL     1       4.831   6.284  16.696  0.00  0.00    +0.000 C 
ATOM      4  O   UNL     1       3.830   6.867  17.518  0.00  0.00    +0.000 OA
ATOM      5  P   UNL     1       3.161   6.121  18.775  0.00  0.00    +0.000 P 
ATOM      6  O   UNL     1       2.557   7.082  19.749  0.00  0.00    +0.000 OA
ATOM      7  O   UNL     1       4.396   5.310  19.426  0.00  0.00    +0.000 OA
ATOM      8  C   UNL     1       5.700   5.495  18.897  0.00  0.00    +0.000 C 
ENDROOT
BRANCH   2   9
ATOM      9  N   UNL     1       7.127   5.434  16.855  0.00  0.00    +0.000 N 
ATOM     10  O   UNL     1       7.875   4.449  16.804  0.00  0.00    +0.000 OA
ATOM     11  O   UNL     1       7.438   6.577  16.482  0.00  0.00    +0.000 OA
ENDBRANCH   2   9
BRANCH   5  12
ATOM     12  N   UNL     1       2.162   4.952  18.205  0.00  0.00    +0.000 NA
ATOM     13  H   UNL     1       2.430   4.749  17.246  0.00  0.00    +0.000 HD
BRANCH  12  14
ATOM     14  C   UNL     1       2.077   3.696  18.955  0.00  0.00    +0.000 C 
ATOM     15  C   UNL     1       0.927   3.506  19.908  0.00  0.00    +0.000 C 
ATOM     16  C   UNL     1       0.994   2.699  18.645  0.00  0.00    +0.000 C 
ENDBRANCH  12  14
ENDBRANCH   5  12
TORSDOF 3
ENDMDL
MODEL 9
REMARK VINA RESULT:      -6.2      3.322      5.713
REMARK  Name = 
REMARK  4 active torsions:
REMARK  status: ('A' for Active; 'I' for Inactive)
REMARK    1  A    between atoms: C_1  and  C_2
REMARK    2  A    between atoms: C_2  and  N_3
REMARK    3  A    between atoms: P_8  and  N_10
REMARK    4  A    between atoms: N_10  and  C_11
REMARK                            x       y       z     vdW  Elec       q    Type
REMARK                         _______ _______ _______ _____ _____    ______ ____
ROOT
ATOM      1  C   UNL     1       6.495   5.350  19.178  0.00  0.00    +0.000 C 
ATOM      2  C   UNL     1       6.004   5.252  17.725  0.00  0.00    +0.000 C 
ATOM      3  C   UNL     1       5.232   3.956  17.457  0.00  0.00    +0.000 C 
ATOM      4  O   UNL     1       3.818   4.092  17.440  0.00  0.00    +0.000 OA
ATOM      5  P   UNL     1       3.019   5.212  18.271  0.00  0.00    +0.000 P 
ATOM      6  O   UNL     1       1.661   5.477  17.704  0.00  0.00    +0.000 OA
ATOM      7  O   UNL     1       3.975   6.508  18.163  0.00  0.00    +0.000 OA
ATOM      8  C   UNL     1       5.134   6.446  17.344  0.00  0.00    +0.000 C 
ENDROOT
BRANCH   2   9
ATOM      9  N   UNL     1       7.245   5.219  16.845  0.00  0.00    +0.000 N 
ATOM     10  O   UNL     1       8.026   4.266  16.963  0.00  0.00    +0.000 OA
ATOM     11  O   UNL     1       7.389   6.156  16.043  0.00  0.00    +0.000 OA
ENDBRANCH   2   9
BRANCH   5  12
ATOM     12  N   UNL     1       3.067   4.804  19.859  0.00  0.00    +0.000 NA
ATOM     13  H   UNL     1       2.498   5.471  20.372  0.00  0.00    +0.000 HD
BRANCH  12  14
ATOM     14  C   UNL     1       2.666   3.444  20.230  0.00  0.00    +0.000 C 
ATOM     15  C   UNL     1       2.156   3.203  21.627  0.00  0.00    +0.000 C 
ATOM     16  C   UNL     1       1.215   3.118  20.461  0.00  0.00    +0.000 C 
ENDBRANCH  12  14
ENDBRANCH   5  12
TORSDOF 3
ENDMDL
