MODEL 1
REMARK VINA RESULT:      -8.1      0.000      0.000
REMARK  Name = 
REMARK  7 active torsions:
REMARK  status: ('A' for Active; 'I' for Inactive)
REMARK    1  A    between atoms: C_1  and  C_2
REMARK    2  A    between atoms: C_2  and  C_3
REMARK    3  A    between atoms: C_3  and  C_4
REMARK    4  A    between atoms: C_4  and  C_5
REMARK    5  A    between atoms: C_5  and  N_6
REMARK    6  A    between atoms: C_10  and  C_11
REMARK    7  A    between atoms: C_17  and  C_18
REMARK                            x       y       z     vdW  Elec       q    Type
REMARK                         _______ _______ _______ _____ _____    ______ ____
ROOT
ATOM      1  N   UNL     1       2.528   4.057  17.982  0.00  0.00    +0.000 N 
ATOM      2  C   UNL     1       3.383   3.003  17.721  0.00  0.00    +0.000 A 
ATOM      3  N   UNL     1       2.977   1.732  17.551  0.00  0.00    +0.000 N 
ATOM      4  N   UNL     1       4.625   3.400  17.658  0.00  0.00    +0.000 NA
ATOM      5  C   UNL     1       4.600   4.741  17.900  0.00  0.00    +0.000 A 
ATOM      6  C   UNL     1       3.300   5.208  18.164  0.00  0.00    +0.000 A 
ATOM      7  H   UNL     1       2.128   1.377  17.972  0.00  0.00    +0.000 HD
ATOM      8  H   UNL     1       3.726   1.042  17.527  0.00  0.00    +0.000 HD
ENDROOT
BRANCH   5   9
ATOM      9  C   UNL     1       5.841   5.522  17.950  0.00  0.00    +0.000 A 
ATOM     10  C   UNL     1       6.087   6.579  17.064  0.00  0.00    +0.000 A 
ATOM     11  C   UNL     1       7.145   7.463  17.287  0.00  0.00    +0.000 A 
ATOM     12  C   UNL     1       8.024   7.242  18.343  0.00  0.00    +0.000 A 
ATOM     13  C   UNL     1       7.867   6.118  19.152  0.00  0.00    +0.000 A 
ATOM     14  C   UNL     1       6.779   5.262  18.959  0.00  0.00    +0.000 A 
ENDBRANCH   5   9
BRANCH   6  15
ATOM     15  C   UNL     1       2.821   6.568  18.546  0.00  0.00    +0.000 A 
ATOM     16  C   UNL     1       2.357   6.869  19.832  0.00  0.00    +0.000 A 
ATOM     17  C   UNL     1       1.729   8.078  20.139  0.00  0.00    +0.000 A 
ATOM     18  C   UNL     1       1.514   9.017  19.143  0.00  0.00    +0.000 A 
ATOM     19  C   UNL     1       2.001   8.774  17.866  0.00  0.00    +0.000 A 
ATOM     20  C   UNL     1       2.692   7.585  17.589  0.00  0.00    +0.000 A 
ENDBRANCH   6  15
BRANCH   1  21
ATOM     21  C   UNL     1       1.093   3.910  18.148  0.00  0.00    +0.000 C 
BRANCH  21  22
ATOM     22  C   UNL     1       0.648   3.186  19.426  0.00  0.00    +0.000 C 
BRANCH  22  23
ATOM     23  C   UNL     1       1.119   3.783  20.749  0.00  0.00    +0.000 C 
BRANCH  23  25
ATOM     24  C   UNL     1       3.238   2.505  21.276  0.00  0.00    +0.000 C 
ATOM     25  C   UNL     1       1.766   2.681  21.598  0.00  0.00    +0.000 C 
ENDBRANCH  23  25
ENDBRANCH  22  23
ENDBRANCH  21  22
ENDBRANCH   1  21
TORSDOF 6
ENDMDL
MODEL 2
REMARK VINA RESULT:      -7.9      0.283      1.044
REMARK  Name = 
REMARK  7 active torsions:
REMARK  status: ('A' for Active; 'I' for Inactive)
REMARK    1  A    between atoms: C_1  and  C_2
REMARK    2  A    between atoms: C_2  and  C_3
REMARK    3  A    between atoms: C_3  and  C_4
REMARK    4  A    between atoms: C_4  and  C_5
REMARK    5  A    between atoms: C_5  and  N_6
REMARK    6  A    between atoms: C_10  and  C_11
REMARK    7  A    between atoms: C_17  and  C_18
REMARK                            x       y       z     vdW  Elec       q    Type
REMARK                         _______ _______ _______ _____ _____    ______ ____
ROOT
ATOM      1  N   UNL     1       2.604   4.204  18.005  0.00  0.00    +0.000 N 
ATOM      2  C   UNL     1       3.530   3.209  17.759  0.00  0.00    +0.000 A 
ATOM      3  N   UNL     1       3.206   1.928  17.505  0.00  0.00    +0.000 N 
ATOM      4  N   UNL     1       4.751   3.670  17.802  0.00  0.00    +0.000 NA
ATOM      5  C   UNL     1       4.638   4.996  18.101  0.00  0.00    +0.000 A 
ATOM      6  C   UNL     1       3.299   5.383  18.291  0.00  0.00    +0.000 A 
ATOM      7  H   UNL     1       2.350   1.511  17.849  0.00  0.00    +0.000 HD
ATOM      8  H   UNL     1       3.990   1.279  17.505  0.00  0.00    +0.000 HD
ENDROOT
BRANCH   5   9
ATOM      9  C   UNL     1       5.828   5.835  18.272  0.00  0.00    +0.000 A 
ATOM     10  C   UNL     1       6.786   5.570  19.260  0.00  0.00    +0.000 A 
ATOM     11  C   UNL     1       8.023   6.217  19.244  0.00  0.00    +0.000 A 
ATOM     12  C   UNL     1       8.278   7.206  18.298  0.00  0.00    +0.000 A 
ATOM     13  C   UNL     1       7.283   7.571  17.392  0.00  0.00    +0.000 A 
ATOM     14  C   UNL     1       6.064   6.888  17.377  0.00  0.00    +0.000 A 
ENDBRANCH   5   9
BRANCH   6  15
ATOM     15  C   UNL     1       2.723   6.698  18.697  0.00  0.00    +0.000 A 
ATOM     16  C   UNL     1       2.275   6.954  19.998  0.00  0.00    +0.000 A 
ATOM     17  C   UNL     1       1.560   8.106  20.333  0.00  0.00    +0.000 A 
ATOM     18  C   UNL     1       1.239   9.030  19.351  0.00  0.00    +0.000 A 
ATOM     19  C   UNL     1       1.705   8.833  18.058  0.00  0.00    +0.000 A 
ATOM     20  C   UNL     1       2.482   7.706  17.751  0.00  0.00    +0.000 A 
ENDBRANCH   6  15
BRANCH   1  21
ATOM     21  C   UNL     1       1.171   3.978  18.061  0.00  0.00    +0.000 C 
BRANCH  21  22
ATOM     22  C   UNL     1       0.677   3.183  19.278  0.00  0.00    +0.000 C 
BRANCH  22  23
ATOM     23  C   UNL     1       0.930   3.804  20.648  0.00  0.00    +0.000 C 
BRANCH  23  25
ATOM     24  C   UNL     1       3.051   2.554  21.235  0.00  0.00    +0.000 C 
ATOM     25  C   UNL     1       1.583   2.759  21.563  0.00  0.00    +0.000 C 
ENDBRANCH  23  25
ENDBRANCH  22  23
ENDBRANCH  21  22
ENDBRANCH   1  21
TORSDOF 6
ENDMDL
MODEL 3
REMARK VINA RESULT:      -7.9      0.255      1.435
REMARK  Name = 
REMARK  7 active torsions:
REMARK  status: ('A' for Active; 'I' for Inactive)
REMARK    1  A    between atoms: C_1  and  C_2
REMARK    2  A    between atoms: C_2  and  C_3
REMARK    3  A    between atoms: C_3  and  C_4
REMARK    4  A    between atoms: C_4  and  C_5
REMARK    5  A    between atoms: C_5  and  N_6
REMARK    6  A    between atoms: C_10  and  C_11
REMARK    7  A    between atoms: C_17  and  C_18
REMARK                            x       y       z     vdW  Elec       q    Type
REMARK                         _______ _______ _______ _____ _____    ______ ____
ROOT
ATOM      1  N   UNL     1       2.477   3.874  18.049  0.00  0.00    +0.000 N 
ATOM      2  C   UNL     1       3.444   2.897  17.907  0.00  0.00    +0.000 A 
ATOM      3  N   UNL     1       3.172   1.588  17.758  0.00  0.00    +0.000 N 
ATOM      4  N   UNL     1       4.646   3.406  17.933  0.00  0.00    +0.000 NA
ATOM      5  C   UNL     1       4.479   4.747  18.114  0.00  0.00    +0.000 A 
ATOM      6  C   UNL     1       3.123   5.099  18.245  0.00  0.00    +0.000 A 
ATOM      7  H   UNL     1       2.324   1.170  18.120  0.00  0.00    +0.000 HD
ATOM      8  H   UNL     1       3.979   0.972  17.828  0.00  0.00    +0.000 HD
ENDROOT
BRANCH   5   9
ATOM      9  C   UNL     1       5.634   5.642  18.236  0.00  0.00    +0.000 A 
ATOM     10  C   UNL     1       6.622   5.450  19.211  0.00  0.00    +0.000 A 
ATOM     11  C   UNL     1       7.829   6.150  19.149  0.00  0.00    +0.000 A 
ATOM     12  C   UNL     1       8.021   7.119  18.168  0.00  0.00    +0.000 A 
ATOM     13  C   UNL     1       6.993   7.413  17.273  0.00  0.00    +0.000 A 
ATOM     14  C   UNL     1       5.805   6.677  17.304  0.00  0.00    +0.000 A 
ENDBRANCH   5   9
BRANCH   6  15
ATOM     15  C   UNL     1       2.491   6.420  18.526  0.00  0.00    +0.000 A 
ATOM     16  C   UNL     1       2.320   7.398  17.539  0.00  0.00    +0.000 A 
ATOM     17  C   UNL     1       1.912   8.701  17.836  0.00  0.00    +0.000 A 
ATOM     18  C   UNL     1       1.696   9.074  19.153  0.00  0.00    +0.000 A 
ATOM     19  C   UNL     1       1.811   8.120  20.155  0.00  0.00    +0.000 A 
ATOM     20  C   UNL     1       2.153   6.797  19.835  0.00  0.00    +0.000 A 
ENDBRANCH   6  15
BRANCH   1  21
ATOM     21  C   UNL     1       1.053   3.600  18.097  0.00  0.00    +0.000 C 
BRANCH  21  22
ATOM     22  C   UNL     1       0.535   3.037  19.429  0.00  0.00    +0.000 C 
BRANCH  22  23
ATOM     23  C   UNL     1       1.051   3.706  20.699  0.00  0.00    +0.000 C 
BRANCH  23  25
ATOM     24  C   UNL     1       3.132   2.486  21.463  0.00  0.00    +0.000 C 
ATOM     25  C   UNL     1       1.631   2.636  21.633  0.00  0.00    +0.000 C 
ENDBRANCH  23  25
ENDBRANCH  22  23
ENDBRANCH  21  22
ENDBRANCH   1  21
TORSDOF 6
ENDMDL
MODEL 4
REMARK VINA RESULT:      -7.7      2.388      5.854
REMARK  Name = 
REMARK  7 active torsions:
REMARK  status: ('A' for Active; 'I' for Inactive)
REMARK    1  A    between atoms: C_1  and  C_2
REMARK    2  A    between atoms: C_2  and  C_3
REMARK    3  A    between atoms: C_3  and  C_4
REMARK    4  A    between atoms: C_4  and  C_5
REMARK    5  A    between atoms: C_5  and  N_6
REMARK    6  A    between atoms: C_10  and  C_11
REMARK    7  A    between atoms: C_17  and  C_18
REMARK                            x       y       z     vdW  Elec       q    Type
REMARK                         _______ _______ _______ _____ _____    ______ ____
ROOT
ATOM      1  N   UNL     1       4.816   5.501  17.358  0.00  0.00    +0.000 N 
ATOM      2  C   UNL     1       5.314   6.747  17.027  0.00  0.00    +0.000 A 
ATOM      3  N   UNL     1       6.488   6.942  16.399  0.00  0.00    +0.000 N 
ATOM      4  N   UNL     1       4.503   7.700  17.395  0.00  0.00    +0.000 NA
ATOM      5  C   UNL     1       3.451   7.081  18.002  0.00  0.00    +0.000 A 
ATOM      6  C   UNL     1       3.617   5.684  18.053  0.00  0.00    +0.000 A 
ATOM      7  H   UNL     1       7.254   6.283  16.471  0.00  0.00    +0.000 HD
ATOM      8  H   UNL     1       6.801   7.910  16.365  0.00  0.00    +0.000 HD
ENDROOT
BRANCH   5   9
ATOM      9  C   UNL     1       2.352   7.857  18.586  0.00  0.00    +0.000 A 
ATOM     10  C   UNL     1       2.002   7.746  19.938  0.00  0.00    +0.000 A 
ATOM     11  C   UNL     1       1.134   8.667  20.527  0.00  0.00    +0.000 A 
ATOM     12  C   UNL     1       0.532   9.651  19.747  0.00  0.00    +0.000 A 
ATOM     13  C   UNL     1       0.770   9.689  18.374  0.00  0.00    +0.000 A 
ATOM     14  C   UNL     1       1.678   8.798  17.795  0.00  0.00    +0.000 A 
ENDBRANCH   5   9
BRANCH   6  15
ATOM     15  C   UNL     1       2.764   4.634  18.680  0.00  0.00    +0.000 A 
ATOM     16  C   UNL     1       1.768   3.952  17.973  0.00  0.00    +0.000 A 
ATOM     17  C   UNL     1       0.842   3.114  18.599  0.00  0.00    +0.000 A 
ATOM     18  C   UNL     1       0.868   2.963  19.976  0.00  0.00    +0.000 A 
ATOM     19  C   UNL     1       1.870   3.587  20.707  0.00  0.00    +0.000 A 
ATOM     20  C   UNL     1       2.836   4.369  20.056  0.00  0.00    +0.000 A 
ENDBRANCH   6  15
BRANCH   1  21
ATOM     21  C   UNL     1       5.520   4.257  17.108  0.00  0.00    +0.000 C 
BRANCH  21  22
ATOM     22  C   UNL     1       5.277   3.629  15.728  0.00  0.00    +0.000 C 
BRANCH  22  23
ATOM     23  C   UNL     1       6.312   3.932  14.648  0.00  0.00    +0.000 C 
BRANCH  23  25
ATOM     24  C   UNL     1       6.742   3.642  12.171  0.00  0.00    +0.000 C 
ATOM     25  C   UNL     1       5.694   3.669  13.269  0.00  0.00    +0.000 C 
ENDBRANCH  23  25
ENDBRANCH  22  23
ENDBRANCH  21  22
ENDBRANCH   1  21
TORSDOF 6
ENDMDL
MODEL 5
REMARK VINA RESULT:      -7.6      2.313      5.794
REMARK  Name = 
REMARK  7 active torsions:
REMARK  status: ('A' for Active; 'I' for Inactive)
REMARK    1  A    between atoms: C_1  and  C_2
REMARK    2  A    between atoms: C_2  and  C_3
REMARK    3  A    between atoms: C_3  and  C_4
REMARK    4  A    between atoms: C_4  and  C_5
REMARK    5  A    between atoms: C_5  and  N_6
REMARK    6  A    between atoms: C_10  and  C_11
REMARK    7  A    between atoms: C_17  and  C_18
REMARK                            x       y       z     vdW  Elec       q    Type
REMARK                         _______ _______ _______ _____ _____    ______ ____
ROOT
ATOM      1  N   UNL     1       4.536   5.592  17.537  0.00  0.00    +0.000 N 
ATOM      2  C   UNL     1       5.087   6.809  17.180  0.00  0.00    +0.000 A 
ATOM      3  N   UNL     1       6.285   6.943  16.582  0.00  0.00    +0.000 N 
ATOM      4  N   UNL     1       4.299   7.801  17.493  0.00  0.00    +0.000 NA
ATOM      5  C   UNL     1       3.209   7.238  18.087  0.00  0.00    +0.000 A 
ATOM      6  C   UNL     1       3.324   5.840  18.189  0.00  0.00    +0.000 A 
ATOM      7  H   UNL     1       7.025   6.262  16.699  0.00  0.00    +0.000 HD
ATOM      8  H   UNL     1       6.632   7.898  16.526  0.00  0.00    +0.000 HD
ENDROOT
BRANCH   5   9
ATOM      9  C   UNL     1       2.121   8.070  18.611  0.00  0.00    +0.000 A 
ATOM     10  C   UNL     1       1.805   8.104  19.976  0.00  0.00    +0.000 A 
ATOM     11  C   UNL     1       0.947   9.082  20.484  0.00  0.00    +0.000 A 
ATOM     12  C   UNL     1       0.321   9.975  19.618  0.00  0.00    +0.000 A 
ATOM     13  C   UNL     1       0.525   9.866  18.244  0.00  0.00    +0.000 A 
ATOM     14  C   UNL     1       1.423   8.920  17.741  0.00  0.00    +0.000 A 
ENDBRANCH   5   9
BRANCH   6  15
ATOM     15  C   UNL     1       2.418   4.840  18.824  0.00  0.00    +0.000 A 
ATOM     16  C   UNL     1       2.409   4.600  20.203  0.00  0.00    +0.000 A 
ATOM     17  C   UNL     1       1.709   3.536  20.776  0.00  0.00    +0.000 A 
ATOM     18  C   UNL     1       1.017   2.649  19.966  0.00  0.00    +0.000 A 
ATOM     19  C   UNL     1       0.965   2.880  18.598  0.00  0.00    +0.000 A 
ATOM     20  C   UNL     1       1.615   3.994  18.045  0.00  0.00    +0.000 A 
ENDBRANCH   6  15
BRANCH   1  21
ATOM     21  C   UNL     1       5.203   4.317  17.349  0.00  0.00    +0.000 C 
BRANCH  21  22
ATOM     22  C   UNL     1       4.995   3.661  15.977  0.00  0.00    +0.000 C 
BRANCH  22  23
ATOM     23  C   UNL     1       6.100   3.867  14.946  0.00  0.00    +0.000 C 
BRANCH  23  25
ATOM     24  C   UNL     1       6.510   3.621  12.461  0.00  0.00    +0.000 C 
ATOM     25  C   UNL     1       5.481   3.898  13.542  0.00  0.00    +0.000 C 
ENDBRANCH  23  25
ENDBRANCH  22  23
ENDBRANCH  21  22
ENDBRANCH   1  21
TORSDOF 6
ENDMDL
MODEL 6
REMARK VINA RESULT:      -7.5      1.106      5.107
REMARK  Name = 
REMARK  7 active torsions:
REMARK  status: ('A' for Active; 'I' for Inactive)
REMARK    1  A    between atoms: C_1  and  C_2
REMARK    2  A    between atoms: C_2  and  C_3
REMARK    3  A    between atoms: C_3  and  C_4
REMARK    4  A    between atoms: C_4  and  C_5
REMARK    5  A    between atoms: C_5  and  N_6
REMARK    6  A    between atoms: C_10  and  C_11
REMARK    7  A    between atoms: C_17  and  C_18
REMARK                            x       y       z     vdW  Elec       q    Type
REMARK                         _______ _______ _______ _____ _____    ______ ____
ROOT
ATOM      1  N   UNL     1       4.828   5.271  16.793  0.00  0.00    +0.000 N 
ATOM      2  C   UNL     1       5.109   3.940  16.553  0.00  0.00    +0.000 A 
ATOM      3  N   UNL     1       5.943   3.511  15.588  0.00  0.00    +0.000 N 
ATOM      4  N   UNL     1       4.470   3.159  17.381  0.00  0.00    +0.000 NA
ATOM      5  C   UNL     1       3.731   3.984  18.176  0.00  0.00    +0.000 A 
ATOM      6  C   UNL     1       3.879   5.337  17.818  0.00  0.00    +0.000 A 
ATOM      7  H   UNL     1       6.111   4.046  14.745  0.00  0.00    +0.000 HD
ATOM      8  H   UNL     1       5.929   2.507  15.424  0.00  0.00    +0.000 HD
ENDROOT
BRANCH   5   9
ATOM      9  C   UNL     1       2.843   3.441  19.209  0.00  0.00    +0.000 A 
ATOM     10  C   UNL     1       3.326   3.016  20.454  0.00  0.00    +0.000 A 
ATOM     11  C   UNL     1       2.446   2.744  21.504  0.00  0.00    +0.000 A 
ATOM     12  C   UNL     1       1.072   2.802  21.291  0.00  0.00    +0.000 A 
ATOM     13  C   UNL     1       0.578   3.095  20.020  0.00  0.00    +0.000 A 
ATOM     14  C   UNL     1       1.459   3.415  18.984  0.00  0.00    +0.000 A 
ENDBRANCH   5   9
BRANCH   6  15
ATOM     15  C   UNL     1       3.213   6.557  18.359  0.00  0.00    +0.000 A 
ATOM     16  C   UNL     1       2.715   6.626  19.665  0.00  0.00    +0.000 A 
ATOM     17  C   UNL     1       1.922   7.686  20.111  0.00  0.00    +0.000 A 
ATOM     18  C   UNL     1       1.574   8.703  19.236  0.00  0.00    +0.000 A 
ATOM     19  C   UNL     1       2.087   8.693  17.946  0.00  0.00    +0.000 A 
ATOM     20  C   UNL     1       2.939   7.657  17.533  0.00  0.00    +0.000 A 
ENDBRANCH   6  15
BRANCH   1  21
ATOM     21  C   UNL     1       5.364   6.365  16.004  0.00  0.00    +0.000 C 
BRANCH  21  22
ATOM     22  C   UNL     1       6.600   7.059  16.593  0.00  0.00    +0.000 C 
BRANCH  22  23
ATOM     23  C   UNL     1       7.297   6.347  17.749  0.00  0.00    +0.000 C 
BRANCH  23  25
ATOM     24  C   UNL     1       8.123   8.735  17.883  0.00  0.00    +0.000 C 
ATOM     25  C   UNL     1       8.157   7.358  18.519  0.00  0.00    +0.000 C 
ENDBRANCH  23  25
ENDBRANCH  22  23
ENDBRANCH  21  22
ENDBRANCH   1  21
TORSDOF 6
ENDMDL
MODEL 7
REMARK VINA RESULT:      -7.5      1.689      5.535
REMARK  Name = 
REMARK  7 active torsions:
REMARK  status: ('A' for Active; 'I' for Inactive)
REMARK    1  A    between atoms: C_1  and  C_2
REMARK    2  A    between atoms: C_2  and  C_3
REMARK    3  A    between atoms: C_3  and  C_4
REMARK    4  A    between atoms: C_4  and  C_5
REMARK    5  A    between atoms: C_5  and  N_6
REMARK    6  A    between atoms: C_10  and  C_11
REMARK    7  A    between atoms: C_17  and  C_18
REMARK                            x       y       z     vdW  Elec       q    Type
REMARK                         _______ _______ _______ _____ _____    ______ ____
ROOT
ATOM      1  N   UNL     1       4.085   5.682  17.446  0.00  0.00    +0.000 N 
ATOM      2  C   UNL     1       4.494   6.868  16.865  0.00  0.00    +0.000 A 
ATOM      3  N   UNL     1       5.530   6.967  16.012  0.00  0.00    +0.000 N 
ATOM      4  N   UNL     1       3.748   7.869  17.245  0.00  0.00    +0.000 NA
ATOM      5  C   UNL     1       2.835   7.345  18.112  0.00  0.00    +0.000 A 
ATOM      6  C   UNL     1       3.030   5.967  18.319  0.00  0.00    +0.000 A 
ATOM      7  H   UNL     1       6.306   6.318  16.030  0.00  0.00    +0.000 HD
ATOM      8  H   UNL     1       5.814   7.919  15.792  0.00  0.00    +0.000 HD
ENDROOT
BRANCH   5   9
ATOM      9  C   UNL     1       1.849   8.202  18.778  0.00  0.00    +0.000 A 
ATOM     10  C   UNL     1       1.643   8.157  20.163  0.00  0.00    +0.000 A 
ATOM     11  C   UNL     1       0.893   9.146  20.804  0.00  0.00    +0.000 A 
ATOM     12  C   UNL     1       0.262  10.135  20.054  0.00  0.00    +0.000 A 
ATOM     13  C   UNL     1       0.351  10.113  18.663  0.00  0.00    +0.000 A 
ATOM     14  C   UNL     1       1.142   9.153  18.026  0.00  0.00    +0.000 A 
ENDBRANCH   5   9
BRANCH   6  15
ATOM     15  C   UNL     1       2.324   5.018  19.226  0.00  0.00    +0.000 A 
ATOM     16  C   UNL     1       2.645   4.894  20.583  0.00  0.00    +0.000 A 
ATOM     17  C   UNL     1       2.127   3.876  21.387  0.00  0.00    +0.000 A 
ATOM     18  C   UNL     1       1.288   2.920  20.835  0.00  0.00    +0.000 A 
ATOM     19  C   UNL     1       0.911   3.036  19.504  0.00  0.00    +0.000 A 
ATOM     20  C   UNL     1       1.384   4.104  18.727  0.00  0.00    +0.000 A 
ENDBRANCH   6  15
BRANCH   1  21
ATOM     21  C   UNL     1       4.752   4.410  17.240  0.00  0.00    +0.000 C 
BRANCH  21  22
ATOM     22  C   UNL     1       5.901   4.103  18.211  0.00  0.00    +0.000 C 
BRANCH  22  23
ATOM     23  C   UNL     1       7.278   4.637  17.831  0.00  0.00    +0.000 C 
BRANCH  23  25
ATOM     24  C   UNL     1       7.950   7.001  18.432  0.00  0.00    +0.000 C 
ATOM     25  C   UNL     1       7.776   5.579  18.934  0.00  0.00    +0.000 C 
ENDBRANCH  23  25
ENDBRANCH  22  23
ENDBRANCH  21  22
ENDBRANCH   1  21
TORSDOF 6
ENDMDL
MODEL 8
REMARK VINA RESULT:      -7.5      1.509      5.717
REMARK  Name = 
REMARK  7 active torsions:
REMARK  status: ('A' for Active; 'I' for Inactive)
REMARK    1  A    between atoms: C_1  and  C_2
REMARK    2  A    between atoms: C_2  and  C_3
REMARK    3  A    between atoms: C_3  and  C_4
REMARK    4  A    between atoms: C_4  and  C_5
REMARK    5  A    between atoms: C_5  and  N_6
REMARK    6  A    between atoms: C_10  and  C_11
REMARK    7  A    between atoms: C_17  and  C_18
REMARK                            x       y       z     vdW  Elec       q    Type
REMARK                         _______ _______ _______ _____ _____    ______ ____
ROOT
ATOM      1  N   UNL     1       5.652   5.839  17.628  0.00  0.00    +0.000 N 
ATOM      2  C   UNL     1       6.246   4.595  17.540  0.00  0.00    +0.000 A 
ATOM      3  N   UNL     1       7.468   4.382  17.019  0.00  0.00    +0.000 N 
ATOM      4  N   UNL     1       5.475   3.661  18.027  0.00  0.00    +0.000 NA
ATOM      5  C   UNL     1       4.336   4.292  18.431  0.00  0.00    +0.000 A 
ATOM      6  C   UNL     1       4.369   5.672  18.158  0.00  0.00    +0.000 A 
ATOM      7  H   UNL     1       7.870   4.995  16.321  0.00  0.00    +0.000 HD
ATOM      8  H   UNL     1       7.707   3.404  16.872  0.00  0.00    +0.000 HD
ENDROOT
BRANCH   5   9
ATOM      9  C   UNL     1       3.215   3.535  18.998  0.00  0.00    +0.000 A 
ATOM     10  C   UNL     1       3.141   3.230  20.364  0.00  0.00    +0.000 A 
ATOM     11  C   UNL     1       1.958   2.738  20.920  0.00  0.00    +0.000 A 
ATOM     12  C   UNL     1       0.869   2.456  20.101  0.00  0.00    +0.000 A 
ATOM     13  C   UNL     1       0.975   2.632  18.722  0.00  0.00    +0.000 A 
ATOM     14  C   UNL     1       2.141   3.171  18.172  0.00  0.00    +0.000 A 
ENDBRANCH   5   9
BRANCH   6  15
ATOM     15  C   UNL     1       3.328   6.721  18.359  0.00  0.00    +0.000 A 
ATOM     16  C   UNL     1       3.102   7.744  17.432  0.00  0.00    +0.000 A 
ATOM     17  C   UNL     1       2.271   8.834  17.703  0.00  0.00    +0.000 A 
ATOM     18  C   UNL     1       1.663   8.946  18.944  0.00  0.00    +0.000 A 
ATOM     19  C   UNL     1       1.827   7.928  19.873  0.00  0.00    +0.000 A 
ATOM     20  C   UNL     1       2.608   6.805  19.560  0.00  0.00    +0.000 A 
ENDBRANCH   6  15
BRANCH   1  21
ATOM     21  C   UNL     1       6.258   7.060  17.130  0.00  0.00    +0.000 C 
BRANCH  21  22
ATOM     22  C   UNL     1       7.524   7.517  17.869  0.00  0.00    +0.000 C 
BRANCH  22  23
ATOM     23  C   UNL     1       7.925   8.979  17.699  0.00  0.00    +0.000 C 
BRANCH  23  25
ATOM     24  C   UNL     1       9.447  10.769  18.639  0.00  0.00    +0.000 C 
ATOM     25  C   UNL     1       8.872   9.379  18.838  0.00  0.00    +0.000 C 
ENDBRANCH  23  25
ENDBRANCH  22  23
ENDBRANCH  21  22
ENDBRANCH   1  21
TORSDOF 6
ENDMDL
MODEL 9
REMARK VINA RESULT:      -7.4      0.417      1.078
REMARK  Name = 
REMARK  7 active torsions:
REMARK  status: ('A' for Active; 'I' for Inactive)
REMARK    1  A    between atoms: C_1  and  C_2
REMARK    2  A    between atoms: C_2  and  C_3
REMARK    3  A    between atoms: C_3  and  C_4
REMARK    4  A    between atoms: C_4  and  C_5
REMARK    5  A    between atoms: C_5  and  N_6
REMARK    6  A    between atoms: C_10  and  C_11
REMARK    7  A    between atoms: C_17  and  C_18
REMARK                            x       y       z     vdW  Elec       q    Type
REMARK                         _______ _______ _______ _____ _____    ______ ____
ROOT
ATOM      1  N   UNL     1       2.727   3.727  18.065  0.00  0.00    +0.000 N 
ATOM      2  C   UNL     1       3.691   2.751  17.900  0.00  0.00    +0.000 A 
ATOM      3  N   UNL     1       3.424   1.434  17.847  0.00  0.00    +0.000 N 
ATOM      4  N   UNL     1       4.885   3.270  17.801  0.00  0.00    +0.000 NA
ATOM      5  C   UNL     1       4.716   4.618  17.921  0.00  0.00    +0.000 A 
ATOM      6  C   UNL     1       3.371   4.966  18.141  0.00  0.00    +0.000 A 
ATOM      7  H   UNL     1       2.613   1.030  18.298  0.00  0.00    +0.000 HD
ATOM      8  H   UNL     1       4.241   0.828  17.885  0.00  0.00    +0.000 HD
ENDROOT
BRANCH   5   9
ATOM      9  C   UNL     1       5.866   5.527  17.899  0.00  0.00    +0.000 A 
ATOM     10  C   UNL     1       5.945   6.602  17.003  0.00  0.00    +0.000 A 
ATOM     11  C   UNL     1       6.913   7.595  17.165  0.00  0.00    +0.000 A 
ATOM     12  C   UNL     1       7.872   7.473  18.166  0.00  0.00    +0.000 A 
ATOM     13  C   UNL     1       7.884   6.341  18.981  0.00  0.00    +0.000 A 
ATOM     14  C   UNL     1       6.885   5.373  18.850  0.00  0.00    +0.000 A 
ENDBRANCH   5   9
BRANCH   6  15
ATOM     15  C   UNL     1       2.747   6.296  18.398  0.00  0.00    +0.000 A 
ATOM     16  C   UNL     1       2.651   7.285  17.413  0.00  0.00    +0.000 A 
ATOM     17  C   UNL     1       2.250   8.593  17.699  0.00  0.00    +0.000 A 
ATOM     18  C   UNL     1       1.964   8.957  19.005  0.00  0.00    +0.000 A 
ATOM     19  C   UNL     1       2.004   7.992  20.002  0.00  0.00    +0.000 A 
ATOM     20  C   UNL     1       2.341   6.667  19.689  0.00  0.00    +0.000 A 
ENDBRANCH   6  15
BRANCH   1  21
ATOM     21  C   UNL     1       1.314   3.444  18.243  0.00  0.00    +0.000 C 
BRANCH  21  22
ATOM     22  C   UNL     1       0.926   2.866  19.612  0.00  0.00    +0.000 C 
BRANCH  22  23
ATOM     23  C   UNL     1       0.884   3.846  20.781  0.00  0.00    +0.000 C 
BRANCH  23  25
ATOM     24  C   UNL     1       2.765   2.301  21.471  0.00  0.00    +0.000 C 
ATOM     25  C   UNL     1       2.157   3.683  21.621  0.00  0.00    +0.000 C 
ENDBRANCH  23  25
ENDBRANCH  22  23
ENDBRANCH  21  22
ENDBRANCH   1  21
TORSDOF 6
ENDMDL
