MODEL 1
REMARK VINA RESULT:      -8.9      0.000      0.000
REMARK  Name = 
REMARK  9 active torsions:
REMARK  status: ('A' for Active; 'I' for Inactive)
REMARK    1  A    between atoms: C_1  and  O_2
REMARK    2  A    between atoms: O_2  and  C_3
REMARK    3  A    between atoms: C_6  and  N_7
REMARK    4  A    between atoms: C_8  and  C_10
REMARK    5  A    between atoms: C_10  and  N_11
REMARK    6  A    between atoms: C_18  and  S_19
REMARK    7  A    between atoms: S_19  and  N_22
REMARK    8  A    between atoms: C_31  and  O_32
REMARK    9  A    between atoms: O_32  and  C_33
REMARK                            x       y       z     vdW  Elec       q    Type
REMARK                         _______ _______ _______ _____ _____    ______ ____
ROOT
ATOM      1  N   UNL     1       0.649   9.703  20.954  0.00  0.00    +0.000 N 
ATOM      2  C   UNL     1      -0.152   9.035  21.882  0.00  0.00    +0.000 A 
ATOM      3  O   UNL     1      -0.809   8.019  21.724  0.00  0.00    +0.000 OA
ATOM      4  C   UNL     1       0.091   9.688  23.139  0.00  0.00    +0.000 A 
ATOM      5  C   UNL     1      -0.982  10.423  22.909  0.00  0.00    +0.000 A 
ATOM      6  C   UNL     1      -0.512  11.616  22.256  0.00  0.00    +0.000 A 
ATOM      7  C   UNL     1      -1.342  12.600  23.221  0.00  0.00    +0.000 A 
ATOM      8  C   UNL     1      -1.313  13.951  23.210  0.00  0.00    +0.000 A 
ATOM      9  C   UNL     1      -0.385  14.183  22.223  0.00  0.00    +0.000 A 
ATOM     10  C   UNL     1       0.391  12.970  21.262  0.00  0.00    +0.000 A 
ATOM     11  C   UNL     1       0.528  11.488  21.107  0.00  0.00    +0.000 A 
ENDROOT
BRANCH   8  12
ATOM     12  S   UNL     1      -2.394  14.831  24.462  0.00  0.00    +0.000 S 
ATOM     13  O   UNL     1      -3.461  13.915  24.817  0.00  0.00    +0.000 OA
ATOM     14  O   UNL     1      -1.490  15.294  25.504  0.00  0.00    +0.000 OA
BRANCH  12  15
ATOM     15  N   UNL     1      -3.163  16.254  23.930  0.00  0.00    +0.000 NA
ATOM     16  C   UNL     1      -4.475  16.248  23.248  0.00  0.00    +0.000 C 
ATOM     17  C   UNL     1      -4.032  16.191  21.810  0.00  0.00    +0.000 C 
ATOM     18  C   UNL     1      -2.843  17.163  21.793  0.00  0.00    +0.000 C 
ATOM     19  C   UNL     1      -2.302  17.203  23.219  0.00  0.00    +0.000 C 
ENDBRANCH  12  15
ENDBRANCH   8  12
BRANCH   1  20
ATOM     20  C   UNL     1       1.509   8.232  20.375  0.00  0.00    +0.000 C 
BRANCH  20  22
ATOM     21  N   UNL     1       3.656   6.240  19.351  0.00  0.00    +0.000 N 
ATOM     22  C   UNL     1       2.506   7.257  19.137  0.00  0.00    +0.000 C 
ATOM     23  O   UNL     1       2.192   7.531  17.970  0.00  0.00    +0.000 OA
ATOM     24  H   UNL     1       4.118   6.085  20.251  0.00  0.00    +0.000 HD
BRANCH  21  28
ATOM     25  C   UNL     1       6.288   4.520  15.949  0.00  0.00    +0.000 A 
ATOM     26  C   UNL     1       5.062   3.894  16.281  0.00  0.00    +0.000 A 
ATOM     27  C   UNL     1       4.154   4.380  17.360  0.00  0.00    +0.000 A 
ATOM     28  C   UNL     1       4.461   5.526  18.172  0.00  0.00    +0.000 A 
ATOM     29  C   UNL     1       5.667   6.079  17.769  0.00  0.00    +0.000 A 
ATOM     30  C   UNL     1       6.559   5.647  16.723  0.00  0.00    +0.000 A 
BRANCH  25  32
ATOM     31  C   UNL     1       6.191   3.953  13.534  0.00  0.00    +0.000 C 
ATOM     32  O   UNL     1       6.896   4.099  14.781  0.00  0.00    +0.000 OA
ENDBRANCH  25  32
BRANCH  30  33
ATOM     33  O   UNL     1       7.547   6.596  16.658  0.00  0.00    +0.000 OA
ATOM     34  C   UNL     1       7.550   7.596  17.626  0.00  0.00    +0.000 C 
ENDBRANCH  30  33
ENDBRANCH  21  28
ENDBRANCH  20  22
ENDBRANCH   1  20
TORSDOF 7
ENDMDL
MODEL 2
REMARK VINA RESULT:      -8.6      2.195      2.768
REMARK  Name = 
REMARK  9 active torsions:
REMARK  status: ('A' for Active; 'I' for Inactive)
REMARK    1  A    between atoms: C_1  and  O_2
REMARK    2  A    between atoms: O_2  and  C_3
REMARK    3  A    between atoms: C_6  and  N_7
REMARK    4  A    between atoms: C_8  and  C_10
REMARK    5  A    between atoms: C_10  and  N_11
REMARK    6  A    between atoms: C_18  and  S_19
REMARK    7  A    between atoms: S_19  and  N_22
REMARK    8  A    between atoms: C_31  and  O_32
REMARK    9  A    between atoms: O_32  and  C_33
REMARK                            x       y       z     vdW  Elec       q    Type
REMARK                         _______ _______ _______ _____ _____    ______ ____
ROOT
ATOM      1  N   UNL     1       0.407   9.749  21.265  0.00  0.00    +0.000 N 
ATOM      2  C   UNL     1       0.409  10.362  20.011  0.00  0.00    +0.000 A 
ATOM      3  O   UNL     1       1.358  10.584  19.276  0.00  0.00    +0.000 OA
ATOM      4  C   UNL     1      -0.976  10.526  19.662  0.00  0.00    +0.000 A 
ATOM      5  C   UNL     1      -0.900  11.756  20.139  0.00  0.00    +0.000 A 
ATOM      6  C   UNL     1      -1.308  11.671  21.516  0.00  0.00    +0.000 A 
ATOM      7  C   UNL     1      -2.326  12.912  21.402  0.00  0.00    +0.000 A 
ATOM      8  C   UNL     1      -3.148  13.371  22.371  0.00  0.00    +0.000 A 
ATOM      9  C   UNL     1      -2.885  12.477  23.380  0.00  0.00    +0.000 A 
ATOM     10  C   UNL     1      -1.713  11.204  23.321  0.00  0.00    +0.000 A 
ATOM     11  C   UNL     1      -0.747  10.523  22.402  0.00  0.00    +0.000 A 
ENDROOT
BRANCH   8  12
ATOM     12  S   UNL     1      -4.227  14.841  21.940  0.00  0.00    +0.000 S 
ATOM     13  O   UNL     1      -4.414  15.602  23.160  0.00  0.00    +0.000 OA
ATOM     14  O   UNL     1      -3.581  15.483  20.805  0.00  0.00    +0.000 OA
BRANCH  12  15
ATOM     15  N   UNL     1      -5.792  14.489  21.369  0.00  0.00    +0.000 NA
ATOM     16  C   UNL     1      -6.948  14.296  22.271  0.00  0.00    +0.000 C 
ATOM     17  C   UNL     1      -6.899  12.802  22.459  0.00  0.00    +0.000 C 
ATOM     18  C   UNL     1      -6.577  12.304  21.042  0.00  0.00    +0.000 C 
ATOM     19  C   UNL     1      -5.864  13.453  20.335  0.00  0.00    +0.000 C 
ENDBRANCH  12  15
ENDBRANCH   8  12
BRANCH   1  20
ATOM     20  C   UNL     1       1.432   8.352  20.778  0.00  0.00    +0.000 C 
BRANCH  20  22
ATOM     21  N   UNL     1       3.276   6.076  19.755  0.00  0.00    +0.000 N 
ATOM     22  C   UNL     1       2.374   7.319  19.544  0.00  0.00    +0.000 C 
ATOM     23  O   UNL     1       2.264   7.760  18.392  0.00  0.00    +0.000 OA
ATOM     24  H   UNL     1       3.586   5.747  20.674  0.00  0.00    +0.000 HD
BRANCH  21  28
ATOM     25  C   UNL     1       5.948   4.181  16.479  0.00  0.00    +0.000 A 
ATOM     26  C   UNL     1       4.579   3.828  16.570  0.00  0.00    +0.000 A 
ATOM     27  C   UNL     1       3.649   4.389  17.591  0.00  0.00    +0.000 A 
ATOM     28  C   UNL     1       4.073   5.331  18.590  0.00  0.00    +0.000 A 
ATOM     29  C   UNL     1       5.417   5.626  18.417  0.00  0.00    +0.000 A 
ATOM     30  C   UNL     1       6.339   5.118  17.434  0.00  0.00    +0.000 A 
BRANCH  25  32
ATOM     31  C   UNL     1       6.116   3.979  14.011  0.00  0.00    +0.000 C 
ATOM     32  O   UNL     1       6.617   3.763  15.343  0.00  0.00    +0.000 OA
ENDBRANCH  25  32
BRANCH  30  33
ATOM     33  O   UNL     1       7.508   5.809  17.625  0.00  0.00    +0.000 OA
ATOM     34  C   UNL     1       7.480   7.190  17.455  0.00  0.00    +0.000 C 
ENDBRANCH  30  33
ENDBRANCH  21  28
ENDBRANCH  20  22
ENDBRANCH   1  20
TORSDOF 7
ENDMDL
MODEL 3
REMARK VINA RESULT:      -8.5      3.632     12.980
REMARK  Name = 
REMARK  9 active torsions:
REMARK  status: ('A' for Active; 'I' for Inactive)
REMARK    1  A    between atoms: C_1  and  O_2
REMARK    2  A    between atoms: O_2  and  C_3
REMARK    3  A    between atoms: C_6  and  N_7
REMARK    4  A    between atoms: C_8  and  C_10
REMARK    5  A    between atoms: C_10  and  N_11
REMARK    6  A    between atoms: C_18  and  S_19
REMARK    7  A    between atoms: S_19  and  N_22
REMARK    8  A    between atoms: C_31  and  O_32
REMARK    9  A    between atoms: O_32  and  C_33
REMARK                            x       y       z     vdW  Elec       q    Type
REMARK                         _______ _______ _______ _____ _____    ______ ____
ROOT
ATOM      1  N   UNL     1      -0.033  10.564  21.349  0.00  0.00    +0.000 N 
ATOM      2  C   UNL     1       0.106   9.651  22.396  0.00  0.00    +0.000 A 
ATOM      3  O   UNL     1       0.320   9.877  23.576  0.00  0.00    +0.000 OA
ATOM      4  C   UNL     1      -0.236   8.372  21.836  0.00  0.00    +0.000 A 
ATOM      5  C   UNL     1       1.054   8.169  21.636  0.00  0.00    +0.000 A 
ATOM      6  C   UNL     1       1.324   8.626  20.299  0.00  0.00    +0.000 A 
ATOM      7  C   UNL     1       2.132   7.295  19.892  0.00  0.00    +0.000 A 
ATOM      8  C   UNL     1       2.646   7.006  18.676  0.00  0.00    +0.000 A 
ATOM      9  C   UNL     1       2.243   8.103  17.955  0.00  0.00    +0.000 A 
ATOM     10  C   UNL     1       1.389   9.470  18.589  0.00  0.00    +0.000 A 
ATOM     11  C   UNL     1       0.731   9.985  19.830  0.00  0.00    +0.000 A 
ENDROOT
BRANCH   8  12
ATOM     12  S   UNL     1       3.539   5.368  18.504  0.00  0.00    +0.000 S 
ATOM     13  O   UNL     1       3.818   5.184  17.093  0.00  0.00    +0.000 OA
ATOM     14  O   UNL     1       4.655   5.429  19.438  0.00  0.00    +0.000 OA
BRANCH  12  15
ATOM     15  N   UNL     1       2.679   3.981  18.991  0.00  0.00    +0.000 NA
ATOM     16  C   UNL     1       3.183   3.047  20.020  0.00  0.00    +0.000 C 
ATOM     17  C   UNL     1       3.903   2.049  19.152  0.00  0.00    +0.000 C 
ATOM     18  C   UNL     1       2.938   1.888  17.968  0.00  0.00    +0.000 C 
ATOM     19  C   UNL     1       2.122   3.176  17.901  0.00  0.00    +0.000 C 
ENDBRANCH  12  15
ENDBRANCH   8  12
BRANCH   1  20
ATOM     20  C   UNL     1      -1.179  11.648  22.215  0.00  0.00    +0.000 C 
BRANCH  20  22
ATOM     21  N   UNL     1      -3.051  13.762  23.502  0.00  0.00    +0.000 N 
ATOM     22  C   UNL     1      -2.512  12.951  22.296  0.00  0.00    +0.000 C 
ATOM     23  O   UNL     1      -3.051  13.130  21.195  0.00  0.00    +0.000 OA
ATOM     24  H   UNL     1      -2.813  13.560  24.476  0.00  0.00    +0.000 HD
BRANCH  21  28
ATOM     25  C   UNL     1      -6.824  16.445  23.331  0.00  0.00    +0.000 A 
ATOM     26  C   UNL     1      -5.550  16.995  23.045  0.00  0.00    +0.000 A 
ATOM     27  C   UNL     1      -4.286  16.204  23.075  0.00  0.00    +0.000 A 
ATOM     28  C   UNL     1      -4.253  14.809  23.420  0.00  0.00    +0.000 A 
ATOM     29  C   UNL     1      -5.540  14.356  23.670  0.00  0.00    +0.000 A 
ATOM     30  C   UNL     1      -6.782  15.085  23.633  0.00  0.00    +0.000 A 
BRANCH  25  32
ATOM     31  C   UNL     1      -7.826  18.436  22.238  0.00  0.00    +0.000 C 
ATOM     32  O   UNL     1      -7.916  17.238  23.030  0.00  0.00    +0.000 OA
ENDBRANCH  25  32
BRANCH  30  33
ATOM     33  O   UNL     1      -7.767  14.156  23.845  0.00  0.00    +0.000 OA
ATOM     34  C   UNL     1      -7.509  12.839  23.475  0.00  0.00    +0.000 C 
ENDBRANCH  30  33
ENDBRANCH  21  28
ENDBRANCH  20  22
ENDBRANCH   1  20
TORSDOF 7
ENDMDL
MODEL 4
REMARK VINA RESULT:      -8.4      3.409     12.741
REMARK  Name = 
REMARK  9 active torsions:
REMARK  status: ('A' for Active; 'I' for Inactive)
REMARK    1  A    between atoms: C_1  and  O_2
REMARK    2  A    between atoms: O_2  and  C_3
REMARK    3  A    between atoms: C_6  and  N_7
REMARK    4  A    between atoms: C_8  and  C_10
REMARK    5  A    between atoms: C_10  and  N_11
REMARK    6  A    between atoms: C_18  and  S_19
REMARK    7  A    between atoms: S_19  and  N_22
REMARK    8  A    between atoms: C_31  and  O_32
REMARK    9  A    between atoms: O_32  and  C_33
REMARK                            x       y       z     vdW  Elec       q    Type
REMARK                         _______ _______ _______ _____ _____    ______ ____
ROOT
ATOM      1  N   UNL     1       0.584   8.956  20.192  0.00  0.00    +0.000 N 
ATOM      2  C   UNL     1       0.619   9.756  19.049  0.00  0.00    +0.000 A 
ATOM      3  O   UNL     1      -0.311  10.298  18.474  0.00  0.00    +0.000 OA
ATOM      4  C   UNL     1       2.014   9.971  18.775  0.00  0.00    +0.000 A 
ATOM      5  C   UNL     1       1.953   8.959  17.928  0.00  0.00    +0.000 A 
ATOM      6  C   UNL     1       2.333   7.792  18.680  0.00  0.00    +0.000 A 
ATOM      7  C   UNL     1       3.379   7.284  17.567  0.00  0.00    +0.000 A 
ATOM      8  C   UNL     1       4.190   6.208  17.658  0.00  0.00    +0.000 A 
ATOM      9  C   UNL     1       3.888   5.760  18.921  0.00  0.00    +0.000 A 
ATOM     10  C   UNL     1       2.692   6.437  19.973  0.00  0.00    +0.000 A 
ATOM     11  C   UNL     1       1.731   7.577  20.097  0.00  0.00    +0.000 A 
ENDROOT
BRANCH   8  12
ATOM     12  S   UNL     1       5.307   5.866  16.193  0.00  0.00    +0.000 S 
ATOM     13  O   UNL     1       4.999   4.526  15.729  0.00  0.00    +0.000 OA
ATOM     14  O   UNL     1       5.116   6.985  15.283  0.00  0.00    +0.000 OA
BRANCH  12  15
ATOM     15  N   UNL     1       6.982   5.875  16.501  0.00  0.00    +0.000 NA
ATOM     16  C   UNL     1       7.679   4.756  17.171  0.00  0.00    +0.000 C 
ATOM     17  C   UNL     1       7.618   5.218  18.603  0.00  0.00    +0.000 C 
ATOM     18  C   UNL     1       7.918   6.719  18.477  0.00  0.00    +0.000 C 
ATOM     19  C   UNL     1       7.508   7.122  17.064  0.00  0.00    +0.000 C 
ENDBRANCH  12  15
ENDBRANCH   8  12
BRANCH   1  20
ATOM     20  C   UNL     1      -0.461  10.065  21.150  0.00  0.00    +0.000 C 
BRANCH  20  22
ATOM     21  N   UNL     1      -1.767  12.068  23.127  0.00  0.00    +0.000 N 
ATOM     22  C   UNL     1      -0.915  11.720  21.880  0.00  0.00    +0.000 C 
ATOM     23  O   UNL     1      -0.480  12.660  21.201  0.00  0.00    +0.000 OA
ATOM     24  H   UNL     1      -2.325  11.383  23.644  0.00  0.00    +0.000 HD
BRANCH  21  28
ATOM     25  C   UNL     1      -3.234  16.280  24.379  0.00  0.00    +0.000 A 
ATOM     26  C   UNL     1      -1.847  15.995  24.341  0.00  0.00    +0.000 A 
ATOM     27  C   UNL     1      -1.288  14.669  23.950  0.00  0.00    +0.000 A 
ATOM     28  C   UNL     1      -2.121  13.553  23.593  0.00  0.00    +0.000 A 
ATOM     29  C   UNL     1      -3.456  13.926  23.645  0.00  0.00    +0.000 A 
ATOM     30  C   UNL     1      -4.029  15.199  24.001  0.00  0.00    +0.000 A 
BRANCH  25  32
ATOM     31  C   UNL     1      -4.622  18.054  25.422  0.00  0.00    +0.000 C 
ATOM     32  O   UNL     1      -3.584  17.609  24.528  0.00  0.00    +0.000 OA
ENDBRANCH  25  32
BRANCH  30  33
ATOM     33  O   UNL     1      -5.377  15.076  23.784  0.00  0.00    +0.000 OA
ATOM     34  C   UNL     1      -5.862  15.384  22.516  0.00  0.00    +0.000 C 
ENDBRANCH  30  33
ENDBRANCH  21  28
ENDBRANCH  20  22
ENDBRANCH   1  20
TORSDOF 7
ENDMDL
MODEL 5
REMARK VINA RESULT:      -8.3      3.911     12.308
REMARK  Name = 
REMARK  9 active torsions:
REMARK  status: ('A' for Active; 'I' for Inactive)
REMARK    1  A    between atoms: C_1  and  O_2
REMARK    2  A    between atoms: O_2  and  C_3
REMARK    3  A    between atoms: C_6  and  N_7
REMARK    4  A    between atoms: C_8  and  C_10
REMARK    5  A    between atoms: C_10  and  N_11
REMARK    6  A    between atoms: C_18  and  S_19
REMARK    7  A    between atoms: S_19  and  N_22
REMARK    8  A    between atoms: C_31  and  O_32
REMARK    9  A    between atoms: O_32  and  C_33
REMARK                            x       y       z     vdW  Elec       q    Type
REMARK                         _______ _______ _______ _____ _____    ______ ____
ROOT
ATOM      1  N   UNL     1       1.254   9.860  19.582  0.00  0.00    +0.000 N 
ATOM      2  C   UNL     1       1.086   9.296  20.848  0.00  0.00    +0.000 A 
ATOM      3  O   UNL     1       1.189   9.836  21.938  0.00  0.00    +0.000 OA
ATOM      4  C   UNL     1       0.583   7.970  20.613  0.00  0.00    +0.000 A 
ATOM      5  C   UNL     1       1.826   7.535  20.707  0.00  0.00    +0.000 A 
ATOM      6  C   UNL     1       2.343   7.521  19.365  0.00  0.00    +0.000 A 
ATOM      7  C   UNL     1       2.931   6.029  19.491  0.00  0.00    +0.000 A 
ATOM      8  C   UNL     1       3.530   5.314  18.512  0.00  0.00    +0.000 A 
ATOM      9  C   UNL     1       3.434   6.188  17.457  0.00  0.00    +0.000 A 
ATOM     10  C   UNL     1       2.781   7.790  17.527  0.00  0.00    +0.000 A 
ATOM     11  C   UNL     1       2.081   8.746  18.442  0.00  0.00    +0.000 A 
ENDROOT
BRANCH   8  12
ATOM     12  S   UNL     1       4.113   3.592  18.960  0.00  0.00    +0.000 S 
ATOM     13  O   UNL     1       4.297   2.870  17.716  0.00  0.00    +0.000 OA
ATOM     14  O   UNL     1       5.259   3.780  19.837  0.00  0.00    +0.000 OA
BRANCH  12  15
ATOM     15  N   UNL     1       3.043   2.647  19.890  0.00  0.00    +0.000 NA
ATOM     16  C   UNL     1       1.859   1.977  19.311  0.00  0.00    +0.000 C 
ATOM     17  C   UNL     1       0.810   3.032  19.543  0.00  0.00    +0.000 C 
ATOM     18  C   UNL     1       1.150   3.530  20.955  0.00  0.00    +0.000 C 
ATOM     19  C   UNL     1       2.633   3.240  21.166  0.00  0.00    +0.000 C 
ENDBRANCH  12  15
ENDBRANCH   8  12
BRANCH   1  20
ATOM     20  C   UNL     1       0.233  11.308  19.898  0.00  0.00    +0.000 C 
BRANCH  20  22
ATOM     21  N   UNL     1      -1.821  11.917  22.142  0.00  0.00    +0.000 N 
ATOM     22  C   UNL     1      -1.032  12.284  20.860  0.00  0.00    +0.000 C 
ATOM     23  O   UNL     1      -1.278  13.375  20.327  0.00  0.00    +0.000 OA
ATOM     24  H   UNL     1      -1.837  10.979  22.552  0.00  0.00    +0.000 HD
BRANCH  21  28
ATOM     25  C   UNL     1      -5.334  14.441  23.801  0.00  0.00    +0.000 A 
ATOM     26  C   UNL     1      -4.019  14.652  24.285  0.00  0.00    +0.000 A 
ATOM     27  C   UNL     1      -2.832  13.886  23.807  0.00  0.00    +0.000 A 
ATOM     28  C   UNL     1      -2.928  12.847  22.818  0.00  0.00    +0.000 A 
ATOM     29  C   UNL     1      -4.243  12.720  22.395  0.00  0.00    +0.000 A 
ATOM     30  C   UNL     1      -5.408  13.453  22.821  0.00  0.00    +0.000 A 
BRANCH  25  32
ATOM     31  C   UNL     1      -7.046  16.137  23.206  0.00  0.00    +0.000 C 
ATOM     32  O   UNL     1      -6.280  15.382  24.163  0.00  0.00    +0.000 OA
ENDBRANCH  25  32
BRANCH  30  33
ATOM     33  O   UNL     1      -6.434  13.024  22.018  0.00  0.00    +0.000 OA
ATOM     34  C   UNL     1      -7.516  12.396  22.628  0.00  0.00    +0.000 C 
ENDBRANCH  30  33
ENDBRANCH  21  28
ENDBRANCH  20  22
ENDBRANCH   1  20
TORSDOF 7
ENDMDL
MODEL 6
REMARK VINA RESULT:      -8.3      3.702     12.526
REMARK  Name = 
REMARK  9 active torsions:
REMARK  status: ('A' for Active; 'I' for Inactive)
REMARK    1  A    between atoms: C_1  and  O_2
REMARK    2  A    between atoms: O_2  and  C_3
REMARK    3  A    between atoms: C_6  and  N_7
REMARK    4  A    between atoms: C_8  and  C_10
REMARK    5  A    between atoms: C_10  and  N_11
REMARK    6  A    between atoms: C_18  and  S_19
REMARK    7  A    between atoms: S_19  and  N_22
REMARK    8  A    between atoms: C_31  and  O_32
REMARK    9  A    between atoms: O_32  and  C_33
REMARK                            x       y       z     vdW  Elec       q    Type
REMARK                         _______ _______ _______ _____ _____    ______ ____
ROOT
ATOM      1  N   UNL     1       0.960   9.938  19.999  0.00  0.00    +0.000 N 
ATOM      2  C   UNL     1       0.954   9.326  21.253  0.00  0.00    +0.000 A 
ATOM      3  O   UNL     1       1.140   9.836  22.347  0.00  0.00    +0.000 OA
ATOM      4  C   UNL     1       0.500   7.982  21.022  0.00  0.00    +0.000 A 
ATOM      5  C   UNL     1       1.768   7.614  20.973  0.00  0.00    +0.000 A 
ATOM      6  C   UNL     1       2.143   7.673  19.585  0.00  0.00    +0.000 A 
ATOM      7  C   UNL     1       2.820   6.213  19.595  0.00  0.00    +0.000 A 
ATOM      8  C   UNL     1       3.351   5.565  18.535  0.00  0.00    +0.000 A 
ATOM      9  C   UNL     1       3.101   6.465  17.528  0.00  0.00    +0.000 A 
ATOM     10  C   UNL     1       2.374   8.024  17.724  0.00  0.00    +0.000 A 
ATOM     11  C   UNL     1       1.722   8.909  18.740  0.00  0.00    +0.000 A 
ENDROOT
BRANCH   8  12
ATOM     12  S   UNL     1       4.069   3.865  18.856  0.00  0.00    +0.000 S 
ATOM     13  O   UNL     1       4.455   3.318  17.569  0.00  0.00    +0.000 OA
ATOM     14  O   UNL     1       5.093   4.056  19.873  0.00  0.00    +0.000 OA
BRANCH  12  15
ATOM     15  N   UNL     1       3.018   2.719  19.550  0.00  0.00    +0.000 NA
ATOM     16  C   UNL     1       1.692   2.400  18.979  0.00  0.00    +0.000 C 
ATOM     17  C   UNL     1       0.827   3.362  19.751  0.00  0.00    +0.000 C 
ATOM     18  C   UNL     1       1.412   3.266  21.167  0.00  0.00    +0.000 C 
ATOM     19  C   UNL     1       2.860   2.814  21.004  0.00  0.00    +0.000 C 
ENDBRANCH  12  15
ENDBRANCH   8  12
BRANCH   1  20
ATOM     20  C   UNL     1      -0.099  11.315  20.471  0.00  0.00    +0.000 C 
BRANCH  20  22
ATOM     21  N   UNL     1      -2.265  12.869  22.057  0.00  0.00    +0.000 N 
ATOM     22  C   UNL     1      -0.796  12.549  21.683  0.00  0.00    +0.000 C 
ATOM     23  O   UNL     1       0.094  13.226  22.217  0.00  0.00    +0.000 OA
ATOM     24  H   UNL     1      -3.075  12.509  21.545  0.00  0.00    +0.000 HD
BRANCH  21  28
ATOM     25  C   UNL     1      -3.651  16.442  24.661  0.00  0.00    +0.000 A 
ATOM     26  C   UNL     1      -3.063  15.307  25.270  0.00  0.00    +0.000 A 
ATOM     27  C   UNL     1      -2.589  14.115  24.510  0.00  0.00    +0.000 A 
ATOM     28  C   UNL     1      -2.708  14.011  23.081  0.00  0.00    +0.000 A 
ATOM     29  C   UNL     1      -3.280  15.167  22.571  0.00  0.00    +0.000 A 
ATOM     30  C   UNL     1      -3.732  16.342  23.273  0.00  0.00    +0.000 A 
BRANCH  25  32
ATOM     31  C   UNL     1      -5.034  18.326  25.499  0.00  0.00    +0.000 C 
ATOM     32  O   UNL     1      -3.819  17.554  25.465  0.00  0.00    +0.000 OA
ENDBRANCH  25  32
BRANCH  30  33
ATOM     33  O   UNL     1      -4.108  17.235  22.303  0.00  0.00    +0.000 OA
ATOM     34  C   UNL     1      -5.416  17.168  21.831  0.00  0.00    +0.000 C 
ENDBRANCH  30  33
ENDBRANCH  21  28
ENDBRANCH  20  22
ENDBRANCH   1  20
TORSDOF 7
ENDMDL
MODEL 7
REMARK VINA RESULT:      -8.2      2.003      2.552
REMARK  Name = 
REMARK  9 active torsions:
REMARK  status: ('A' for Active; 'I' for Inactive)
REMARK    1  A    between atoms: C_1  and  O_2
REMARK    2  A    between atoms: O_2  and  C_3
REMARK    3  A    between atoms: C_6  and  N_7
REMARK    4  A    between atoms: C_8  and  C_10
REMARK    5  A    between atoms: C_10  and  N_11
REMARK    6  A    between atoms: C_18  and  S_19
REMARK    7  A    between atoms: S_19  and  N_22
REMARK    8  A    between atoms: C_31  and  O_32
REMARK    9  A    between atoms: O_32  and  C_33
REMARK                            x       y       z     vdW  Elec       q    Type
REMARK                         _______ _______ _______ _____ _____    ______ ____
ROOT
ATOM      1  N   UNL     1       0.289  10.093  21.461  0.00  0.00    +0.000 N 
ATOM      2  C   UNL     1       0.363  10.765  20.239  0.00  0.00    +0.000 A 
ATOM      3  O   UNL     1       1.356  11.048  19.589  0.00  0.00    +0.000 OA
ATOM      4  C   UNL     1      -0.997  10.905  19.796  0.00  0.00    +0.000 A 
ATOM      5  C   UNL     1      -0.996  12.112  20.332  0.00  0.00    +0.000 A 
ATOM      6  C   UNL     1      -1.501  11.952  21.670  0.00  0.00    +0.000 A 
ATOM      7  C   UNL     1      -2.547  13.167  21.536  0.00  0.00    +0.000 A 
ATOM      8  C   UNL     1      -3.452  13.556  22.461  0.00  0.00    +0.000 A 
ATOM      9  C   UNL     1      -3.235  12.623  23.445  0.00  0.00    +0.000 A 
ATOM     10  C   UNL     1      -2.021  11.388  23.416  0.00  0.00    +0.000 A 
ATOM     11  C   UNL     1      -0.969  10.780  22.543  0.00  0.00    +0.000 A 
ENDROOT
BRANCH   8  12
ATOM     12  S   UNL     1      -4.543  15.012  22.016  0.00  0.00    +0.000 S 
ATOM     13  O   UNL     1      -4.379  15.246  20.594  0.00  0.00    +0.000 OA
ATOM     14  O   UNL     1      -5.866  14.683  22.525  0.00  0.00    +0.000 OA
BRANCH  12  15
ATOM     15  N   UNL     1      -4.175  16.493  22.774  0.00  0.00    +0.000 NA
ATOM     16  C   UNL     1      -2.977  16.683  23.620  0.00  0.00    +0.000 C 
ATOM     17  C   UNL     1      -3.549  16.362  24.976  0.00  0.00    +0.000 C 
ATOM     18  C   UNL     1      -4.920  17.051  24.925  0.00  0.00    +0.000 C 
ATOM     19  C   UNL     1      -5.299  17.146  23.451  0.00  0.00    +0.000 C 
ENDBRANCH  12  15
ENDBRANCH   8  12
BRANCH   1  20
ATOM     20  C   UNL     1       1.392   8.751  20.990  0.00  0.00    +0.000 C 
BRANCH  20  22
ATOM     21  N   UNL     1       2.942   6.255  19.994  0.00  0.00    +0.000 N 
ATOM     22  C   UNL     1       2.180   7.586  19.766  0.00  0.00    +0.000 C 
ATOM     23  O   UNL     1       2.091   8.006  18.604  0.00  0.00    +0.000 OA
ATOM     24  H   UNL     1       3.235   5.917  20.914  0.00  0.00    +0.000 HD
BRANCH  21  28
ATOM     25  C   UNL     1       5.313   3.933  16.762  0.00  0.00    +0.000 A 
ATOM     26  C   UNL     1       3.897   3.891  16.769  0.00  0.00    +0.000 A 
ATOM     27  C   UNL     1       3.056   4.608  17.770  0.00  0.00    +0.000 A 
ATOM     28  C   UNL     1       3.620   5.394  18.833  0.00  0.00    +0.000 A 
ATOM     29  C   UNL     1       5.004   5.388  18.740  0.00  0.00    +0.000 A 
ATOM     30  C   UNL     1       5.845   4.723  17.779  0.00  0.00    +0.000 A 
BRANCH  25  32
ATOM     31  C   UNL     1       6.593   4.240  14.657  0.00  0.00    +0.000 C 
ATOM     32  O   UNL     1       5.937   3.418  15.640  0.00  0.00    +0.000 OA
ENDBRANCH  25  32
BRANCH  30  33
ATOM     33  O   UNL     1       7.125   5.128  18.059  0.00  0.00    +0.000 OA
ATOM     34  C   UNL     1       7.365   5.709  19.301  0.00  0.00    +0.000 C 
ENDBRANCH  30  33
ENDBRANCH  21  28
ENDBRANCH  20  22
ENDBRANCH   1  20
TORSDOF 7
ENDMDL
MODEL 8
REMARK VINA RESULT:      -8.1      4.320     12.160
REMARK  Name = 
REMARK  9 active torsions:
REMARK  status: ('A' for Active; 'I' for Inactive)
REMARK    1  A    between atoms: C_1  and  O_2
REMARK    2  A    between atoms: O_2  and  C_3
REMARK    3  A    between atoms: C_6  and  N_7
REMARK    4  A    between atoms: C_8  and  C_10
REMARK    5  A    between atoms: C_10  and  N_11
REMARK    6  A    between atoms: C_18  and  S_19
REMARK    7  A    between atoms: S_19  and  N_22
REMARK    8  A    between atoms: C_31  and  O_32
REMARK    9  A    between atoms: O_32  and  C_33
REMARK                            x       y       z     vdW  Elec       q    Type
REMARK                         _______ _______ _______ _____ _____    ______ ____
ROOT
ATOM      1  N   UNL     1       1.007   9.923  20.188  0.00  0.00    +0.000 N 
ATOM      2  C   UNL     1       0.995   9.251  21.411  0.00  0.00    +0.000 A 
ATOM      3  O   UNL     1       1.200   9.703  22.527  0.00  0.00    +0.000 OA
ATOM      4  C   UNL     1       0.507   7.931  21.118  0.00  0.00    +0.000 A 
ATOM      5  C   UNL     1       1.766   7.537  21.042  0.00  0.00    +0.000 A 
ATOM      6  C   UNL     1       2.133   7.654  19.656  0.00  0.00    +0.000 A 
ATOM      7  C   UNL     1       2.774   6.179  19.590  0.00  0.00    +0.000 A 
ATOM      8  C   UNL     1       3.283   5.571  18.496  0.00  0.00    +0.000 A 
ATOM      9  C   UNL     1       3.048   6.525  17.535  0.00  0.00    +0.000 A 
ATOM     10  C   UNL     1       2.360   8.089  17.813  0.00  0.00    +0.000 A 
ATOM     11  C   UNL     1       1.737   8.939  18.875  0.00  0.00    +0.000 A 
ENDROOT
BRANCH   8  12
ATOM     12  S   UNL     1       3.962   3.841  18.729  0.00  0.00    +0.000 S 
ATOM     13  O   UNL     1       4.216   3.304  17.406  0.00  0.00    +0.000 OA
ATOM     14  O   UNL     1       5.075   3.977  19.657  0.00  0.00    +0.000 OA
BRANCH  12  15
ATOM     15  N   UNL     1       2.932   2.721  19.494  0.00  0.00    +0.000 NA
ATOM     16  C   UNL     1       1.537   2.489  19.059  0.00  0.00    +0.000 C 
ATOM     17  C   UNL     1       0.810   3.461  19.950  0.00  0.00    +0.000 C 
ATOM     18  C   UNL     1       1.536   3.282  21.292  0.00  0.00    +0.000 C 
ATOM     19  C   UNL     1       2.933   2.767  20.959  0.00  0.00    +0.000 C 
ENDBRANCH  12  15
ENDBRANCH   8  12
BRANCH   1  20
ATOM     20  C   UNL     1      -0.015  11.300  20.734  0.00  0.00    +0.000 C 
BRANCH  20  22
ATOM     21  N   UNL     1      -3.014  12.012  20.383  0.00  0.00    +0.000 N 
ATOM     22  C   UNL     1      -1.538  12.375  20.685  0.00  0.00    +0.000 C 
ATOM     23  O   UNL     1      -1.270  13.567  20.890  0.00  0.00    +0.000 OA
ATOM     24  H   UNL     1      -3.314  11.104  20.018  0.00  0.00    +0.000 HD
BRANCH  21  28
ATOM     25  C   UNL     1      -6.702  14.778  19.923  0.00  0.00    +0.000 A 
ATOM     26  C   UNL     1      -5.544  15.246  20.590  0.00  0.00    +0.000 A 
ATOM     27  C   UNL     1      -4.314  14.425  20.782  0.00  0.00    +0.000 A 
ATOM     28  C   UNL     1      -4.208  13.069  20.317  0.00  0.00    +0.000 A 
ATOM     29  C   UNL     1      -5.378  12.702  19.668  0.00  0.00    +0.000 A 
ATOM     30  C   UNL     1      -6.575  13.473  19.450  0.00  0.00    +0.000 A 
BRANCH  25  32
ATOM     31  C   UNL     1      -7.496  17.130  19.890  0.00  0.00    +0.000 C 
ATOM     32  O   UNL     1      -7.661  15.726  19.617  0.00  0.00    +0.000 OA
ENDBRANCH  25  32
BRANCH  30  33
ATOM     33  O   UNL     1      -7.384  12.693  18.665  0.00  0.00    +0.000 OA
ATOM     34  C   UNL     1      -6.837  11.537  18.116  0.00  0.00    +0.000 C 
ENDBRANCH  30  33
ENDBRANCH  21  28
ENDBRANCH  20  22
ENDBRANCH   1  20
TORSDOF 7
ENDMDL
MODEL 9
REMARK VINA RESULT:      -8.1      7.512      9.407
REMARK  Name = 
REMARK  9 active torsions:
REMARK  status: ('A' for Active; 'I' for Inactive)
REMARK    1  A    between atoms: C_1  and  O_2
REMARK    2  A    between atoms: O_2  and  C_3
REMARK    3  A    between atoms: C_6  and  N_7
REMARK    4  A    between atoms: C_8  and  C_10
REMARK    5  A    between atoms: C_10  and  N_11
REMARK    6  A    between atoms: C_18  and  S_19
REMARK    7  A    between atoms: S_19  and  N_22
REMARK    8  A    between atoms: C_31  and  O_32
REMARK    9  A    between atoms: O_32  and  C_33
REMARK                            x       y       z     vdW  Elec       q    Type
REMARK                         _______ _______ _______ _____ _____    ______ ____
ROOT
ATOM      1  N   UNL     1       9.388  10.870  19.387  0.00  0.00    +0.000 N 
ATOM      2  C   UNL     1       9.874  11.559  18.274  0.00  0.00    +0.000 A 
ATOM      3  O   UNL     1      10.648  11.165  17.417  0.00  0.00    +0.000 OA
ATOM      4  C   UNL     1       9.133  12.790  18.232  0.00  0.00    +0.000 A 
ATOM      5  C   UNL     1      10.134  13.358  18.881  0.00  0.00    +0.000 A 
ATOM      6  C   UNL     1       9.802  13.265  20.278  0.00  0.00    +0.000 A 
ATOM      7  C   UNL     1      10.127  14.814  20.569  0.00  0.00    +0.000 A 
ATOM      8  C   UNL     1       9.961  15.465  21.741  0.00  0.00    +0.000 A 
ATOM      9  C   UNL     1       9.425  14.467  22.519  0.00  0.00    +0.000 A 
ATOM     10  C   UNL     1       9.172  12.827  22.025  0.00  0.00    +0.000 A 
ATOM     11  C   UNL     1       9.257  11.920  20.838  0.00  0.00    +0.000 A 
ENDROOT
BRANCH   8  12
ATOM     12  S   UNL     1      10.428  17.278  21.774  0.00  0.00    +0.000 S 
ATOM     13  O   UNL     1      10.207  17.748  23.129  0.00  0.00    +0.000 OA
ATOM     14  O   UNL     1      11.771  17.349  21.218  0.00  0.00    +0.000 OA
BRANCH  12  15
ATOM     15  N   UNL     1       9.519  18.313  20.772  0.00  0.00    +0.000 NA
ATOM     16  C   UNL     1       8.052  18.457  20.890  0.00  0.00    +0.000 C 
ATOM     17  C   UNL     1       7.597  17.422  19.896  0.00  0.00    +0.000 C 
ATOM     18  C   UNL     1       8.582  17.626  18.736  0.00  0.00    +0.000 C 
ATOM     19  C   UNL     1       9.840  18.240  19.343  0.00  0.00    +0.000 C 
ENDBRANCH  12  15
ENDBRANCH   8  12
BRANCH   1  20
ATOM     20  C   UNL     1       8.950   9.374  18.488  0.00  0.00    +0.000 C 
BRANCH  20  22
ATOM     21  N   UNL     1       6.625   7.764  17.211  0.00  0.00    +0.000 N 
ATOM     22  C   UNL     1       7.871   7.897  18.123  0.00  0.00    +0.000 C 
ATOM     23  O   UNL     1       8.219   6.899  18.769  0.00  0.00    +0.000 OA
ATOM     24  H   UNL     1       6.144   8.560  16.786  0.00  0.00    +0.000 HD
BRANCH  21  28
ATOM     25  C   UNL     1       3.809   4.091  17.019  0.00  0.00    +0.000 A 
ATOM     26  C   UNL     1       5.093   4.031  16.425  0.00  0.00    +0.000 A 
ATOM     27  C   UNL     1       6.062   5.164  16.440  0.00  0.00    +0.000 A 
ATOM     28  C   UNL     1       5.763   6.431  17.050  0.00  0.00    +0.000 A 
ATOM     29  C   UNL     1       4.496   6.393  17.614  0.00  0.00    +0.000 A 
ATOM     30  C   UNL     1       3.543   5.314  17.634  0.00  0.00    +0.000 A 
BRANCH  25  32
ATOM     31  C   UNL     1       3.477   1.872  18.081  0.00  0.00    +0.000 C 
ATOM     32  O   UNL     1       3.126   2.894  17.130  0.00  0.00    +0.000 OA
ENDBRANCH  25  32
BRANCH  30  33
ATOM     33  O   UNL     1       2.501   5.749  18.411  0.00  0.00    +0.000 OA
ATOM     34  C   UNL     1       2.366   5.199  19.683  0.00  0.00    +0.000 C 
ENDBRANCH  30  33
ENDBRANCH  21  28
ENDBRANCH  20  22
ENDBRANCH   1  20
TORSDOF 7
ENDMDL
