MODEL 1
REMARK VINA RESULT:      -8.4      0.000      0.000
REMARK  Name = 
REMARK  11 active torsions:
REMARK  status: ('A' for Active; 'I' for Inactive)
REMARK    1  A    between atoms: C_1  and  C_2
REMARK    2  A    between atoms: C_2  and  C_3
REMARK    3  A    between atoms: C_3  and  C_4
REMARK    4  A    between atoms: C_4  and  N_5
REMARK    5  A    between atoms: N_5  and  C_6
REMARK    6  A    between atoms: C_6  and  C_7
REMARK    7  A    between atoms: C_7  and  C_8
REMARK    8  A    between atoms: C_7  and  C_14
REMARK    9  A    between atoms: N_22  and  C_23
REMARK   10  A    between atoms: C_26  and  C_27
REMARK   11  A    between atoms: C_29  and  C_30
REMARK                            x       y       z     vdW  Elec       q    Type
REMARK                         _______ _______ _______ _____ _____    ______ ____
ROOT
ATOM      1  N   UNL     1       2.065   7.435  19.377  0.00  0.00    +0.000 N 
ATOM      2  C   UNL     1       1.620   8.755  19.575  0.00  0.00    +0.000 C 
ATOM      3  O   UNL     1       1.402   9.199  20.704  0.00  0.00    +0.000 OA
ATOM      4  N   UNL     1       1.372   9.500  18.438  0.00  0.00    +0.000 N 
ATOM      5  H   UNL     1       0.971   8.964  17.687  0.00  0.00    +0.000 HD
ENDROOT
BRANCH   4   6
ATOM      6  C   UNL     1       0.939  10.858  18.527  0.00  0.00    +0.000 A 
ATOM      7  C   UNL     1       1.881  11.892  18.642  0.00  0.00    +0.000 A 
ATOM      8  C   UNL     1       1.485  13.234  18.718  0.00  0.00    +0.000 A 
ATOM      9  C   UNL     1       0.136  13.575  18.679  0.00  0.00    +0.000 A 
ATOM     10  C   UNL     1      -0.308  15.003  18.780  0.00  0.00    +0.000 C 
ATOM     11  C   UNL     1      -0.812  12.546  18.562  0.00  0.00    +0.000 A 
ATOM     12  C   UNL     1      -0.427  11.191  18.495  0.00  0.00    +0.000 A 
ATOM     13  C   UNL     1      -1.508  10.146  18.457  0.00  0.00    +0.000 C 
ENDBRANCH   4   6
BRANCH   1  14
ATOM     14  C   UNL     1       2.016   6.600  20.597  0.00  0.00    +0.000 C 
BRANCH  14  15
ATOM     15  C   UNL     1       1.275   5.262  20.570  0.00  0.00    +0.000 C 
BRANCH  15  17
ATOM     16  C   UNL     1       1.209   2.804  21.016  0.00  0.00    +0.000 C 
ATOM     17  C   UNL     1       1.921   4.115  21.342  0.00  0.00    +0.000 C 
ENDBRANCH  15  17
ENDBRANCH  14  15
ENDBRANCH   1  14
BRANCH   1  18
ATOM     18  C   UNL     1       2.641   6.897  18.092  0.00  0.00    +0.000 C 
BRANCH  18  19
ATOM     19  C   UNL     1       3.991   6.113  18.167  0.00  0.00    +0.000 C 
BRANCH  19  20
ATOM     20  C   UNL     1       3.771   4.602  18.264  0.00  0.00    +0.000 A 
ATOM     21  C   UNL     1       4.568   3.762  19.053  0.00  0.00    +0.000 A 
ATOM     22  C   UNL     1       4.382   2.377  19.025  0.00  0.00    +0.000 A 
ATOM     23  C   UNL     1       3.410   1.815  18.200  0.00  0.00    +0.000 A 
ATOM     24  C   UNL     1       2.584   2.640  17.443  0.00  0.00    +0.000 A 
ATOM     25  C   UNL     1       2.751   4.024  17.491  0.00  0.00    +0.000 A 
ENDBRANCH  19  20
BRANCH  19  26
ATOM     26  C   UNL     1       5.134   6.430  17.126  0.00  0.00    +0.000 C 
ATOM     27  C   UNL     1       6.575   6.547  17.647  0.00  0.00    +0.000 C 
ATOM     28  C   UNL     1       7.313   5.220  17.738  0.00  0.00    +0.000 C 
ATOM     29  C   UNL     1       7.347   4.532  16.382  0.00  0.00    +0.000 C 
ATOM     30  C   UNL     1       5.939   4.296  15.854  0.00  0.00    +0.000 C 
ATOM     31  C   UNL     1       5.084   5.563  15.844  0.00  0.00    +0.000 C 
ENDBRANCH  19  26
ENDBRANCH  18  19
ENDBRANCH   1  18
TORSDOF 8
ENDMDL
MODEL 2
REMARK VINA RESULT:      -8.1      0.513      1.029
REMARK  Name = 
REMARK  11 active torsions:
REMARK  status: ('A' for Active; 'I' for Inactive)
REMARK    1  A    between atoms: C_1  and  C_2
REMARK    2  A    between atoms: C_2  and  C_3
REMARK    3  A    between atoms: C_3  and  C_4
REMARK    4  A    between atoms: C_4  and  N_5
REMARK    5  A    between atoms: N_5  and  C_6
REMARK    6  A    between atoms: C_6  and  C_7
REMARK    7  A    between atoms: C_7  and  C_8
REMARK    8  A    between atoms: C_7  and  C_14
REMARK    9  A    between atoms: N_22  and  C_23
REMARK   10  A    between atoms: C_26  and  C_27
REMARK   11  A    between atoms: C_29  and  C_30
REMARK                            x       y       z     vdW  Elec       q    Type
REMARK                         _______ _______ _______ _____ _____    ______ ____
ROOT
ATOM      1  N   UNL     1       2.213   7.335  19.243  0.00  0.00    +0.000 N 
ATOM      2  C   UNL     1       1.709   8.630  19.468  0.00  0.00    +0.000 C 
ATOM      3  O   UNL     1       1.381   9.007  20.595  0.00  0.00    +0.000 OA
ATOM      4  N   UNL     1       1.535   9.427  18.353  0.00  0.00    +0.000 N 
ATOM      5  H   UNL     1       1.217   8.920  17.544  0.00  0.00    +0.000 HD
ENDROOT
BRANCH   4   6
ATOM      6  C   UNL     1       1.051  10.765  18.472  0.00  0.00    +0.000 A 
ATOM      7  C   UNL     1       1.951  11.826  18.662  0.00  0.00    +0.000 A 
ATOM      8  C   UNL     1       1.505  13.150  18.770  0.00  0.00    +0.000 A 
ATOM      9  C   UNL     1       0.148  13.446  18.687  0.00  0.00    +0.000 A 
ATOM     10  C   UNL     1      -0.351  14.854  18.820  0.00  0.00    +0.000 C 
ATOM     11  C   UNL     1      -0.759  12.391  18.495  0.00  0.00    +0.000 A 
ATOM     12  C   UNL     1      -0.323  11.053  18.396  0.00  0.00    +0.000 A 
ATOM     13  C   UNL     1      -1.365   9.975  18.276  0.00  0.00    +0.000 C 
ENDBRANCH   4   6
BRANCH   1  14
ATOM     14  C   UNL     1       2.087   6.437  20.410  0.00  0.00    +0.000 C 
BRANCH  14  15
ATOM     15  C   UNL     1       0.886   5.495  20.517  0.00  0.00    +0.000 C 
BRANCH  15  17
ATOM     16  C   UNL     1       1.326   3.154  21.272  0.00  0.00    +0.000 C 
ATOM     17  C   UNL     1       1.109   4.057  20.059  0.00  0.00    +0.000 C 
ENDBRANCH  15  17
ENDBRANCH  14  15
ENDBRANCH   1  14
BRANCH   1  18
ATOM     18  C   UNL     1       2.914   6.884  17.987  0.00  0.00    +0.000 C 
BRANCH  18  19
ATOM     19  C   UNL     1       4.280   6.139  18.140  0.00  0.00    +0.000 C 
BRANCH  19  20
ATOM     20  C   UNL     1       4.102   4.620  18.185  0.00  0.00    +0.000 A 
ATOM     21  C   UNL     1       3.330   3.912  17.255  0.00  0.00    +0.000 A 
ATOM     22  C   UNL     1       3.123   2.538  17.405  0.00  0.00    +0.000 A 
ATOM     23  C   UNL     1       3.672   1.860  18.491  0.00  0.00    +0.000 A 
ATOM     24  C   UNL     1       4.475   2.542  19.399  0.00  0.00    +0.000 A 
ATOM     25  C   UNL     1       4.704   3.908  19.235  0.00  0.00    +0.000 A 
ENDBRANCH  19  20
BRANCH  19  26
ATOM     26  C   UNL     1       5.483   6.518  17.191  0.00  0.00    +0.000 C 
ATOM     27  C   UNL     1       6.870   5.943  17.518  0.00  0.00    +0.000 C 
ATOM     28  C   UNL     1       7.122   4.559  16.939  0.00  0.00    +0.000 C 
ATOM     29  C   UNL     1       6.951   4.572  15.427  0.00  0.00    +0.000 C 
ATOM     30  C   UNL     1       5.556   5.040  15.039  0.00  0.00    +0.000 C 
ATOM     31  C   UNL     1       5.173   6.373  15.681  0.00  0.00    +0.000 C 
ENDBRANCH  19  26
ENDBRANCH  18  19
ENDBRANCH   1  18
TORSDOF 8
ENDMDL
MODEL 3
REMARK VINA RESULT:      -8.1      1.059      1.089
REMARK  Name = 
REMARK  11 active torsions:
REMARK  status: ('A' for Active; 'I' for Inactive)
REMARK    1  A    between atoms: C_1  and  C_2
REMARK    2  A    between atoms: C_2  and  C_3
REMARK    3  A    between atoms: C_3  and  C_4
REMARK    4  A    between atoms: C_4  and  N_5
REMARK    5  A    between atoms: N_5  and  C_6
REMARK    6  A    between atoms: C_6  and  C_7
REMARK    7  A    between atoms: C_7  and  C_8
REMARK    8  A    between atoms: C_7  and  C_14
REMARK    9  A    between atoms: N_22  and  C_23
REMARK   10  A    between atoms: C_26  and  C_27
REMARK   11  A    between atoms: C_29  and  C_30
REMARK                            x       y       z     vdW  Elec       q    Type
REMARK                         _______ _______ _______ _____ _____    ______ ____
ROOT
ATOM      1  N   UNL     1       2.128   7.094  19.638  0.00  0.00    +0.000 N 
ATOM      2  C   UNL     1       1.441   8.223  20.119  0.00  0.00    +0.000 C 
ATOM      3  O   UNL     1       1.001   8.268  21.270  0.00  0.00    +0.000 OA
ATOM      4  N   UNL     1       1.222   9.245  19.215  0.00  0.00    +0.000 N 
ATOM      5  H   UNL     1       1.023   8.920  18.284  0.00  0.00    +0.000 HD
ENDROOT
BRANCH   4   6
ATOM      6  C   UNL     1       0.555  10.445  19.607  0.00  0.00    +0.000 A 
ATOM      7  C   UNL     1       1.055  11.216  20.668  0.00  0.00    +0.000 A 
ATOM      8  C   UNL     1       0.427  12.404  21.065  0.00  0.00    +0.000 A 
ATOM      9  C   UNL     1      -0.716  12.852  20.409  0.00  0.00    +0.000 A 
ATOM     10  C   UNL     1      -1.413  14.110  20.832  0.00  0.00    +0.000 C 
ATOM     11  C   UNL     1      -1.221  12.087  19.345  0.00  0.00    +0.000 A 
ATOM     12  C   UNL     1      -0.605  10.884  18.943  0.00  0.00    +0.000 A 
ATOM     13  C   UNL     1      -1.258  10.082  17.851  0.00  0.00    +0.000 C 
ENDBRANCH   4   6
BRANCH   1  14
ATOM     14  C   UNL     1       2.061   5.926  20.541  0.00  0.00    +0.000 C 
BRANCH  14  15
ATOM     15  C   UNL     1       0.883   4.954  20.439  0.00  0.00    +0.000 C 
BRANCH  15  17
ATOM     16  C   UNL     1       2.090   3.244  21.804  0.00  0.00    +0.000 C 
ATOM     17  C   UNL     1       1.215   3.471  20.574  0.00  0.00    +0.000 C 
ENDBRANCH  15  17
ENDBRANCH  14  15
ENDBRANCH   1  14
BRANCH   1  18
ATOM     18  C   UNL     1       2.954   7.054  18.377  0.00  0.00    +0.000 C 
BRANCH  18  19
ATOM     19  C   UNL     1       4.248   6.178  18.378  0.00  0.00    +0.000 C 
BRANCH  19  20
ATOM     20  C   UNL     1       3.928   4.683  18.315  0.00  0.00    +0.000 A 
ATOM     21  C   UNL     1       4.616   3.720  19.064  0.00  0.00    +0.000 A 
ATOM     22  C   UNL     1       4.347   2.360  18.891  0.00  0.00    +0.000 A 
ATOM     23  C   UNL     1       3.399   1.945  17.958  0.00  0.00    +0.000 A 
ATOM     24  C   UNL     1       2.678   2.891  17.236  0.00  0.00    +0.000 A 
ATOM     25  C   UNL     1       2.928   4.250  17.429  0.00  0.00    +0.000 A 
ENDBRANCH  19  20
BRANCH  19  26
ATOM     26  C   UNL     1       5.423   6.524  17.384  0.00  0.00    +0.000 C 
ATOM     27  C   UNL     1       6.851   6.120  17.782  0.00  0.00    +0.000 C 
ATOM     28  C   UNL     1       7.225   4.696  17.397  0.00  0.00    +0.000 C 
ATOM     29  C   UNL     1       7.068   4.488  15.899  0.00  0.00    +0.000 C 
ATOM     30  C   UNL     1       5.641   4.778  15.454  0.00  0.00    +0.000 C 
ATOM     31  C   UNL     1       5.140   6.149  15.908  0.00  0.00    +0.000 C 
ENDBRANCH  19  26
ENDBRANCH  18  19
ENDBRANCH   1  18
TORSDOF 8
ENDMDL
MODEL 4
REMARK VINA RESULT:      -7.9      0.714      1.359
REMARK  Name = 
REMARK  11 active torsions:
REMARK  status: ('A' for Active; 'I' for Inactive)
REMARK    1  A    between atoms: C_1  and  C_2
REMARK    2  A    between atoms: C_2  and  C_3
REMARK    3  A    between atoms: C_3  and  C_4
REMARK    4  A    between atoms: C_4  and  N_5
REMARK    5  A    between atoms: N_5  and  C_6
REMARK    6  A    between atoms: C_6  and  C_7
REMARK    7  A    between atoms: C_7  and  C_8
REMARK    8  A    between atoms: C_7  and  C_14
REMARK    9  A    between atoms: N_22  and  C_23
REMARK   10  A    between atoms: C_26  and  C_27
REMARK   11  A    between atoms: C_29  and  C_30
REMARK                            x       y       z     vdW  Elec       q    Type
REMARK                         _______ _______ _______ _____ _____    ______ ____
ROOT
ATOM      1  N   UNL     1       2.277   7.321  19.539  0.00  0.00    +0.000 N 
ATOM      2  C   UNL     1       1.601   8.499  19.907  0.00  0.00    +0.000 C 
ATOM      3  O   UNL     1       1.321   8.740  21.083  0.00  0.00    +0.000 OA
ATOM      4  N   UNL     1       1.206   9.332  18.878  0.00  0.00    +0.000 N 
ATOM      5  H   UNL     1       0.900   8.837  18.057  0.00  0.00    +0.000 HD
ENDROOT
BRANCH   4   6
ATOM      6  C   UNL     1       0.533  10.563  19.143  0.00  0.00    +0.000 A 
ATOM      7  C   UNL     1      -0.748  10.557  19.718  0.00  0.00    +0.000 A 
ATOM      8  C   UNL     1      -1.426  11.750  20.001  0.00  0.00    +0.000 A 
ATOM      9  C   UNL     1      -0.838  12.980  19.718  0.00  0.00    +0.000 A 
ATOM     10  C   UNL     1      -1.555  14.266  19.994  0.00  0.00    +0.000 C 
ATOM     11  C   UNL     1       0.444  12.994  19.145  0.00  0.00    +0.000 A 
ATOM     12  C   UNL     1       1.133  11.800  18.846  0.00  0.00    +0.000 A 
ATOM     13  C   UNL     1       2.465  11.903  18.155  0.00  0.00    +0.000 C 
ENDBRANCH   4   6
BRANCH   1  14
ATOM     14  C   UNL     1       2.398   6.336  20.635  0.00  0.00    +0.000 C 
BRANCH  14  15
ATOM     15  C   UNL     1       1.454   5.133  20.681  0.00  0.00    +0.000 C 
BRANCH  15  17
ATOM     16  C   UNL     1       1.255   2.650  20.877  0.00  0.00    +0.000 C 
ATOM     17  C   UNL     1       1.972   3.893  21.402  0.00  0.00    +0.000 C 
ENDBRANCH  15  17
ENDBRANCH  14  15
ENDBRANCH   1  14
BRANCH   1  18
ATOM     18  C   UNL     1       2.925   7.076  18.199  0.00  0.00    +0.000 C 
BRANCH  18  19
ATOM     19  C   UNL     1       4.205   6.179  18.159  0.00  0.00    +0.000 C 
BRANCH  19  20
ATOM     20  C   UNL     1       3.860   4.688  18.180  0.00  0.00    +0.000 A 
ATOM     21  C   UNL     1       4.629   3.734  18.858  0.00  0.00    +0.000 A 
ATOM     22  C   UNL     1       4.322   2.374  18.759  0.00  0.00    +0.000 A 
ATOM     23  C   UNL     1       3.254   1.952  17.971  0.00  0.00    +0.000 A 
ATOM     24  C   UNL     1       2.456   2.891  17.325  0.00  0.00    +0.000 A 
ATOM     25  C   UNL     1       2.746   4.249  17.445  0.00  0.00    +0.000 A 
ENDBRANCH  19  20
BRANCH  19  26
ATOM     26  C   UNL     1       5.321   6.464  17.081  0.00  0.00    +0.000 C 
ATOM     27  C   UNL     1       6.791   6.320  17.506  0.00  0.00    +0.000 C 
ATOM     28  C   UNL     1       7.335   4.904  17.391  0.00  0.00    +0.000 C 
ATOM     29  C   UNL     1       7.195   4.390  15.966  0.00  0.00    +0.000 C 
ATOM     30  C   UNL     1       5.740   4.414  15.518  0.00  0.00    +0.000 C 
ATOM     31  C   UNL     1       5.076   5.777  15.715  0.00  0.00    +0.000 C 
ENDBRANCH  19  26
ENDBRANCH  18  19
ENDBRANCH   1  18
TORSDOF 8
ENDMDL
MODEL 5
REMARK VINA RESULT:      -7.9      0.998      1.732
REMARK  Name = 
REMARK  11 active torsions:
REMARK  status: ('A' for Active; 'I' for Inactive)
REMARK    1  A    between atoms: C_1  and  C_2
REMARK    2  A    between atoms: C_2  and  C_3
REMARK    3  A    between atoms: C_3  and  C_4
REMARK    4  A    between atoms: C_4  and  N_5
REMARK    5  A    between atoms: N_5  and  C_6
REMARK    6  A    between atoms: C_6  and  C_7
REMARK    7  A    between atoms: C_7  and  C_8
REMARK    8  A    between atoms: C_7  and  C_14
REMARK    9  A    between atoms: N_22  and  C_23
REMARK   10  A    between atoms: C_26  and  C_27
REMARK   11  A    between atoms: C_29  and  C_30
REMARK                            x       y       z     vdW  Elec       q    Type
REMARK                         _______ _______ _______ _____ _____    ______ ____
ROOT
ATOM      1  N   UNL     1       2.135   6.970  19.585  0.00  0.00    +0.000 N 
ATOM      2  C   UNL     1       1.545   8.147  20.081  0.00  0.00    +0.000 C 
ATOM      3  O   UNL     1       1.178   8.238  21.255  0.00  0.00    +0.000 OA
ATOM      4  N   UNL     1       1.332   9.163  19.170  0.00  0.00    +0.000 N 
ATOM      5  H   UNL     1       1.058   8.833  18.259  0.00  0.00    +0.000 HD
ENDROOT
BRANCH   4   6
ATOM      6  C   UNL     1       0.760  10.407  19.574  0.00  0.00    +0.000 A 
ATOM      7  C   UNL     1      -0.340  10.428  20.446  0.00  0.00    +0.000 A 
ATOM      8  C   UNL     1      -0.913  11.634  20.869  0.00  0.00    +0.000 A 
ATOM      9  C   UNL     1      -0.398  12.852  20.431  0.00  0.00    +0.000 A 
ATOM     10  C   UNL     1      -1.010  14.152  20.856  0.00  0.00    +0.000 C 
ATOM     11  C   UNL     1       0.703  12.840  19.560  0.00  0.00    +0.000 A 
ATOM     12  C   UNL     1       1.282  11.631  19.119  0.00  0.00    +0.000 A 
ATOM     13  C   UNL     1       2.404  11.705  18.120  0.00  0.00    +0.000 C 
ENDBRANCH   4   6
BRANCH   1  14
ATOM     14  C   UNL     1       2.054   5.824  20.516  0.00  0.00    +0.000 C 
BRANCH  14  15
ATOM     15  C   UNL     1       0.883   4.846  20.415  0.00  0.00    +0.000 C 
BRANCH  15  17
ATOM     16  C   UNL     1       2.224   3.296  21.846  0.00  0.00    +0.000 C 
ATOM     17  C   UNL     1       1.193   3.384  20.723  0.00  0.00    +0.000 C 
ENDBRANCH  15  17
ENDBRANCH  14  15
ENDBRANCH   1  14
BRANCH   1  18
ATOM     18  C   UNL     1       2.880   6.858  18.279  0.00  0.00    +0.000 C 
BRANCH  18  19
ATOM     19  C   UNL     1       4.187   6.002  18.254  0.00  0.00    +0.000 C 
BRANCH  19  20
ATOM     20  C   UNL     1       3.890   4.503  18.174  0.00  0.00    +0.000 A 
ATOM     21  C   UNL     1       2.878   3.965  17.368  0.00  0.00    +0.000 A 
ATOM     22  C   UNL     1       2.587   2.599  17.411  0.00  0.00    +0.000 A 
ATOM     23  C   UNL     1       3.292   1.758  18.270  0.00  0.00    +0.000 A 
ATOM     24  C   UNL     1       4.326   2.271  19.046  0.00  0.00    +0.000 A 
ATOM     25  C   UNL     1       4.635   3.629  18.983  0.00  0.00    +0.000 A 
ENDBRANCH  19  20
BRANCH  19  26
ATOM     26  C   UNL     1       5.346   6.380  17.251  0.00  0.00    +0.000 C 
ATOM     27  C   UNL     1       6.797   6.247  17.739  0.00  0.00    +0.000 C 
ATOM     28  C   UNL     1       7.386   4.855  17.568  0.00  0.00    +0.000 C 
ATOM     29  C   UNL     1       7.329   4.426  16.109  0.00  0.00    +0.000 C 
ATOM     30  C   UNL     1       5.897   4.440  15.592  0.00  0.00    +0.000 C 
ATOM     31  C   UNL     1       5.187   5.771  15.836  0.00  0.00    +0.000 C 
ENDBRANCH  19  26
ENDBRANCH  18  19
ENDBRANCH   1  18
TORSDOF 8
ENDMDL
MODEL 6
REMARK VINA RESULT:      -7.7      3.288      8.505
REMARK  Name = 
REMARK  11 active torsions:
REMARK  status: ('A' for Active; 'I' for Inactive)
REMARK    1  A    between atoms: C_1  and  C_2
REMARK    2  A    between atoms: C_2  and  C_3
REMARK    3  A    between atoms: C_3  and  C_4
REMARK    4  A    between atoms: C_4  and  N_5
REMARK    5  A    between atoms: N_5  and  C_6
REMARK    6  A    between atoms: C_6  and  C_7
REMARK    7  A    between atoms: C_7  and  C_8
REMARK    8  A    between atoms: C_7  and  C_14
REMARK    9  A    between atoms: N_22  and  C_23
REMARK   10  A    between atoms: C_26  and  C_27
REMARK   11  A    between atoms: C_29  and  C_30
REMARK                            x       y       z     vdW  Elec       q    Type
REMARK                         _______ _______ _______ _____ _____    ______ ____
ROOT
ATOM      1  N   UNL     1       6.445   6.011  17.136  0.00  0.00    +0.000 N 
ATOM      2  C   UNL     1       6.782   5.151  16.074  0.00  0.00    +0.000 C 
ATOM      3  O   UNL     1       7.713   4.348  16.166  0.00  0.00    +0.000 OA
ATOM      4  N   UNL     1       6.066   5.306  14.903  0.00  0.00    +0.000 N 
ATOM      5  H   UNL     1       5.841   6.265  14.694  0.00  0.00    +0.000 HD
ENDROOT
BRANCH   4   6
ATOM      6  C   UNL     1       6.313   4.470  13.772  0.00  0.00    +0.000 A 
ATOM      7  C   UNL     1       5.504   3.347  13.534  0.00  0.00    +0.000 A 
ATOM      8  C   UNL     1       5.717   2.517  12.426  0.00  0.00    +0.000 A 
ATOM      9  C   UNL     1       6.742   2.791  11.525  0.00  0.00    +0.000 A 
ATOM     10  C   UNL     1       6.997   1.903  10.344  0.00  0.00    +0.000 C 
ATOM     11  C   UNL     1       7.553   3.914  11.754  0.00  0.00    +0.000 A 
ATOM     12  C   UNL     1       7.357   4.751  12.873  0.00  0.00    +0.000 A 
ATOM     13  C   UNL     1       8.324   5.883  13.090  0.00  0.00    +0.000 C 
ENDBRANCH   4   6
BRANCH   1  14
ATOM     14  C   UNL     1       7.432   6.014  18.236  0.00  0.00    +0.000 C 
BRANCH  14  15
ATOM     15  C   UNL     1       8.117   7.322  18.637  0.00  0.00    +0.000 C 
BRANCH  15  17
ATOM     16  C   UNL     1       8.623   9.738  18.246  0.00  0.00    +0.000 C 
ATOM     17  C   UNL     1       8.011   8.475  17.643  0.00  0.00    +0.000 C 
ENDBRANCH  15  17
ENDBRANCH  14  15
ENDBRANCH   1  14
BRANCH   1  18
ATOM     18  C   UNL     1       5.164   6.799  17.240  0.00  0.00    +0.000 C 
BRANCH  18  19
ATOM     19  C   UNL     1       3.961   6.144  17.992  0.00  0.00    +0.000 C 
BRANCH  19  20
ATOM     20  C   UNL     1       2.922   7.180  18.424  0.00  0.00    +0.000 A 
ATOM     21  C   UNL     1       2.453   8.193  17.577  0.00  0.00    +0.000 A 
ATOM     22  C   UNL     1       1.578   9.171  18.057  0.00  0.00    +0.000 A 
ATOM     23  C   UNL     1       1.174   9.158  19.391  0.00  0.00    +0.000 A 
ATOM     24  C   UNL     1       1.599   8.136  20.232  0.00  0.00    +0.000 A 
ATOM     25  C   UNL     1       2.450   7.144  19.746  0.00  0.00    +0.000 A 
ENDBRANCH  19  20
BRANCH  19  26
ATOM     26  C   UNL     1       3.245   4.885  17.366  0.00  0.00    +0.000 C 
ATOM     27  C   UNL     1       3.978   3.535  17.419  0.00  0.00    +0.000 C 
ATOM     28  C   UNL     1       3.759   2.758  18.709  0.00  0.00    +0.000 C 
ATOM     29  C   UNL     1       2.276   2.508  18.938  0.00  0.00    +0.000 C 
ATOM     30  C   UNL     1       1.504   3.818  18.996  0.00  0.00    +0.000 C 
ATOM     31  C   UNL     1       1.764   4.719  17.789  0.00  0.00    +0.000 C 
ENDBRANCH  19  26
ENDBRANCH  18  19
ENDBRANCH   1  18
TORSDOF 8
ENDMDL
MODEL 7
REMARK VINA RESULT:      -7.4      0.865      1.635
REMARK  Name = 
REMARK  11 active torsions:
REMARK  status: ('A' for Active; 'I' for Inactive)
REMARK    1  A    between atoms: C_1  and  C_2
REMARK    2  A    between atoms: C_2  and  C_3
REMARK    3  A    between atoms: C_3  and  C_4
REMARK    4  A    between atoms: C_4  and  N_5
REMARK    5  A    between atoms: N_5  and  C_6
REMARK    6  A    between atoms: C_6  and  C_7
REMARK    7  A    between atoms: C_7  and  C_8
REMARK    8  A    between atoms: C_7  and  C_14
REMARK    9  A    between atoms: N_22  and  C_23
REMARK   10  A    between atoms: C_26  and  C_27
REMARK   11  A    between atoms: C_29  and  C_30
REMARK                            x       y       z     vdW  Elec       q    Type
REMARK                         _______ _______ _______ _____ _____    ______ ____
ROOT
ATOM      1  N   UNL     1       2.396   6.910  19.234  0.00  0.00    +0.000 N 
ATOM      2  C   UNL     1       1.873   8.200  19.440  0.00  0.00    +0.000 C 
ATOM      3  O   UNL     1       1.507   8.577  20.555  0.00  0.00    +0.000 OA
ATOM      4  N   UNL     1       1.726   8.993  18.318  0.00  0.00    +0.000 N 
ATOM      5  H   UNL     1       1.438   8.481  17.501  0.00  0.00    +0.000 HD
ENDROOT
BRANCH   4   6
ATOM      6  C   UNL     1       1.225  10.326  18.419  0.00  0.00    +0.000 A 
ATOM      7  C   UNL     1       2.110  11.399  18.612  0.00  0.00    +0.000 A 
ATOM      8  C   UNL     1       1.648  12.719  18.702  0.00  0.00    +0.000 A 
ATOM      9  C   UNL     1       0.289  12.999  18.598  0.00  0.00    +0.000 A 
ATOM     10  C   UNL     1      -0.227  14.402  18.712  0.00  0.00    +0.000 C 
ATOM     11  C   UNL     1      -0.603  11.932  18.401  0.00  0.00    +0.000 A 
ATOM     12  C   UNL     1      -0.151  10.598  18.320  0.00  0.00    +0.000 A 
ATOM     13  C   UNL     1      -1.179   9.507  18.195  0.00  0.00    +0.000 C 
ENDBRANCH   4   6
BRANCH   1  14
ATOM     14  C   UNL     1       2.244   6.013  20.399  0.00  0.00    +0.000 C 
BRANCH  14  15
ATOM     15  C   UNL     1       0.941   5.235  20.592  0.00  0.00    +0.000 C 
BRANCH  15  17
ATOM     16  C   UNL     1       1.328   2.904  21.404  0.00  0.00    +0.000 C 
ATOM     17  C   UNL     1       0.965   3.763  20.194  0.00  0.00    +0.000 C 
ENDBRANCH  15  17
ENDBRANCH  14  15
ENDBRANCH   1  14
BRANCH   1  18
ATOM     18  C   UNL     1       3.140   6.463  18.001  0.00  0.00    +0.000 C 
BRANCH  18  19
ATOM     19  C   UNL     1       4.404   5.564  18.196  0.00  0.00    +0.000 C 
BRANCH  19  20
ATOM     20  C   UNL     1       4.047   4.077  18.246  0.00  0.00    +0.000 A 
ATOM     21  C   UNL     1       3.196   3.462  17.319  0.00  0.00    +0.000 A 
ATOM     22  C   UNL     1       2.827   2.123  17.473  0.00  0.00    +0.000 A 
ATOM     23  C   UNL     1       3.293   1.388  18.561  0.00  0.00    +0.000 A 
ATOM     24  C   UNL     1       4.171   1.972  19.466  0.00  0.00    +0.000 A 
ATOM     25  C   UNL     1       4.561   3.301  19.298  0.00  0.00    +0.000 A 
ENDBRANCH  19  20
BRANCH  19  26
ATOM     26  C   UNL     1       5.668   5.789  17.278  0.00  0.00    +0.000 C 
ATOM     27  C   UNL     1       5.889   7.189  16.683  0.00  0.00    +0.000 C 
ATOM     28  C   UNL     1       6.643   8.142  17.597  0.00  0.00    +0.000 C 
ATOM     29  C   UNL     1       7.997   7.562  17.976  0.00  0.00    +0.000 C 
ATOM     30  C   UNL     1       7.840   6.213  18.664  0.00  0.00    +0.000 C 
ATOM     31  C   UNL     1       6.987   5.230  17.864  0.00  0.00    +0.000 C 
ENDBRANCH  19  26
ENDBRANCH  18  19
ENDBRANCH   1  18
TORSDOF 8
ENDMDL
MODEL 8
REMARK VINA RESULT:      -7.4      1.150      1.598
REMARK  Name = 
REMARK  11 active torsions:
REMARK  status: ('A' for Active; 'I' for Inactive)
REMARK    1  A    between atoms: C_1  and  C_2
REMARK    2  A    between atoms: C_2  and  C_3
REMARK    3  A    between atoms: C_3  and  C_4
REMARK    4  A    between atoms: C_4  and  N_5
REMARK    5  A    between atoms: N_5  and  C_6
REMARK    6  A    between atoms: C_6  and  C_7
REMARK    7  A    between atoms: C_7  and  C_8
REMARK    8  A    between atoms: C_7  and  C_14
REMARK    9  A    between atoms: N_22  and  C_23
REMARK   10  A    between atoms: C_26  and  C_27
REMARK   11  A    between atoms: C_29  and  C_30
REMARK                            x       y       z     vdW  Elec       q    Type
REMARK                         _______ _______ _______ _____ _____    ______ ____
ROOT
ATOM      1  N   UNL     1       2.353   6.742  19.522  0.00  0.00    +0.000 N 
ATOM      2  C   UNL     1       1.688   7.926  19.891  0.00  0.00    +0.000 C 
ATOM      3  O   UNL     1       1.170   8.054  21.002  0.00  0.00    +0.000 OA
ATOM      4  N   UNL     1       1.583   8.904  18.920  0.00  0.00    +0.000 N 
ATOM      5  H   UNL     1       1.436   8.536  17.995  0.00  0.00    +0.000 HD
ENDROOT
BRANCH   4   6
ATOM      6  C   UNL     1       0.947  10.152  19.198  0.00  0.00    +0.000 A 
ATOM      7  C   UNL     1       1.498  11.029  20.145  0.00  0.00    +0.000 A 
ATOM      8  C   UNL     1       0.902  12.265  20.428  0.00  0.00    +0.000 A 
ATOM      9  C   UNL     1      -0.259  12.656  19.767  0.00  0.00    +0.000 A 
ATOM     10  C   UNL     1      -0.923  13.965  20.070  0.00  0.00    +0.000 C 
ATOM     11  C   UNL     1      -0.815  11.785  18.816  0.00  0.00    +0.000 A 
ATOM     12  C   UNL     1      -0.231  10.533  18.531  0.00  0.00    +0.000 A 
ATOM     13  C   UNL     1      -0.937   9.625  17.562  0.00  0.00    +0.000 C 
ENDBRANCH   4   6
BRANCH   1  14
ATOM     14  C   UNL     1       2.166   5.631  20.479  0.00  0.00    +0.000 C 
BRANCH  14  15
ATOM     15  C   UNL     1       0.889   4.790  20.424  0.00  0.00    +0.000 C 
BRANCH  15  17
ATOM     16  C   UNL     1       1.857   2.973  21.841  0.00  0.00    +0.000 C 
ATOM     17  C   UNL     1       1.064   3.282  20.573  0.00  0.00    +0.000 C 
ENDBRANCH  15  17
ENDBRANCH  14  15
ENDBRANCH   1  14
BRANCH   1  18
ATOM     18  C   UNL     1       3.264   6.595  18.330  0.00  0.00    +0.000 C 
BRANCH  18  19
ATOM     19  C   UNL     1       4.476   5.615  18.451  0.00  0.00    +0.000 C 
BRANCH  19  20
ATOM     20  C   UNL     1       4.029   4.152  18.480  0.00  0.00    +0.000 A 
ATOM     21  C   UNL     1       4.546   3.211  19.379  0.00  0.00    +0.000 A 
ATOM     22  C   UNL     1       4.172   1.867  19.293  0.00  0.00    +0.000 A 
ATOM     23  C   UNL     1       3.291   1.446  18.298  0.00  0.00    +0.000 A 
ATOM     24  C   UNL     1       2.738   2.376  17.424  0.00  0.00    +0.000 A 
ATOM     25  C   UNL     1       3.090   3.722  17.528  0.00  0.00    +0.000 A 
ENDBRANCH  19  20
BRANCH  19  26
ATOM     26  C   UNL     1       5.715   5.787  17.489  0.00  0.00    +0.000 C 
ATOM     27  C   UNL     1       5.905   7.141  16.788  0.00  0.00    +0.000 C 
ATOM     28  C   UNL     1       6.668   8.167  17.613  0.00  0.00    +0.000 C 
ATOM     29  C   UNL     1       8.038   7.630  18.000  0.00  0.00    +0.000 C 
ATOM     30  C   UNL     1       7.914   6.334  18.788  0.00  0.00    +0.000 C 
ATOM     31  C   UNL     1       7.055   5.285  18.082  0.00  0.00    +0.000 C 
ENDBRANCH  19  26
ENDBRANCH  18  19
ENDBRANCH   1  18
TORSDOF 8
ENDMDL
MODEL 9
REMARK VINA RESULT:      -7.2      3.226      8.488
REMARK  Name = 
REMARK  11 active torsions:
REMARK  status: ('A' for Active; 'I' for Inactive)
REMARK    1  A    between atoms: C_1  and  C_2
REMARK    2  A    between atoms: C_2  and  C_3
REMARK    3  A    between atoms: C_3  and  C_4
REMARK    4  A    between atoms: C_4  and  N_5
REMARK    5  A    between atoms: N_5  and  C_6
REMARK    6  A    between atoms: C_6  and  C_7
REMARK    7  A    between atoms: C_7  and  C_8
REMARK    8  A    between atoms: C_7  and  C_14
REMARK    9  A    between atoms: N_22  and  C_23
REMARK   10  A    between atoms: C_26  and  C_27
REMARK   11  A    between atoms: C_29  and  C_30
REMARK                            x       y       z     vdW  Elec       q    Type
REMARK                         _______ _______ _______ _____ _____    ______ ____
ROOT
ATOM      1  N   UNL     1       5.841   5.755  17.063  0.00  0.00    +0.000 N 
ATOM      2  C   UNL     1       6.306   4.936  16.017  0.00  0.00    +0.000 C 
ATOM      3  O   UNL     1       7.231   4.139  16.186  0.00  0.00    +0.000 OA
ATOM      4  N   UNL     1       5.722   5.124  14.779  0.00  0.00    +0.000 N 
ATOM      5  H   UNL     1       5.509   6.087  14.579  0.00  0.00    +0.000 HD
ENDROOT
BRANCH   4   6
ATOM      6  C   UNL     1       6.105   4.330  13.656  0.00  0.00    +0.000 A 
ATOM      7  C   UNL     1       5.300   3.255  13.245  0.00  0.00    +0.000 A 
ATOM      8  C   UNL     1       5.645   2.468  12.139  0.00  0.00    +0.000 A 
ATOM      9  C   UNL     1       6.803   2.736  11.414  0.00  0.00    +0.000 A 
ATOM     10  C   UNL     1       7.200   1.893  10.241  0.00  0.00    +0.000 C 
ATOM     11  C   UNL     1       7.612   3.811  11.818  0.00  0.00    +0.000 A 
ATOM     12  C   UNL     1       7.282   4.605  12.936  0.00  0.00    +0.000 A 
ATOM     13  C   UNL     1       8.246   5.682  13.352  0.00  0.00    +0.000 C 
ENDBRANCH   4   6
BRANCH   1  14
ATOM     14  C   UNL     1       6.699   5.729  18.266  0.00  0.00    +0.000 C 
BRANCH  14  15
ATOM     15  C   UNL     1       7.648   6.896  18.546  0.00  0.00    +0.000 C 
BRANCH  15  17
ATOM     16  C   UNL     1       8.313   9.250  18.035  0.00  0.00    +0.000 C 
ATOM     17  C   UNL     1       7.771   7.948  17.448  0.00  0.00    +0.000 C 
ENDBRANCH  15  17
ENDBRANCH  14  15
ENDBRANCH   1  14
BRANCH   1  18
ATOM     18  C   UNL     1       4.546   6.527  17.049  0.00  0.00    +0.000 C 
BRANCH  18  19
ATOM     19  C   UNL     1       3.450   6.135  18.092  0.00  0.00    +0.000 C 
BRANCH  19  20
ATOM     20  C   UNL     1       2.671   7.355  18.589  0.00  0.00    +0.000 A 
ATOM     21  C   UNL     1       2.149   7.453  19.886  0.00  0.00    +0.000 A 
ATOM     22  C   UNL     1       1.361   8.548  20.252  0.00  0.00    +0.000 A 
ATOM     23  C   UNL     1       1.074   9.548  19.325  0.00  0.00    +0.000 A 
ATOM     24  C   UNL     1       1.619   9.484  18.047  0.00  0.00    +0.000 A 
ATOM     25  C   UNL     1       2.428   8.405  17.690  0.00  0.00    +0.000 A 
ENDBRANCH  19  20
BRANCH  19  26
ATOM     26  C   UNL     1       2.458   4.951  17.771  0.00  0.00    +0.000 C 
ATOM     27  C   UNL     1       2.949   3.828  16.844  0.00  0.00    +0.000 C 
ATOM     28  C   UNL     1       3.710   2.720  17.556  0.00  0.00    +0.000 C 
ATOM     29  C   UNL     1       2.853   2.100  18.650  0.00  0.00    +0.000 C 
ATOM     30  C   UNL     1       2.415   3.150  19.661  0.00  0.00    +0.000 C 
ATOM     31  C   UNL     1       1.747   4.362  19.014  0.00  0.00    +0.000 C 
ENDBRANCH  19  26
ENDBRANCH  18  19
ENDBRANCH   1  18
TORSDOF 8
ENDMDL
