MODEL 1
REMARK VINA RESULT:      -6.6      0.000      0.000
REMARK  Name = 
REMARK  15 active torsions:
REMARK  status: ('A' for Active; 'I' for Inactive)
REMARK    1  A    between atoms: C_1  and  O_2
REMARK    2  A    between atoms: O_2  and  C_3
REMARK    3  A    between atoms: C_6  and  C_7
REMARK    4  A    between atoms: C_7  and  C_8
REMARK    5  A    between atoms: N_10  and  C_11
REMARK    6  A    between atoms: N_10  and  C_20
REMARK    7  A    between atoms: C_11  and  C_12
REMARK    8  A    between atoms: C_15  and  O_16
REMARK    9  A    between atoms: O_16  and  C_17
REMARK   10  A    between atoms: C_22  and  O_23
REMARK   11  A    between atoms: O_23  and  C_24
REMARK   12  A    between atoms: C_25  and  O_26
REMARK   13  A    between atoms: O_26  and  C_27
REMARK   14  A    between atoms: C_28  and  O_29
REMARK   15  A    between atoms: O_29  and  C_30
REMARK                            x       y       z     vdW  Elec       q    Type
REMARK                         _______ _______ _______ _____ _____    ______ ____
ROOT
ATOM      1  C   UNL     1       6.717   6.012  18.587  0.00  0.00    +0.000 C 
ATOM      2  O   UNL     1       6.767   5.598  19.751  0.00  0.00    +0.000 OA
ATOM      3  N   UNL     1       5.550   5.858  17.808  0.00  0.00    +0.000 N 
ENDROOT
BRANCH   3   4
ATOM      4  C   UNL     1       4.392   5.286  18.442  0.00  0.00    +0.000 A 
ATOM      5  C   UNL     1       3.607   6.055  19.302  0.00  0.00    +0.000 A 
ATOM      6  C   UNL     1       2.463   5.520  19.903  0.00  0.00    +0.000 A 
ATOM      7  C   UNL     1       2.120   4.168  19.684  0.00  0.00    +0.000 A 
ATOM      8  C   UNL     1       2.935   3.370  18.854  0.00  0.00    +0.000 A 
ATOM      9  C   UNL     1       4.045   3.951  18.221  0.00  0.00    +0.000 A 
BRANCH   6  10
ATOM     10  O   UNL     1       1.637   6.251  20.726  0.00  0.00    +0.000 OA
ATOM     11  C   UNL     1       1.675   7.664  20.560  0.00  0.00    +0.000 C 
ENDBRANCH   6  10
BRANCH   7  12
ATOM     12  O   UNL     1       1.019   3.721  20.380  0.00  0.00    +0.000 OA
ATOM     13  C   UNL     1       1.265   2.864  21.488  0.00  0.00    +0.000 C 
ENDBRANCH   7  12
BRANCH   8  14
ATOM     14  O   UNL     1       2.626   2.040  18.729  0.00  0.00    +0.000 OA
ATOM     15  C   UNL     1       3.687   1.121  18.501  0.00  0.00    +0.000 C 
ENDBRANCH   8  14
ENDBRANCH   3   4
BRANCH   1  16
ATOM     16  C   UNL     1       7.939   6.675  17.942  0.00  0.00    +0.000 C 
BRANCH  16  20
ATOM     17  C   UNL     1       8.608  10.971  18.495  0.00  0.00    +0.000 A 
ATOM     18  C   UNL     1       9.246  10.058  19.333  0.00  0.00    +0.000 A 
ATOM     19  C   UNL     1       9.061   8.674  19.172  0.00  0.00    +0.000 A 
ATOM     20  C   UNL     1       8.189   8.164  18.200  0.00  0.00    +0.000 A 
ATOM     21  C   UNL     1       7.565   9.100  17.354  0.00  0.00    +0.000 A 
ATOM     22  C   UNL     1       7.768  10.485  17.499  0.00  0.00    +0.000 A 
BRANCH  17  24
ATOM     23  C   UNL     1       9.818  12.555  19.781  0.00  0.00    +0.000 C 
ATOM     24  O   UNL     1       8.853  12.291  18.764  0.00  0.00    +0.000 OA
ENDBRANCH  17  24
ENDBRANCH  16  20
ENDBRANCH   1  16
BRANCH   3  25
ATOM     25  C   UNL     1       5.326   6.390  16.434  0.00  0.00    +0.000 C 
BRANCH  25  26
ATOM     26  C   UNL     1       5.763   5.483  15.307  0.00  0.00    +0.000 A 
ATOM     27  C   UNL     1       7.085   5.484  14.813  0.00  0.00    +0.000 A 
ATOM     28  C   UNL     1       7.457   4.691  13.706  0.00  0.00    +0.000 A 
ATOM     29  C   UNL     1       6.504   3.893  13.075  0.00  0.00    +0.000 A 
ATOM     30  C   UNL     1       5.215   3.851  13.591  0.00  0.00    +0.000 A 
ATOM     31  C   UNL     1       4.852   4.615  14.699  0.00  0.00    +0.000 A 
BRANCH  29  32
ATOM     32  O   UNL     1       6.661   3.133  11.954  0.00  0.00    +0.000 OA
ATOM     33  C   UNL     1       5.754   2.068  11.724  0.00  0.00    +0.000 C 
ENDBRANCH  29  32
ENDBRANCH  25  26
ENDBRANCH   3  25
TORSDOF 10
ENDMDL
MODEL 2
REMARK VINA RESULT:      -6.4      5.541      9.830
REMARK  Name = 
REMARK  15 active torsions:
REMARK  status: ('A' for Active; 'I' for Inactive)
REMARK    1  A    between atoms: C_1  and  O_2
REMARK    2  A    between atoms: O_2  and  C_3
REMARK    3  A    between atoms: C_6  and  C_7
REMARK    4  A    between atoms: C_7  and  C_8
REMARK    5  A    between atoms: N_10  and  C_11
REMARK    6  A    between atoms: N_10  and  C_20
REMARK    7  A    between atoms: C_11  and  C_12
REMARK    8  A    between atoms: C_15  and  O_16
REMARK    9  A    between atoms: O_16  and  C_17
REMARK   10  A    between atoms: C_22  and  O_23
REMARK   11  A    between atoms: O_23  and  C_24
REMARK   12  A    between atoms: C_25  and  O_26
REMARK   13  A    between atoms: O_26  and  C_27
REMARK   14  A    between atoms: C_28  and  O_29
REMARK   15  A    between atoms: O_29  and  C_30
REMARK                            x       y       z     vdW  Elec       q    Type
REMARK                         _______ _______ _______ _____ _____    ______ ____
ROOT
ATOM      1  C   UNL     1       0.275   9.113  20.476  0.00  0.00    +0.000 C 
ATOM      2  O   UNL     1      -0.717   8.822  21.156  0.00  0.00    +0.000 OA
ATOM      3  N   UNL     1       0.175  10.008  19.389  0.00  0.00    +0.000 N 
ENDROOT
BRANCH   3   4
ATOM      4  C   UNL     1      -1.096  10.639  19.155  0.00  0.00    +0.000 A 
ATOM      5  C   UNL     1      -1.582  11.597  20.047  0.00  0.00    +0.000 A 
ATOM      6  C   UNL     1      -2.803  12.239  19.817  0.00  0.00    +0.000 A 
ATOM      7  C   UNL     1      -3.587  11.881  18.699  0.00  0.00    +0.000 A 
ATOM      8  C   UNL     1      -3.126  10.880  17.819  0.00  0.00    +0.000 A 
ATOM      9  C   UNL     1      -1.871  10.294  18.046  0.00  0.00    +0.000 A 
BRANCH   6  10
ATOM     10  O   UNL     1      -3.304  13.217  20.646  0.00  0.00    +0.000 OA
ATOM     11  C   UNL     1      -3.533  12.838  21.999  0.00  0.00    +0.000 C 
ENDBRANCH   6  10
BRANCH   7  12
ATOM     12  O   UNL     1      -4.804  12.519  18.605  0.00  0.00    +0.000 OA
ATOM     13  C   UNL     1      -5.931  11.833  19.138  0.00  0.00    +0.000 C 
ENDBRANCH   7  12
BRANCH   8  14
ATOM     14  O   UNL     1      -3.947  10.493  16.792  0.00  0.00    +0.000 OA
ATOM     15  C   UNL     1      -3.527  10.756  15.458  0.00  0.00    +0.000 C 
ENDBRANCH   8  14
ENDBRANCH   3   4
BRANCH   1  16
ATOM     16  C   UNL     1       1.638   8.479  20.773  0.00  0.00    +0.000 C 
BRANCH  16  20
ATOM     17  C   UNL     1       2.708   4.636  18.958  0.00  0.00    +0.000 A 
ATOM     18  C   UNL     1       2.905   5.817  18.244  0.00  0.00    +0.000 A 
ATOM     19  C   UNL     1       2.583   7.065  18.805  0.00  0.00    +0.000 A 
ATOM     20  C   UNL     1       2.005   7.164  20.078  0.00  0.00    +0.000 A 
ATOM     21  C   UNL     1       1.827   5.963  20.789  0.00  0.00    +0.000 A 
ATOM     22  C   UNL     1       2.171   4.714  20.238  0.00  0.00    +0.000 A 
BRANCH  17  24
ATOM     23  C   UNL     1       3.019   2.286  19.073  0.00  0.00    +0.000 C 
ATOM     24  O   UNL     1       3.043   3.483  18.297  0.00  0.00    +0.000 OA
ENDBRANCH  17  24
ENDBRANCH  16  20
ENDBRANCH   1  16
BRANCH   3  25
ATOM     25  C   UNL     1       1.300  10.513  18.552  0.00  0.00    +0.000 C 
BRANCH  25  26
ATOM     26  C   UNL     1       1.810  11.889  18.913  0.00  0.00    +0.000 A 
ATOM     27  C   UNL     1       1.831  12.356  20.245  0.00  0.00    +0.000 A 
ATOM     28  C   UNL     1       2.233  13.674  20.555  0.00  0.00    +0.000 A 
ATOM     29  C   UNL     1       2.611  14.541  19.533  0.00  0.00    +0.000 A 
ATOM     30  C   UNL     1       2.641  14.068  18.227  0.00  0.00    +0.000 A 
ATOM     31  C   UNL     1       2.267  12.760  17.921  0.00  0.00    +0.000 A 
BRANCH  29  32
ATOM     32  O   UNL     1       2.946  15.859  19.637  0.00  0.00    +0.000 OA
ATOM     33  C   UNL     1       3.505  16.508  18.506  0.00  0.00    +0.000 C 
ENDBRANCH  29  32
ENDBRANCH  25  26
ENDBRANCH   3  25
TORSDOF 10
ENDMDL
MODEL 3
REMARK VINA RESULT:      -6.4      5.648     10.074
REMARK  Name = 
REMARK  15 active torsions:
REMARK  status: ('A' for Active; 'I' for Inactive)
REMARK    1  A    between atoms: C_1  and  O_2
REMARK    2  A    between atoms: O_2  and  C_3
REMARK    3  A    between atoms: C_6  and  C_7
REMARK    4  A    between atoms: C_7  and  C_8
REMARK    5  A    between atoms: N_10  and  C_11
REMARK    6  A    between atoms: N_10  and  C_20
REMARK    7  A    between atoms: C_11  and  C_12
REMARK    8  A    between atoms: C_15  and  O_16
REMARK    9  A    between atoms: O_16  and  C_17
REMARK   10  A    between atoms: C_22  and  O_23
REMARK   11  A    between atoms: O_23  and  C_24
REMARK   12  A    between atoms: C_25  and  O_26
REMARK   13  A    between atoms: O_26  and  C_27
REMARK   14  A    between atoms: C_28  and  O_29
REMARK   15  A    between atoms: O_29  and  C_30
REMARK                            x       y       z     vdW  Elec       q    Type
REMARK                         _______ _______ _______ _____ _____    ______ ____
ROOT
ATOM      1  C   UNL     1       0.243   9.204  20.402  0.00  0.00    +0.000 C 
ATOM      2  O   UNL     1      -0.749   8.868  21.061  0.00  0.00    +0.000 OA
ATOM      3  N   UNL     1       0.128  10.103  19.321  0.00  0.00    +0.000 N 
ENDROOT
BRANCH   3   4
ATOM      4  C   UNL     1      -1.162  10.686  19.067  0.00  0.00    +0.000 A 
ATOM      5  C   UNL     1      -1.872  10.350  17.913  0.00  0.00    +0.000 A 
ATOM      6  C   UNL     1      -3.140  10.888  17.668  0.00  0.00    +0.000 A 
ATOM      7  C   UNL     1      -3.693  11.827  18.566  0.00  0.00    +0.000 A 
ATOM      8  C   UNL     1      -2.960  12.208  19.710  0.00  0.00    +0.000 A 
ATOM      9  C   UNL     1      -1.716  11.609  19.957  0.00  0.00    +0.000 A 
BRANCH   6  10
ATOM     10  O   UNL     1      -3.895  10.556  16.566  0.00  0.00    +0.000 OA
ATOM     11  C   UNL     1      -3.176  10.321  15.359  0.00  0.00    +0.000 C 
ENDBRANCH   6  10
BRANCH   7  12
ATOM     12  O   UNL     1      -4.911  12.350  18.194  0.00  0.00    +0.000 OA
ATOM     13  C   UNL     1      -6.065  11.778  18.797  0.00  0.00    +0.000 C 
ENDBRANCH   7  12
BRANCH   8  14
ATOM     14  O   UNL     1      -3.484  13.185  20.517  0.00  0.00    +0.000 OA
ATOM     15  C   UNL     1      -4.025  12.799  21.775  0.00  0.00    +0.000 C 
ENDBRANCH   8  14
ENDBRANCH   3   4
BRANCH   1  16
ATOM     16  C   UNL     1       1.624   8.621  20.721  0.00  0.00    +0.000 C 
BRANCH  16  20
ATOM     17  C   UNL     1       2.716   4.843  18.787  0.00  0.00    +0.000 A 
ATOM     18  C   UNL     1       2.190   4.833  20.077  0.00  0.00    +0.000 A 
ATOM     19  C   UNL     1       1.817   6.027  20.718  0.00  0.00    +0.000 A 
ATOM     20  C   UNL     1       2.013   7.273  20.106  0.00  0.00    +0.000 A 
ATOM     21  C   UNL     1       2.533   7.263  18.799  0.00  0.00    +0.000 A 
ATOM     22  C   UNL     1       2.883   6.066  18.147  0.00  0.00    +0.000 A 
BRANCH  17  24
ATOM     23  C   UNL     1       3.636   2.695  19.199  0.00  0.00    +0.000 C 
ATOM     24  O   UNL     1       3.057   3.618  18.278  0.00  0.00    +0.000 OA
ENDBRANCH  17  24
ENDBRANCH  16  20
ENDBRANCH   1  16
BRANCH   3  25
ATOM     25  C   UNL     1       1.248  10.659  18.509  0.00  0.00    +0.000 C 
BRANCH  25  26
ATOM     26  C   UNL     1       1.779  11.998  18.967  0.00  0.00    +0.000 A 
ATOM     27  C   UNL     1       1.693  12.419  20.312  0.00  0.00    +0.000 A 
ATOM     28  C   UNL     1       2.119  13.706  20.707  0.00  0.00    +0.000 A 
ATOM     29  C   UNL     1       2.628  14.589  19.758  0.00  0.00    +0.000 A 
ATOM     30  C   UNL     1       2.762  14.159  18.443  0.00  0.00    +0.000 A 
ATOM     31  C   UNL     1       2.364  12.880  18.055  0.00  0.00    +0.000 A 
BRANCH  29  32
ATOM     32  O   UNL     1       3.007  15.886  19.941  0.00  0.00    +0.000 OA
ATOM     33  C   UNL     1       2.333  16.657  20.922  0.00  0.00    +0.000 C 
ENDBRANCH  29  32
ENDBRANCH  25  26
ENDBRANCH   3  25
TORSDOF 10
ENDMDL
MODEL 4
REMARK VINA RESULT:      -6.4      5.127     10.168
REMARK  Name = 
REMARK  15 active torsions:
REMARK  status: ('A' for Active; 'I' for Inactive)
REMARK    1  A    between atoms: C_1  and  O_2
REMARK    2  A    between atoms: O_2  and  C_3
REMARK    3  A    between atoms: C_6  and  C_7
REMARK    4  A    between atoms: C_7  and  C_8
REMARK    5  A    between atoms: N_10  and  C_11
REMARK    6  A    between atoms: N_10  and  C_20
REMARK    7  A    between atoms: C_11  and  C_12
REMARK    8  A    between atoms: C_15  and  O_16
REMARK    9  A    between atoms: O_16  and  C_17
REMARK   10  A    between atoms: C_22  and  O_23
REMARK   11  A    between atoms: O_23  and  C_24
REMARK   12  A    between atoms: C_25  and  O_26
REMARK   13  A    between atoms: O_26  and  C_27
REMARK   14  A    between atoms: C_28  and  O_29
REMARK   15  A    between atoms: O_29  and  C_30
REMARK                            x       y       z     vdW  Elec       q    Type
REMARK                         _______ _______ _______ _____ _____    ______ ____
ROOT
ATOM      1  C   UNL     1       0.300   9.917  18.172  0.00  0.00    +0.000 C 
ATOM      2  O   UNL     1       0.058   9.139  17.241  0.00  0.00    +0.000 OA
ATOM      3  N   UNL     1       1.183   9.556  19.211  0.00  0.00    +0.000 N 
ENDROOT
BRANCH   3   4
ATOM      4  C   UNL     1       1.862   8.292  19.107  0.00  0.00    +0.000 A 
ATOM      5  C   UNL     1       1.698   7.321  20.096  0.00  0.00    +0.000 A 
ATOM      6  C   UNL     1       2.330   6.077  19.993  0.00  0.00    +0.000 A 
ATOM      7  C   UNL     1       3.190   5.812  18.905  0.00  0.00    +0.000 A 
ATOM      8  C   UNL     1       3.397   6.806  17.925  0.00  0.00    +0.000 A 
ATOM      9  C   UNL     1       2.706   8.023  18.028  0.00  0.00    +0.000 A 
BRANCH   6  10
ATOM     10  O   UNL     1       2.168   5.074  20.922  0.00  0.00    +0.000 OA
ATOM     11  C   UNL     1       1.154   4.115  20.640  0.00  0.00    +0.000 C 
ENDBRANCH   6  10
BRANCH   7  12
ATOM     12  O   UNL     1       3.819   4.587  18.937  0.00  0.00    +0.000 OA
ATOM     13  C   UNL     1       5.171   4.572  19.375  0.00  0.00    +0.000 C 
ENDBRANCH   7  12
BRANCH   8  14
ATOM     14  O   UNL     1       4.303   6.552  16.928  0.00  0.00    +0.000 OA
ATOM     15  C   UNL     1       5.597   7.135  17.030  0.00  0.00    +0.000 C 
ENDBRANCH   8  14
ENDBRANCH   3   4
BRANCH   1  16
ATOM     16  C   UNL     1      -0.384  11.286  18.240  0.00  0.00    +0.000 C 
BRANCH  16  20
ATOM     17  C   UNL     1      -4.716  11.503  17.611  0.00  0.00    +0.000 A 
ATOM     18  C   UNL     1      -4.176  11.873  18.842  0.00  0.00    +0.000 A 
ATOM     19  C   UNL     1      -2.790  11.827  19.069  0.00  0.00    +0.000 A 
ATOM     20  C   UNL     1      -1.906  11.357  18.087  0.00  0.00    +0.000 A 
ATOM     21  C   UNL     1      -2.468  11.001  16.847  0.00  0.00    +0.000 A 
ATOM     22  C   UNL     1      -3.854  11.070  16.611  0.00  0.00    +0.000 A 
BRANCH  17  24
ATOM     23  C   UNL     1      -6.814  10.820  18.484  0.00  0.00    +0.000 C 
ATOM     24  O   UNL     1      -6.081  11.574  17.520  0.00  0.00    +0.000 OA
ENDBRANCH  17  24
ENDBRANCH  16  20
ENDBRANCH   1  16
BRANCH   3  25
ATOM     25  C   UNL     1       1.632  10.428  20.335  0.00  0.00    +0.000 C 
BRANCH  25  26
ATOM     26  C   UNL     1       0.563  10.795  21.337  0.00  0.00    +0.000 A 
ATOM     27  C   UNL     1       0.010   9.847  22.225  0.00  0.00    +0.000 A 
ATOM     28  C   UNL     1      -1.046  10.188  23.099  0.00  0.00    +0.000 A 
ATOM     29  C   UNL     1      -1.565  11.480  23.087  0.00  0.00    +0.000 A 
ATOM     30  C   UNL     1      -0.988  12.429  22.251  0.00  0.00    +0.000 A 
ATOM     31  C   UNL     1       0.070  12.101  21.404  0.00  0.00    +0.000 A 
BRANCH  29  32
ATOM     32  O   UNL     1      -2.627  11.961  23.795  0.00  0.00    +0.000 OA
ATOM     33  C   UNL     1      -3.644  12.663  23.099  0.00  0.00    +0.000 C 
ENDBRANCH  29  32
ENDBRANCH  25  26
ENDBRANCH   3  25
TORSDOF 10
ENDMDL
MODEL 5
REMARK VINA RESULT:      -6.4      6.336     10.284
REMARK  Name = 
REMARK  15 active torsions:
REMARK  status: ('A' for Active; 'I' for Inactive)
REMARK    1  A    between atoms: C_1  and  O_2
REMARK    2  A    between atoms: O_2  and  C_3
REMARK    3  A    between atoms: C_6  and  C_7
REMARK    4  A    between atoms: C_7  and  C_8
REMARK    5  A    between atoms: N_10  and  C_11
REMARK    6  A    between atoms: N_10  and  C_20
REMARK    7  A    between atoms: C_11  and  C_12
REMARK    8  A    between atoms: C_15  and  O_16
REMARK    9  A    between atoms: O_16  and  C_17
REMARK   10  A    between atoms: C_22  and  O_23
REMARK   11  A    between atoms: O_23  and  C_24
REMARK   12  A    between atoms: C_25  and  O_26
REMARK   13  A    between atoms: O_26  and  C_27
REMARK   14  A    between atoms: C_28  and  O_29
REMARK   15  A    between atoms: O_29  and  C_30
REMARK                            x       y       z     vdW  Elec       q    Type
REMARK                         _______ _______ _______ _____ _____    ______ ____
ROOT
ATOM      1  C   UNL     1       0.456  10.026  18.167  0.00  0.00    +0.000 C 
ATOM      2  O   UNL     1      -0.235   9.298  17.444  0.00  0.00    +0.000 OA
ATOM      3  N   UNL     1      -0.092  11.175  18.778  0.00  0.00    +0.000 N 
ENDROOT
BRANCH   3   4
ATOM      4  C   UNL     1      -1.498  11.420  18.607  0.00  0.00    +0.000 A 
ATOM      5  C   UNL     1      -2.099  11.234  17.360  0.00  0.00    +0.000 A 
ATOM      6  C   UNL     1      -3.472  11.442  17.186  0.00  0.00    +0.000 A 
ATOM      7  C   UNL     1      -4.258  11.898  18.267  0.00  0.00    +0.000 A 
ATOM      8  C   UNL     1      -3.649  12.133  19.518  0.00  0.00    +0.000 A 
ATOM      9  C   UNL     1      -2.281  11.863  19.675  0.00  0.00    +0.000 A 
BRANCH   6  10
ATOM     10  O   UNL     1      -4.115  11.234  15.987  0.00  0.00    +0.000 OA
ATOM     11  C   UNL     1      -3.388  10.510  15.001  0.00  0.00    +0.000 C 
ENDBRANCH   6  10
BRANCH   7  12
ATOM     12  O   UNL     1      -5.580  12.141  17.971  0.00  0.00    +0.000 OA
ATOM     13  C   UNL     1      -6.510  11.116  18.298  0.00  0.00    +0.000 C 
ENDBRANCH   7  12
BRANCH   8  14
ATOM     14  O   UNL     1      -4.419  12.657  20.523  0.00  0.00    +0.000 OA
ATOM     15  C   UNL     1      -3.789  12.973  21.759  0.00  0.00    +0.000 C 
ENDBRANCH   8  14
ENDBRANCH   3   4
BRANCH   1  16
ATOM     16  C   UNL     1       1.940   9.721  18.391  0.00  0.00    +0.000 C 
BRANCH  16  20
ATOM     17  C   UNL     1       3.161   5.562  19.039  0.00  0.00    +0.000 A 
ATOM     18  C   UNL     1       3.568   6.230  17.886  0.00  0.00    +0.000 A 
ATOM     19  C   UNL     1       3.204   7.569  17.657  0.00  0.00    +0.000 A 
ATOM     20  C   UNL     1       2.374   8.260  18.550  0.00  0.00    +0.000 A 
ATOM     21  C   UNL     1       1.984   7.574  19.715  0.00  0.00    +0.000 A 
ATOM     22  C   UNL     1       2.369   6.242  19.957  0.00  0.00    +0.000 A 
BRANCH  17  24
ATOM     23  C   UNL     1       4.632   3.862  18.277  0.00  0.00    +0.000 C 
ATOM     24  O   UNL     1       3.564   4.256  19.138  0.00  0.00    +0.000 OA
ENDBRANCH  17  24
ENDBRANCH  16  20
ENDBRANCH   1  16
BRANCH   3  25
ATOM     25  C   UNL     1       0.599  12.080  19.741  0.00  0.00    +0.000 C 
BRANCH  25  26
ATOM     26  C   UNL     1       1.107  13.378  19.160  0.00  0.00    +0.000 A 
ATOM     27  C   UNL     1       2.357  13.471  18.509  0.00  0.00    +0.000 A 
ATOM     28  C   UNL     1       2.854  14.708  18.045  0.00  0.00    +0.000 A 
ATOM     29  C   UNL     1       2.108  15.869  18.236  0.00  0.00    +0.000 A 
ATOM     30  C   UNL     1       0.856  15.773  18.830  0.00  0.00    +0.000 A 
ATOM     31  C   UNL     1       0.352  14.549  19.267  0.00  0.00    +0.000 A 
BRANCH  29  32
ATOM     32  O   UNL     1       2.463  17.150  17.932  0.00  0.00    +0.000 OA
ATOM     33  C   UNL     1       1.541  17.959  17.221  0.00  0.00    +0.000 C 
ENDBRANCH  29  32
ENDBRANCH  25  26
ENDBRANCH   3  25
TORSDOF 10
ENDMDL
MODEL 6
REMARK VINA RESULT:      -6.4      6.771     11.621
REMARK  Name = 
REMARK  15 active torsions:
REMARK  status: ('A' for Active; 'I' for Inactive)
REMARK    1  A    between atoms: C_1  and  O_2
REMARK    2  A    between atoms: O_2  and  C_3
REMARK    3  A    between atoms: C_6  and  C_7
REMARK    4  A    between atoms: C_7  and  C_8
REMARK    5  A    between atoms: N_10  and  C_11
REMARK    6  A    between atoms: N_10  and  C_20
REMARK    7  A    between atoms: C_11  and  C_12
REMARK    8  A    between atoms: C_15  and  O_16
REMARK    9  A    between atoms: O_16  and  C_17
REMARK   10  A    between atoms: C_22  and  O_23
REMARK   11  A    between atoms: O_23  and  C_24
REMARK   12  A    between atoms: C_25  and  O_26
REMARK   13  A    between atoms: O_26  and  C_27
REMARK   14  A    between atoms: C_28  and  O_29
REMARK   15  A    between atoms: O_29  and  C_30
REMARK                            x       y       z     vdW  Elec       q    Type
REMARK                         _______ _______ _______ _____ _____    ______ ____
ROOT
ATOM      1  C   UNL     1       0.770  11.699  20.436  0.00  0.00    +0.000 C 
ATOM      2  O   UNL     1       1.593  12.265  21.166  0.00  0.00    +0.000 OA
ATOM      3  N   UNL     1       0.171  12.375  19.353  0.00  0.00    +0.000 N 
ENDROOT
BRANCH   3   4
ATOM      4  C   UNL     1       0.615  13.714  19.070  0.00  0.00    +0.000 A 
ATOM      5  C   UNL     1       1.810  13.930  18.381  0.00  0.00    +0.000 A 
ATOM      6  C   UNL     1       2.239  15.225  18.076  0.00  0.00    +0.000 A 
ATOM      7  C   UNL     1       1.487  16.338  18.513  0.00  0.00    +0.000 A 
ATOM      8  C   UNL     1       0.303  16.129  19.251  0.00  0.00    +0.000 A 
ATOM      9  C   UNL     1      -0.130  14.817  19.494  0.00  0.00    +0.000 A 
BRANCH   6  10
ATOM     10  O   UNL     1       3.389  15.486  17.365  0.00  0.00    +0.000 OA
ATOM     11  C   UNL     1       4.610  15.084  17.975  0.00  0.00    +0.000 C 
ENDBRANCH   6  10
BRANCH   7  12
ATOM     12  O   UNL     1       2.035  17.568  18.224  0.00  0.00    +0.000 OA
ATOM     13  C   UNL     1       1.530  18.241  17.077  0.00  0.00    +0.000 C 
ENDBRANCH   7  12
BRANCH   8  14
ATOM     14  O   UNL     1      -0.358  17.228  19.735  0.00  0.00    +0.000 OA
ATOM     15  C   UNL     1      -1.544  17.646  19.070  0.00  0.00    +0.000 C 
ENDBRANCH   8  14
ENDBRANCH   3   4
BRANCH   1  16
ATOM     16  C   UNL     1       0.350  10.251  20.712  0.00  0.00    +0.000 C 
BRANCH  16  20
ATOM     17  C   UNL     1       2.554   6.958  18.840  0.00  0.00    +0.000 A 
ATOM     18  C   UNL     1       2.232   8.088  18.091  0.00  0.00    +0.000 A 
ATOM     19  C   UNL     1       1.538   9.166  18.667  0.00  0.00    +0.000 A 
ATOM     20  C   UNL     1       1.097   9.120  19.997  0.00  0.00    +0.000 A 
ATOM     21  C   UNL     1       1.443   7.977  20.741  0.00  0.00    +0.000 A 
ATOM     22  C   UNL     1       2.160   6.908  20.172  0.00  0.00    +0.000 A 
BRANCH  17  24
ATOM     23  C   UNL     1       2.465   4.787  17.886  0.00  0.00    +0.000 C 
ATOM     24  O   UNL     1       3.216   5.968  18.161  0.00  0.00    +0.000 OA
ENDBRANCH  17  24
ENDBRANCH  16  20
ENDBRANCH   1  16
BRANCH   3  25
ATOM     25  C   UNL     1      -0.758  11.787  18.346  0.00  0.00    +0.000 C 
BRANCH  25  26
ATOM     26  C   UNL     1      -2.227  11.887  18.682  0.00  0.00    +0.000 A 
ATOM     27  C   UNL     1      -3.232  11.466  17.784  0.00  0.00    +0.000 A 
ATOM     28  C   UNL     1      -4.602  11.642  18.079  0.00  0.00    +0.000 A 
ATOM     29  C   UNL     1      -4.980  12.250  19.274  0.00  0.00    +0.000 A 
ATOM     30  C   UNL     1      -3.994  12.619  20.182  0.00  0.00    +0.000 A 
ATOM     31  C   UNL     1      -2.642  12.424  19.903  0.00  0.00    +0.000 A 
BRANCH  29  32
ATOM     32  O   UNL     1      -6.239  12.574  19.685  0.00  0.00    +0.000 OA
ATOM     33  C   UNL     1      -7.165  11.527  19.925  0.00  0.00    +0.000 C 
ENDBRANCH  29  32
ENDBRANCH  25  26
ENDBRANCH   3  25
TORSDOF 10
ENDMDL
MODEL 7
REMARK VINA RESULT:      -6.3      5.622     10.036
REMARK  Name = 
REMARK  15 active torsions:
REMARK  status: ('A' for Active; 'I' for Inactive)
REMARK    1  A    between atoms: C_1  and  O_2
REMARK    2  A    between atoms: O_2  and  C_3
REMARK    3  A    between atoms: C_6  and  C_7
REMARK    4  A    between atoms: C_7  and  C_8
REMARK    5  A    between atoms: N_10  and  C_11
REMARK    6  A    between atoms: N_10  and  C_20
REMARK    7  A    between atoms: C_11  and  C_12
REMARK    8  A    between atoms: C_15  and  O_16
REMARK    9  A    between atoms: O_16  and  C_17
REMARK   10  A    between atoms: C_22  and  O_23
REMARK   11  A    between atoms: O_23  and  C_24
REMARK   12  A    between atoms: C_25  and  O_26
REMARK   13  A    between atoms: O_26  and  C_27
REMARK   14  A    between atoms: C_28  and  O_29
REMARK   15  A    between atoms: O_29  and  C_30
REMARK                            x       y       z     vdW  Elec       q    Type
REMARK                         _______ _______ _______ _____ _____    ______ ____
ROOT
ATOM      1  C   UNL     1       0.273   9.168  20.386  0.00  0.00    +0.000 C 
ATOM      2  O   UNL     1      -0.709   8.815  21.050  0.00  0.00    +0.000 OA
ATOM      3  N   UNL     1       0.148  10.117  19.349  0.00  0.00    +0.000 N 
ENDROOT
BRANCH   3   4
ATOM      4  C   UNL     1      -1.139  10.726  19.149  0.00  0.00    +0.000 A 
ATOM      5  C   UNL     1      -1.915  10.386  18.039  0.00  0.00    +0.000 A 
ATOM      6  C   UNL     1      -3.180  10.950  17.847  0.00  0.00    +0.000 A 
ATOM      7  C   UNL     1      -3.665  11.917  18.754  0.00  0.00    +0.000 A 
ATOM      8  C   UNL     1      -2.867  12.302  19.852  0.00  0.00    +0.000 A 
ATOM      9  C   UNL     1      -1.626  11.677  20.048  0.00  0.00    +0.000 A 
BRANCH   6  10
ATOM     10  O   UNL     1      -3.997  10.617  16.790  0.00  0.00    +0.000 OA
ATOM     11  C   UNL     1      -3.372  10.536  15.514  0.00  0.00    +0.000 C 
ENDBRANCH   6  10
BRANCH   7  12
ATOM     12  O   UNL     1      -4.889  12.463  18.434  0.00  0.00    +0.000 OA
ATOM     13  C   UNL     1      -6.018  11.963  19.139  0.00  0.00    +0.000 C 
ENDBRANCH   7  12
BRANCH   8  14
ATOM     14  O   UNL     1      -3.327  13.304  20.666  0.00  0.00    +0.000 OA
ATOM     15  C   UNL     1      -2.651  13.536  21.896  0.00  0.00    +0.000 C 
ENDBRANCH   8  14
ENDBRANCH   3   4
BRANCH   1  16
ATOM     16  C   UNL     1       1.653   8.556  20.649  0.00  0.00    +0.000 C 
BRANCH  16  20
ATOM     17  C   UNL     1       2.748   4.746  18.779  0.00  0.00    +0.000 A 
ATOM     18  C   UNL     1       2.931   5.938  18.080  0.00  0.00    +0.000 A 
ATOM     19  C   UNL     1       2.602   7.176  18.658  0.00  0.00    +0.000 A 
ATOM     20  C   UNL     1       2.028   7.254  19.935  0.00  0.00    +0.000 A 
ATOM     21  C   UNL     1       1.864   6.042  20.631  0.00  0.00    +0.000 A 
ATOM     22  C   UNL     1       2.216   4.804  20.062  0.00  0.00    +0.000 A 
BRANCH  17  24
ATOM     23  C   UNL     1       4.172   3.722  17.182  0.00  0.00    +0.000 C 
ATOM     24  O   UNL     1       3.088   3.605  18.102  0.00  0.00    +0.000 OA
ENDBRANCH  17  24
ENDBRANCH  16  20
ENDBRANCH   1  16
BRANCH   3  25
ATOM     25  C   UNL     1       1.258  10.696  18.540  0.00  0.00    +0.000 C 
BRANCH  25  26
ATOM     26  C   UNL     1       1.760  12.045  18.997  0.00  0.00    +0.000 A 
ATOM     27  C   UNL     1       1.766  12.422  20.358  0.00  0.00    +0.000 A 
ATOM     28  C   UNL     1       2.160  13.716  20.761  0.00  0.00    +0.000 A 
ATOM     29  C   UNL     1       2.546  14.652  19.804  0.00  0.00    +0.000 A 
ATOM     30  C   UNL     1       2.590  14.268  18.469  0.00  0.00    +0.000 A 
ATOM     31  C   UNL     1       2.224  12.983  18.071  0.00  0.00    +0.000 A 
BRANCH  29  32
ATOM     32  O   UNL     1       2.875  15.960  20.000  0.00  0.00    +0.000 OA
ATOM     33  C   UNL     1       3.149  16.768  18.867  0.00  0.00    +0.000 C 
ENDBRANCH  29  32
ENDBRANCH  25  26
ENDBRANCH   3  25
TORSDOF 10
ENDMDL
MODEL 8
REMARK VINA RESULT:      -6.3      5.463      9.719
REMARK  Name = 
REMARK  15 active torsions:
REMARK  status: ('A' for Active; 'I' for Inactive)
REMARK    1  A    between atoms: C_1  and  O_2
REMARK    2  A    between atoms: O_2  and  C_3
REMARK    3  A    between atoms: C_6  and  C_7
REMARK    4  A    between atoms: C_7  and  C_8
REMARK    5  A    between atoms: N_10  and  C_11
REMARK    6  A    between atoms: N_10  and  C_20
REMARK    7  A    between atoms: C_11  and  C_12
REMARK    8  A    between atoms: C_15  and  O_16
REMARK    9  A    between atoms: O_16  and  C_17
REMARK   10  A    between atoms: C_22  and  O_23
REMARK   11  A    between atoms: O_23  and  C_24
REMARK   12  A    between atoms: C_25  and  O_26
REMARK   13  A    between atoms: O_26  and  C_27
REMARK   14  A    between atoms: C_28  and  O_29
REMARK   15  A    between atoms: O_29  and  C_30
REMARK                            x       y       z     vdW  Elec       q    Type
REMARK                         _______ _______ _______ _____ _____    ______ ____
ROOT
ATOM      1  C   UNL     1       0.209   9.149  20.342  0.00  0.00    +0.000 C 
ATOM      2  O   UNL     1      -0.799   8.833  20.985  0.00  0.00    +0.000 OA
ATOM      3  N   UNL     1       0.125  10.033  19.245  0.00  0.00    +0.000 N 
ENDROOT
BRANCH   3   4
ATOM      4  C   UNL     1      -1.155  10.622  18.955  0.00  0.00    +0.000 A 
ATOM      5  C   UNL     1      -1.759  11.481  19.875  0.00  0.00    +0.000 A 
ATOM      6  C   UNL     1      -2.991  12.083  19.594  0.00  0.00    +0.000 A 
ATOM      7  C   UNL     1      -3.663  11.781  18.389  0.00  0.00    +0.000 A 
ATOM      8  C   UNL     1      -3.081  10.878  17.476  0.00  0.00    +0.000 A 
ATOM      9  C   UNL     1      -1.820  10.333  17.761  0.00  0.00    +0.000 A 
BRANCH   6  10
ATOM     10  O   UNL     1      -3.606  12.967  20.451  0.00  0.00    +0.000 OA
ATOM     11  C   UNL     1      -3.286  12.829  21.831  0.00  0.00    +0.000 C 
ENDBRANCH   6  10
BRANCH   7  12
ATOM     12  O   UNL     1      -4.900  12.369  18.244  0.00  0.00    +0.000 OA
ATOM     13  C   UNL     1      -6.032  11.568  18.563  0.00  0.00    +0.000 C 
ENDBRANCH   7  12
BRANCH   8  14
ATOM     14  O   UNL     1      -3.796  10.538  16.357  0.00  0.00    +0.000 OA
ATOM     15  C   UNL     1      -3.105  10.454  15.116  0.00  0.00    +0.000 C 
ENDBRANCH   8  14
ENDBRANCH   3   4
BRANCH   1  16
ATOM     16  C   UNL     1       1.578   8.561  20.699  0.00  0.00    +0.000 C 
BRANCH  16  20
ATOM     17  C   UNL     1       2.848   4.748  18.951  0.00  0.00    +0.000 A 
ATOM     18  C   UNL     1       3.022   5.930  18.234  0.00  0.00    +0.000 A 
ATOM     19  C   UNL     1       2.637   7.169  18.774  0.00  0.00    +0.000 A 
ATOM     20  C   UNL     1       2.015   7.256  20.027  0.00  0.00    +0.000 A 
ATOM     21  C   UNL     1       1.860   6.054  20.742  0.00  0.00    +0.000 A 
ATOM     22  C   UNL     1       2.268   4.816  20.213  0.00  0.00    +0.000 A 
BRANCH  17  24
ATOM     23  C   UNL     1       4.059   3.784  17.153  0.00  0.00    +0.000 C 
ATOM     24  O   UNL     1       3.245   3.604  18.311  0.00  0.00    +0.000 OA
ENDBRANCH  17  24
ENDBRANCH  16  20
ENDBRANCH   1  16
BRANCH   3  25
ATOM     25  C   UNL     1       1.266  10.567  18.449  0.00  0.00    +0.000 C 
BRANCH  25  26
ATOM     26  C   UNL     1       1.786  11.917  18.885  0.00  0.00    +0.000 A 
ATOM     27  C   UNL     1       2.391  12.816  17.980  0.00  0.00    +0.000 A 
ATOM     28  C   UNL     1       2.946  14.038  18.418  0.00  0.00    +0.000 A 
ATOM     29  C   UNL     1       2.908  14.370  19.770  0.00  0.00    +0.000 A 
ATOM     30  C   UNL     1       2.268  13.511  20.656  0.00  0.00    +0.000 A 
ATOM     31  C   UNL     1       1.699  12.315  20.221  0.00  0.00    +0.000 A 
BRANCH  29  32
ATOM     32  O   UNL     1       3.461  15.458  20.380  0.00  0.00    +0.000 OA
ATOM     33  C   UNL     1       4.874  15.554  20.443  0.00  0.00    +0.000 C 
ENDBRANCH  29  32
ENDBRANCH  25  26
ENDBRANCH   3  25
TORSDOF 10
ENDMDL
MODEL 9
REMARK VINA RESULT:      -6.3      5.636      9.827
REMARK  Name = 
REMARK  15 active torsions:
REMARK  status: ('A' for Active; 'I' for Inactive)
REMARK    1  A    between atoms: C_1  and  O_2
REMARK    2  A    between atoms: O_2  and  C_3
REMARK    3  A    between atoms: C_6  and  C_7
REMARK    4  A    between atoms: C_7  and  C_8
REMARK    5  A    between atoms: N_10  and  C_11
REMARK    6  A    between atoms: N_10  and  C_20
REMARK    7  A    between atoms: C_11  and  C_12
REMARK    8  A    between atoms: C_15  and  O_16
REMARK    9  A    between atoms: O_16  and  C_17
REMARK   10  A    between atoms: C_22  and  O_23
REMARK   11  A    between atoms: O_23  and  C_24
REMARK   12  A    between atoms: C_25  and  O_26
REMARK   13  A    between atoms: O_26  and  C_27
REMARK   14  A    between atoms: C_28  and  O_29
REMARK   15  A    between atoms: O_29  and  C_30
REMARK                            x       y       z     vdW  Elec       q    Type
REMARK                         _______ _______ _______ _____ _____    ______ ____
ROOT
ATOM      1  C   UNL     1       0.184   9.193  20.305  0.00  0.00    +0.000 C 
ATOM      2  O   UNL     1      -0.844   8.836  20.893  0.00  0.00    +0.000 OA
ATOM      3  N   UNL     1       0.125  10.085  19.212  0.00  0.00    +0.000 N 
ENDROOT
BRANCH   3   4
ATOM      4  C   UNL     1      -1.158  10.634  18.864  0.00  0.00    +0.000 A 
ATOM      5  C   UNL     1      -1.808  11.513  19.732  0.00  0.00    +0.000 A 
ATOM      6  C   UNL     1      -3.043  12.076  19.393  0.00  0.00    +0.000 A 
ATOM      7  C   UNL     1      -3.673  11.714  18.183  0.00  0.00    +0.000 A 
ATOM      8  C   UNL     1      -3.045  10.790  17.322  0.00  0.00    +0.000 A 
ATOM      9  C   UNL     1      -1.782  10.285  17.664  0.00  0.00    +0.000 A 
BRANCH   6  10
ATOM     10  O   UNL     1      -3.702  12.978  20.198  0.00  0.00    +0.000 OA
ATOM     11  C   UNL     1      -2.897  13.696  21.127  0.00  0.00    +0.000 C 
ENDBRANCH   6  10
BRANCH   7  12
ATOM     12  O   UNL     1      -4.918  12.268  17.979  0.00  0.00    +0.000 OA
ATOM     13  C   UNL     1      -6.040  11.475  18.347  0.00  0.00    +0.000 C 
ENDBRANCH   7  12
BRANCH   8  14
ATOM     14  O   UNL     1      -3.720  10.392  16.197  0.00  0.00    +0.000 OA
ATOM     15  C   UNL     1      -2.983  10.231  14.991  0.00  0.00    +0.000 C 
ENDBRANCH   8  14
ENDBRANCH   3   4
BRANCH   1  16
ATOM     16  C   UNL     1       1.553   8.647  20.725  0.00  0.00    +0.000 C 
BRANCH  16  20
ATOM     17  C   UNL     1       2.892   4.916  18.857  0.00  0.00    +0.000 A 
ATOM     18  C   UNL     1       2.299   4.884  20.118  0.00  0.00    +0.000 A 
ATOM     19  C   UNL     1       1.848   6.063  20.737  0.00  0.00    +0.000 A 
ATOM     20  C   UNL     1       2.026   7.316  20.134  0.00  0.00    +0.000 A 
ATOM     21  C   UNL     1       2.613   7.326  18.855  0.00  0.00    +0.000 A 
ATOM     22  C   UNL     1       3.043   6.144  18.224  0.00  0.00    +0.000 A 
BRANCH  17  24
ATOM     23  C   UNL     1       3.859   2.800  19.324  0.00  0.00    +0.000 C 
ATOM     24  O   UNL     1       3.307   3.704  18.369  0.00  0.00    +0.000 OA
ENDBRANCH  17  24
ENDBRANCH  16  20
ENDBRANCH   1  16
BRANCH   3  25
ATOM     25  C   UNL     1       1.286  10.665  18.479  0.00  0.00    +0.000 C 
BRANCH  25  26
ATOM     26  C   UNL     1       1.717  12.041  18.932  0.00  0.00    +0.000 A 
ATOM     27  C   UNL     1       2.222  13.003  18.031  0.00  0.00    +0.000 A 
ATOM     28  C   UNL     1       2.698  14.254  18.482  0.00  0.00    +0.000 A 
ATOM     29  C   UNL     1       2.683  14.550  19.843  0.00  0.00    +0.000 A 
ATOM     30  C   UNL     1       2.140  13.625  20.726  0.00  0.00    +0.000 A 
ATOM     31  C   UNL     1       1.647  12.400  20.281  0.00  0.00    +0.000 A 
BRANCH  29  32
ATOM     32  O   UNL     1       3.173  15.662  20.462  0.00  0.00    +0.000 OA
ATOM     33  C   UNL     1       2.720  16.934  20.030  0.00  0.00    +0.000 C 
ENDBRANCH  29  32
ENDBRANCH  25  26
ENDBRANCH   3  25
TORSDOF 10
ENDMDL
