MODEL 1
REMARK VINA RESULT:      -8.7      0.000      0.000
REMARK  Name = 
REMARK  4 active torsions:
REMARK  status: ('A' for Active; 'I' for Inactive)
REMARK    1  A    between atoms: N_1  and  C_2
REMARK    2  A    between atoms: C_5  and  C_6
REMARK    3  A    between atoms: C_6  and  N_7
REMARK    4  A    between atoms: C_15  and  N_16
REMARK                            x       y       z     vdW  Elec       q    Type
REMARK                         _______ _______ _______ _____ _____    ______ ____
ROOT
ATOM      1  N   UNL     1       1.144   9.098  19.457  0.00  0.00    +0.000 N 
ATOM      2  C   UNL     1       1.489   8.366  20.565  0.00  0.00    +0.000 C 
ATOM      3  O   UNL     1       1.503   8.743  21.726  0.00  0.00    +0.000 OA
ATOM      4  C   UNL     1       1.874   6.999  20.255  0.00  0.00    +0.000 A 
ATOM      5  C   UNL     1       1.268   5.961  20.935  0.00  0.00    +0.000 A 
ATOM      6  C   UNL     1       1.389   4.720  20.360  0.00  0.00    +0.000 A 
ATOM      7  C   UNL     1       2.591   4.428  19.747  0.00  0.00    +0.000 A 
ATOM      8  C   UNL     1       3.195   5.445  18.999  0.00  0.00    +0.000 A 
ATOM      9  C   UNL     1       4.212   5.250  18.079  0.00  0.00    +0.000 A 
ATOM     10  C   UNL     1       4.485   6.214  17.093  0.00  0.00    +0.000 A 
ATOM     11  C   UNL     1       3.753   7.443  17.131  0.00  0.00    +0.000 A 
ATOM     12  C   UNL     1       2.878   7.753  18.198  0.00  0.00    +0.000 A 
ATOM     13  C   UNL     1       2.660   6.753  19.161  0.00  0.00    +0.000 A 
ATOM     14  C   UNL     1       2.008   9.016  18.326  0.00  0.00    +0.000 C 
ATOM     15  O   UNL     1       2.076   9.867  17.439  0.00  0.00    +0.000 OA
ENDROOT
BRANCH   9  16
ATOM     16  N   UNL     1       4.970   3.996  18.097  0.00  0.00    +0.000 N 
ATOM     17  O   UNL     1       4.655   3.132  17.267  0.00  0.00    +0.000 OA
ATOM     18  O   UNL     1       5.895   3.898  18.916  0.00  0.00    +0.000 OA
ENDBRANCH   9  16
BRANCH   1  19
ATOM     19  C   UNL     1       0.322  10.292  19.743  0.00  0.00    +0.000 C 
BRANCH  19  23
ATOM     20  C   UNL     1      -3.349  11.332  17.465  0.00  0.00    +0.000 A 
ATOM     21  C   UNL     1      -2.476  10.350  16.978  0.00  0.00    +0.000 A 
ATOM     22  C   UNL     1      -1.312   9.958  17.692  0.00  0.00    +0.000 A 
ATOM     23  C   UNL     1      -0.965  10.568  18.908  0.00  0.00    +0.000 A 
ATOM     24  C   UNL     1      -1.860  11.555  19.374  0.00  0.00    +0.000 A 
ATOM     25  C   UNL     1      -3.009  11.950  18.658  0.00  0.00    +0.000 A 
BRANCH  20  26
ATOM     26  N   UNL     1      -4.378  11.850  16.661  0.00  0.00    +0.000 N 
ATOM     27  H   UNL     1      -4.234  12.787  16.310  0.00  0.00    +0.000 HD
ATOM     28  H   UNL     1      -4.724  11.215  15.945  0.00  0.00    +0.000 HD
ENDBRANCH  20  26
ENDBRANCH  19  23
ENDBRANCH   1  19
TORSDOF 4
ENDMDL
MODEL 2
REMARK VINA RESULT:      -8.4      2.608      7.886
REMARK  Name = 
REMARK  4 active torsions:
REMARK  status: ('A' for Active; 'I' for Inactive)
REMARK    1  A    between atoms: N_1  and  C_2
REMARK    2  A    between atoms: C_5  and  C_6
REMARK    3  A    between atoms: C_6  and  N_7
REMARK    4  A    between atoms: C_15  and  N_16
REMARK                            x       y       z     vdW  Elec       q    Type
REMARK                         _______ _______ _______ _____ _____    ______ ____
ROOT
ATOM      1  N   UNL     1       1.454   8.462  19.575  0.00  0.00    +0.000 N 
ATOM      2  C   UNL     1       1.254   9.341  18.541  0.00  0.00    +0.000 C 
ATOM      3  O   UNL     1       2.008   9.568  17.608  0.00  0.00    +0.000 OA
ATOM      4  C   UNL     1      -0.011  10.052  18.626  0.00  0.00    +0.000 A 
ATOM      5  C   UNL     1      -0.852  10.056  17.531  0.00  0.00    +0.000 A 
ATOM      6  C   UNL     1      -2.155  10.411  17.781  0.00  0.00    +0.000 A 
ATOM      7  C   UNL     1      -2.366  11.405  18.716  0.00  0.00    +0.000 A 
ATOM      8  C   UNL     1      -1.567  11.385  19.866  0.00  0.00    +0.000 A 
ATOM      9  C   UNL     1      -1.839  12.091  21.026  0.00  0.00    +0.000 A 
ATOM     10  C   UNL     1      -1.248  11.722  22.246  0.00  0.00    +0.000 A 
ATOM     11  C   UNL     1      -0.281  10.667  22.236  0.00  0.00    +0.000 A 
ATOM     12  C   UNL     1       0.179  10.093  21.028  0.00  0.00    +0.000 A 
ATOM     13  C   UNL     1      -0.442  10.516  19.840  0.00  0.00    +0.000 A 
ATOM     14  C   UNL     1       1.176   8.930  20.893  0.00  0.00    +0.000 C 
ATOM     15  O   UNL     1       1.654   8.445  21.919  0.00  0.00    +0.000 OA
ENDROOT
BRANCH   9  16
ATOM     16  N   UNL     1      -2.803  13.194  20.991  0.00  0.00    +0.000 N 
ATOM     17  O   UNL     1      -2.394  14.291  20.589  0.00  0.00    +0.000 OA
ATOM     18  O   UNL     1      -3.968  12.947  21.333  0.00  0.00    +0.000 OA
ENDBRANCH   9  16
BRANCH   1  19
ATOM     19  C   UNL     1       2.455   7.410  19.301  0.00  0.00    +0.000 C 
BRANCH  19  23
ATOM     20  C   UNL     1       1.374   3.118  18.910  0.00  0.00    +0.000 A 
ATOM     21  C   UNL     1       1.270   3.756  20.153  0.00  0.00    +0.000 A 
ATOM     22  C   UNL     1       1.567   5.136  20.316  0.00  0.00    +0.000 A 
ATOM     23  C   UNL     1       2.016   5.916  19.238  0.00  0.00    +0.000 A 
ATOM     24  C   UNL     1       2.114   5.248  17.999  0.00  0.00    +0.000 A 
ATOM     25  C   UNL     1       1.829   3.875  17.841  0.00  0.00    +0.000 A 
BRANCH  20  26
ATOM     26  N   UNL     1       1.273   1.721  18.802  0.00  0.00    +0.000 N 
ATOM     27  H   UNL     1       0.494   1.376  18.256  0.00  0.00    +0.000 HD
ATOM     28  H   UNL     1       2.145   1.244  18.581  0.00  0.00    +0.000 HD
ENDBRANCH  20  26
ENDBRANCH  19  23
ENDBRANCH   1  19
TORSDOF 4
ENDMDL
MODEL 3
REMARK VINA RESULT:      -8.2      2.623      7.760
REMARK  Name = 
REMARK  4 active torsions:
REMARK  status: ('A' for Active; 'I' for Inactive)
REMARK    1  A    between atoms: N_1  and  C_2
REMARK    2  A    between atoms: C_5  and  C_6
REMARK    3  A    between atoms: C_6  and  N_7
REMARK    4  A    between atoms: C_15  and  N_16
REMARK                            x       y       z     vdW  Elec       q    Type
REMARK                         _______ _______ _______ _____ _____    ______ ____
ROOT
ATOM      1  N   UNL     1       1.541   8.478  19.604  0.00  0.00    +0.000 N 
ATOM      2  C   UNL     1       1.330   9.345  18.562  0.00  0.00    +0.000 C 
ATOM      3  O   UNL     1       2.089   9.591  17.639  0.00  0.00    +0.000 OA
ATOM      4  C   UNL     1       0.041  10.015  18.624  0.00  0.00    +0.000 A 
ATOM      5  C   UNL     1      -0.783   9.987  17.517  0.00  0.00    +0.000 A 
ATOM      6  C   UNL     1      -2.101  10.301  17.745  0.00  0.00    +0.000 A 
ATOM      7  C   UNL     1      -2.356  11.293  18.671  0.00  0.00    +0.000 A 
ATOM      8  C   UNL     1      -1.575  11.305  19.833  0.00  0.00    +0.000 A 
ATOM      9  C   UNL     1      -1.886  12.008  20.985  0.00  0.00    +0.000 A 
ATOM     10  C   UNL     1      -1.302  11.665  22.216  0.00  0.00    +0.000 A 
ATOM     11  C   UNL     1      -0.302  10.641  22.226  0.00  0.00    +0.000 A 
ATOM     12  C   UNL     1       0.194  10.076  21.028  0.00  0.00    +0.000 A 
ATOM     13  C   UNL     1      -0.422  10.472  19.829  0.00  0.00    +0.000 A 
ATOM     14  C   UNL     1       1.229   8.944  20.915  0.00  0.00    +0.000 C 
ATOM     15  O   UNL     1       1.707   8.480  21.951  0.00  0.00    +0.000 OA
ENDROOT
BRANCH   9  16
ATOM     16  N   UNL     1      -2.884  13.080  20.930  0.00  0.00    +0.000 N 
ATOM     17  O   UNL     1      -4.037  12.799  21.285  0.00  0.00    +0.000 OA
ATOM     18  O   UNL     1      -2.501  14.200  20.564  0.00  0.00    +0.000 OA
ENDBRANCH   9  16
BRANCH   1  19
ATOM     19  C   UNL     1       2.580   7.457  19.351  0.00  0.00    +0.000 C 
BRANCH  19  23
ATOM     20  C   UNL     1       1.234   3.241  18.951  0.00  0.00    +0.000 A 
ATOM     21  C   UNL     1       1.761   3.917  17.843  0.00  0.00    +0.000 A 
ATOM     22  C   UNL     1       2.240   5.251  17.935  0.00  0.00    +0.000 A 
ATOM     23  C   UNL     1       2.171   5.968  19.139  0.00  0.00    +0.000 A 
ATOM     24  C   UNL     1       1.633   5.265  20.239  0.00  0.00    +0.000 A 
ATOM     25  C   UNL     1       1.148   3.944  20.143  0.00  0.00    +0.000 A 
BRANCH  20  26
ATOM     26  N   UNL     1       0.584   2.005  18.804  0.00  0.00    +0.000 N 
ATOM     27  H   UNL     1       0.270   1.779  17.869  0.00  0.00    +0.000 HD
ATOM     28  H   UNL     1       1.046   1.221  19.260  0.00  0.00    +0.000 HD
ENDBRANCH  20  26
ENDBRANCH  19  23
ENDBRANCH   1  19
TORSDOF 4
ENDMDL
MODEL 4
REMARK VINA RESULT:      -8.1      1.172      2.860
REMARK  Name = 
REMARK  4 active torsions:
REMARK  status: ('A' for Active; 'I' for Inactive)
REMARK    1  A    between atoms: N_1  and  C_2
REMARK    2  A    between atoms: C_5  and  C_6
REMARK    3  A    between atoms: C_6  and  N_7
REMARK    4  A    between atoms: C_15  and  N_16
REMARK                            x       y       z     vdW  Elec       q    Type
REMARK                         _______ _______ _______ _____ _____    ______ ____
ROOT
ATOM      1  N   UNL     1       1.876   8.779  19.379  0.00  0.00    +0.000 N 
ATOM      2  C   UNL     1       2.212   8.338  18.125  0.00  0.00    +0.000 C 
ATOM      3  O   UNL     1       1.881   8.825  17.056  0.00  0.00    +0.000 OA
ATOM      4  C   UNL     1       3.055   7.154  18.138  0.00  0.00    +0.000 A 
ATOM      5  C   UNL     1       4.229   7.159  17.412  0.00  0.00    +0.000 A 
ATOM      6  C   UNL     1       5.144   6.190  17.747  0.00  0.00    +0.000 A 
ATOM      7  C   UNL     1       4.644   4.949  18.090  0.00  0.00    +0.000 A 
ATOM      8  C   UNL     1       3.488   4.918  18.879  0.00  0.00    +0.000 A 
ATOM      9  C   UNL     1       3.033   3.805  19.568  0.00  0.00    +0.000 A 
ATOM     10  C   UNL     1       2.131   3.940  20.636  0.00  0.00    +0.000 A 
ATOM     11  C   UNL     1       1.617   5.243  20.924  0.00  0.00    +0.000 A 
ATOM     12  C   UNL     1       1.890   6.351  20.087  0.00  0.00    +0.000 A 
ATOM     13  C   UNL     1       2.788   6.147  19.026  0.00  0.00    +0.000 A 
ATOM     14  C   UNL     1       1.432   7.801  20.318  0.00  0.00    +0.000 C 
ATOM     15  O   UNL     1       0.742   8.049  21.307  0.00  0.00    +0.000 OA
ENDROOT
BRANCH   9  16
ATOM     16  N   UNL     1       3.550   2.479  19.217  0.00  0.00    +0.000 N 
ATOM     17  O   UNL     1       4.501   2.048  19.882  0.00  0.00    +0.000 OA
ATOM     18  O   UNL     1       2.980   1.866  18.303  0.00  0.00    +0.000 OA
ENDBRANCH   9  16
BRANCH   1  19
ATOM     19  C   UNL     1       1.439  10.189  19.437  0.00  0.00    +0.000 C 
BRANCH  19  23
ATOM     20  C   UNL     1      -2.742  11.487  18.678  0.00  0.00    +0.000 A 
ATOM     21  C   UNL     1      -2.168  10.478  17.894  0.00  0.00    +0.000 A 
ATOM     22  C   UNL     1      -0.849  10.005  18.127  0.00  0.00    +0.000 A 
ATOM     23  C   UNL     1      -0.045  10.557  19.136  0.00  0.00    +0.000 A 
ATOM     24  C   UNL     1      -0.647  11.574  19.909  0.00  0.00    +0.000 A 
ATOM     25  C   UNL     1      -1.952  12.050  19.669  0.00  0.00    +0.000 A 
BRANCH  20  26
ATOM     26  N   UNL     1      -3.961  12.083  18.315  0.00  0.00    +0.000 N 
ATOM     27  H   UNL     1      -4.581  11.512  17.755  0.00  0.00    +0.000 HD
ATOM     28  H   UNL     1      -4.447  12.560  19.071  0.00  0.00    +0.000 HD
ENDBRANCH  20  26
ENDBRANCH  19  23
ENDBRANCH   1  19
TORSDOF 4
ENDMDL
MODEL 5
REMARK VINA RESULT:      -8.0      2.518      7.602
REMARK  Name = 
REMARK  4 active torsions:
REMARK  status: ('A' for Active; 'I' for Inactive)
REMARK    1  A    between atoms: N_1  and  C_2
REMARK    2  A    between atoms: C_5  and  C_6
REMARK    3  A    between atoms: C_6  and  N_7
REMARK    4  A    between atoms: C_15  and  N_16
REMARK                            x       y       z     vdW  Elec       q    Type
REMARK                         _______ _______ _______ _____ _____    ______ ____
ROOT
ATOM      1  N   UNL     1       1.947   8.039  18.679  0.00  0.00    +0.000 N 
ATOM      2  C   UNL     1       1.762   9.333  18.263  0.00  0.00    +0.000 C 
ATOM      3  O   UNL     1       2.421   9.947  17.440  0.00  0.00    +0.000 OA
ATOM      4  C   UNL     1       0.643   9.993  18.916  0.00  0.00    +0.000 A 
ATOM      5  C   UNL     1      -0.315  10.613  18.139  0.00  0.00    +0.000 A 
ATOM      6  C   UNL     1      -1.507  10.886  18.765  0.00  0.00    +0.000 A 
ATOM      7  C   UNL     1      -1.444  11.280  20.087  0.00  0.00    +0.000 A 
ATOM      8  C   UNL     1      -0.523  10.622  20.911  0.00  0.00    +0.000 A 
ATOM      9  C   UNL     1      -0.537  10.659  22.296  0.00  0.00    +0.000 A 
ATOM     10  C   UNL     1       0.135   9.681  23.048  0.00  0.00    +0.000 A 
ATOM     11  C   UNL     1       0.917   8.710  22.346  0.00  0.00    +0.000 A 
ATOM     12  C   UNL     1       1.130   8.797  20.950  0.00  0.00    +0.000 A 
ATOM     13  C   UNL     1       0.441   9.807  20.258  0.00  0.00    +0.000 A 
ATOM     14  C   UNL     1       1.910   7.793  20.083  0.00  0.00    +0.000 C 
ATOM     15  O   UNL     1       2.429   6.821  20.634  0.00  0.00    +0.000 OA
ENDROOT
BRANCH   9  16
ATOM     16  N   UNL     1      -1.315  11.695  22.982  0.00  0.00    +0.000 N 
ATOM     17  O   UNL     1      -2.436  11.376  23.402  0.00  0.00    +0.000 OA
ATOM     18  O   UNL     1      -0.787  12.807  23.125  0.00  0.00    +0.000 OA
ENDBRANCH   9  16
BRANCH   1  19
ATOM     19  C   UNL     1       2.732   7.202  17.748  0.00  0.00    +0.000 C 
BRANCH  19  23
ATOM     20  C   UNL     1       2.746   2.778  18.158  0.00  0.00    +0.000 A 
ATOM     21  C   UNL     1       1.531   3.468  18.047  0.00  0.00    +0.000 A 
ATOM     22  C   UNL     1       1.481   4.877  17.874  0.00  0.00    +0.000 A 
ATOM     23  C   UNL     1       2.653   5.648  17.844  0.00  0.00    +0.000 A 
ATOM     24  C   UNL     1       3.862   4.929  17.961  0.00  0.00    +0.000 A 
ATOM     25  C   UNL     1       3.909   3.531  18.143  0.00  0.00    +0.000 A 
BRANCH  20  26
ATOM     26  N   UNL     1       2.778   1.423  18.527  0.00  0.00    +0.000 N 
ATOM     27  H   UNL     1       2.559   0.760  17.794  0.00  0.00    +0.000 HD
ATOM     28  H   UNL     1       3.594   1.146  19.070  0.00  0.00    +0.000 HD
ENDBRANCH  20  26
ENDBRANCH  19  23
ENDBRANCH   1  19
TORSDOF 4
ENDMDL
MODEL 6
REMARK VINA RESULT:      -8.0      2.510      7.664
REMARK  Name = 
REMARK  4 active torsions:
REMARK  status: ('A' for Active; 'I' for Inactive)
REMARK    1  A    between atoms: N_1  and  C_2
REMARK    2  A    between atoms: C_5  and  C_6
REMARK    3  A    between atoms: C_6  and  N_7
REMARK    4  A    between atoms: C_15  and  N_16
REMARK                            x       y       z     vdW  Elec       q    Type
REMARK                         _______ _______ _______ _____ _____    ______ ____
ROOT
ATOM      1  N   UNL     1       1.865   8.081  18.732  0.00  0.00    +0.000 N 
ATOM      2  C   UNL     1       1.690   9.369  18.294  0.00  0.00    +0.000 C 
ATOM      3  O   UNL     1       2.359   9.966  17.465  0.00  0.00    +0.000 OA
ATOM      4  C   UNL     1       0.569  10.045  18.926  0.00  0.00    +0.000 A 
ATOM      5  C   UNL     1      -0.379  10.658  18.132  0.00  0.00    +0.000 A 
ATOM      6  C   UNL     1      -1.574  10.947  18.744  0.00  0.00    +0.000 A 
ATOM      7  C   UNL     1      -1.520  11.363  20.059  0.00  0.00    +0.000 A 
ATOM      8  C   UNL     1      -0.609  10.713  20.901  0.00  0.00    +0.000 A 
ATOM      9  C   UNL     1      -0.634  10.773  22.285  0.00  0.00    +0.000 A 
ATOM     10  C   UNL     1       0.027   9.804  23.058  0.00  0.00    +0.000 A 
ATOM     11  C   UNL     1       0.809   8.817  22.379  0.00  0.00    +0.000 A 
ATOM     12  C   UNL     1       1.034   8.880  20.983  0.00  0.00    +0.000 A 
ATOM     13  C   UNL     1       0.356   9.883  20.269  0.00  0.00    +0.000 A 
ATOM     14  C   UNL     1       1.815   7.858  20.140  0.00  0.00    +0.000 C 
ATOM     15  O   UNL     1       2.324   6.893  20.710  0.00  0.00    +0.000 OA
ENDROOT
BRANCH   9  16
ATOM     16  N   UNL     1      -1.412  11.824  22.948  0.00  0.00    +0.000 N 
ATOM     17  O   UNL     1      -0.917  12.959  22.982  0.00  0.00    +0.000 OA
ATOM     18  O   UNL     1      -2.523  11.514  23.399  0.00  0.00    +0.000 OA
ENDBRANCH   9  16
BRANCH   1  19
ATOM     19  C   UNL     1       2.652   7.225  17.821  0.00  0.00    +0.000 C 
BRANCH  19  23
ATOM     20  C   UNL     1       2.786   2.826  18.433  0.00  0.00    +0.000 A 
ATOM     21  C   UNL     1       3.936   3.599  18.645  0.00  0.00    +0.000 A 
ATOM     22  C   UNL     1       3.928   5.012  18.500  0.00  0.00    +0.000 A 
ATOM     23  C   UNL     1       2.770   5.696  18.099  0.00  0.00    +0.000 A 
ATOM     24  C   UNL     1       1.628   4.894  17.889  0.00  0.00    +0.000 A 
ATOM     25  C   UNL     1       1.640   3.490  18.023  0.00  0.00    +0.000 A 
BRANCH  20  26
ATOM     26  N   UNL     1       2.855   1.424  18.383  0.00  0.00    +0.000 N 
ATOM     27  H   UNL     1       2.094   0.929  18.831  0.00  0.00    +0.000 HD
ATOM     28  H   UNL     1       3.085   1.038  17.469  0.00  0.00    +0.000 HD
ENDBRANCH  20  26
ENDBRANCH  19  23
ENDBRANCH   1  19
TORSDOF 4
ENDMDL
MODEL 7
REMARK VINA RESULT:      -7.9      1.159      1.351
REMARK  Name = 
REMARK  4 active torsions:
REMARK  status: ('A' for Active; 'I' for Inactive)
REMARK    1  A    between atoms: N_1  and  C_2
REMARK    2  A    between atoms: C_5  and  C_6
REMARK    3  A    between atoms: C_6  and  N_7
REMARK    4  A    between atoms: C_15  and  N_16
REMARK                            x       y       z     vdW  Elec       q    Type
REMARK                         _______ _______ _______ _____ _____    ______ ____
ROOT
ATOM      1  N   UNL     1       1.879   8.415  18.903  0.00  0.00    +0.000 N 
ATOM      2  C   UNL     1       1.864   7.833  20.145  0.00  0.00    +0.000 C 
ATOM      3  O   UNL     1       1.861   8.398  21.227  0.00  0.00    +0.000 OA
ATOM      4  C   UNL     1       1.858   6.380  20.099  0.00  0.00    +0.000 A 
ATOM      5  C   UNL     1       0.899   5.692  20.815  0.00  0.00    +0.000 A 
ATOM      6  C   UNL     1       0.708   4.381  20.451  0.00  0.00    +0.000 A 
ATOM      7  C   UNL     1       1.829   3.663  20.086  0.00  0.00    +0.000 A 
ATOM      8  C   UNL     1       2.788   4.321  19.306  0.00  0.00    +0.000 A 
ATOM      9  C   UNL     1       3.797   3.688  18.598  0.00  0.00    +0.000 A 
ATOM     10  C   UNL     1       4.451   4.342  17.541  0.00  0.00    +0.000 A 
ATOM     11  C   UNL     1       4.119   5.710  17.285  0.00  0.00    +0.000 A 
ATOM     12  C   UNL     1       3.262   6.439  18.143  0.00  0.00    +0.000 A 
ATOM     13  C   UNL     1       2.651   5.731  19.191  0.00  0.00    +0.000 A 
ATOM     14  C   UNL     1       2.799   7.893  17.947  0.00  0.00    +0.000 C 
ATOM     15  O   UNL     1       3.216   8.515  16.970  0.00  0.00    +0.000 OA
ENDROOT
BRANCH   9  16
ATOM     16  N   UNL     1       4.141   2.299  18.916  0.00  0.00    +0.000 N 
ATOM     17  O   UNL     1       3.700   1.421  18.162  0.00  0.00    +0.000 OA
ATOM     18  O   UNL     1       4.874   2.101  19.895  0.00  0.00    +0.000 OA
ENDBRANCH   9  16
BRANCH   1  19
ATOM     19  C   UNL     1       1.422   9.821  18.879  0.00  0.00    +0.000 C 
BRANCH  19  23
ATOM     20  C   UNL     1      -2.787  11.001  18.083  0.00  0.00    +0.000 A 
ATOM     21  C   UNL     1      -2.147  10.078  17.246  0.00  0.00    +0.000 A 
ATOM     22  C   UNL     1      -0.817   9.642  17.486  0.00  0.00    +0.000 A 
ATOM     23  C   UNL     1      -0.067  10.149  18.558  0.00  0.00    +0.000 A 
ATOM     24  C   UNL     1      -0.734  11.080  19.384  0.00  0.00    +0.000 A 
ATOM     25  C   UNL     1      -2.051  11.519  19.138  0.00  0.00    +0.000 A 
BRANCH  20  26
ATOM     26  N   UNL     1      -4.019  11.572  17.725  0.00  0.00    +0.000 N 
ATOM     27  H   UNL     1      -4.332  12.343  18.302  0.00  0.00    +0.000 HD
ATOM     28  H   UNL     1      -4.133  11.758  16.731  0.00  0.00    +0.000 HD
ENDBRANCH  20  26
ENDBRANCH  19  23
ENDBRANCH   1  19
TORSDOF 4
ENDMDL
MODEL 8
REMARK VINA RESULT:      -7.7      1.237      2.973
REMARK  Name = 
REMARK  4 active torsions:
REMARK  status: ('A' for Active; 'I' for Inactive)
REMARK    1  A    between atoms: N_1  and  C_2
REMARK    2  A    between atoms: C_5  and  C_6
REMARK    3  A    between atoms: C_6  and  N_7
REMARK    4  A    between atoms: C_15  and  N_16
REMARK                            x       y       z     vdW  Elec       q    Type
REMARK                         _______ _______ _______ _____ _____    ______ ____
ROOT
ATOM      1  N   UNL     1       2.024   8.672  19.317  0.00  0.00    +0.000 N 
ATOM      2  C   UNL     1       2.397   8.186  18.090  0.00  0.00    +0.000 C 
ATOM      3  O   UNL     1       2.093   8.630  16.995  0.00  0.00    +0.000 OA
ATOM      4  C   UNL     1       3.246   7.009  18.171  0.00  0.00    +0.000 A 
ATOM      5  C   UNL     1       4.440   6.995  17.477  0.00  0.00    +0.000 A 
ATOM      6  C   UNL     1       5.350   6.045  17.874  0.00  0.00    +0.000 A 
ATOM      7  C   UNL     1       4.848   4.815  18.250  0.00  0.00    +0.000 A 
ATOM      8  C   UNL     1       3.671   4.805  19.008  0.00  0.00    +0.000 A 
ATOM      9  C   UNL     1       3.204   3.716  19.725  0.00  0.00    +0.000 A 
ATOM     10  C   UNL     1       2.271   3.885  20.763  0.00  0.00    +0.000 A 
ATOM     11  C   UNL     1       1.742   5.195  20.987  0.00  0.00    +0.000 A 
ATOM     12  C   UNL     1       2.032   6.272  20.117  0.00  0.00    +0.000 A 
ATOM     13  C   UNL     1       2.960   6.034  19.089  0.00  0.00    +0.000 A 
ATOM     14  C   UNL     1       1.560   7.727  20.280  0.00  0.00    +0.000 C 
ATOM     15  O   UNL     1       0.842   8.007  21.240  0.00  0.00    +0.000 OA
ENDROOT
BRANCH   9  16
ATOM     16  N   UNL     1       3.737   2.381  19.439  0.00  0.00    +0.000 N 
ATOM     17  O   UNL     1       3.194   1.737  18.532  0.00  0.00    +0.000 OA
ATOM     18  O   UNL     1       4.715   2.002  20.100  0.00  0.00    +0.000 OA
ENDBRANCH   9  16
BRANCH   1  19
ATOM     19  C   UNL     1       1.578  10.081  19.310  0.00  0.00    +0.000 C 
BRANCH  19  23
ATOM     20  C   UNL     1      -2.655  10.821  18.179  0.00  0.00    +0.000 A 
ATOM     21  C   UNL     1      -2.104  11.465  19.295  0.00  0.00    +0.000 A 
ATOM     22  C   UNL     1      -0.745  11.289  19.670  0.00  0.00    +0.000 A 
ATOM     23  C   UNL     1       0.101  10.427  18.954  0.00  0.00    +0.000 A 
ATOM     24  C   UNL     1      -0.480   9.789  17.837  0.00  0.00    +0.000 A 
ATOM     25  C   UNL     1      -1.832   9.957  17.473  0.00  0.00    +0.000 A 
BRANCH  20  26
ATOM     26  N   UNL     1      -4.038  10.845  17.938  0.00  0.00    +0.000 N 
ATOM     27  H   UNL     1      -4.522   9.964  18.060  0.00  0.00    +0.000 HD
ATOM     28  H   UNL     1      -4.534  11.624  18.365  0.00  0.00    +0.000 HD
ENDBRANCH  20  26
ENDBRANCH  19  23
ENDBRANCH   1  19
TORSDOF 4
ENDMDL
MODEL 9
REMARK VINA RESULT:      -7.7      1.177      1.748
REMARK  Name = 
REMARK  4 active torsions:
REMARK  status: ('A' for Active; 'I' for Inactive)
REMARK    1  A    between atoms: N_1  and  C_2
REMARK    2  A    between atoms: C_5  and  C_6
REMARK    3  A    between atoms: C_6  and  N_7
REMARK    4  A    between atoms: C_15  and  N_16
REMARK                            x       y       z     vdW  Elec       q    Type
REMARK                         _______ _______ _______ _____ _____    ______ ____
ROOT
ATOM      1  N   UNL     1       1.897   8.445  18.928  0.00  0.00    +0.000 N 
ATOM      2  C   UNL     1       1.903   7.849  20.164  0.00  0.00    +0.000 C 
ATOM      3  O   UNL     1       1.918   8.403  21.252  0.00  0.00    +0.000 OA
ATOM      4  C   UNL     1       1.893   6.397  20.103  0.00  0.00    +0.000 A 
ATOM      5  C   UNL     1       0.945   5.702  20.828  0.00  0.00    +0.000 A 
ATOM      6  C   UNL     1       0.747   4.395  20.453  0.00  0.00    +0.000 A 
ATOM      7  C   UNL     1       1.861   3.680  20.061  0.00  0.00    +0.000 A 
ATOM      8  C   UNL     1       2.807   4.345  19.272  0.00  0.00    +0.000 A 
ATOM      9  C   UNL     1       3.803   3.719  18.541  0.00  0.00    +0.000 A 
ATOM     10  C   UNL     1       4.441   4.384  17.479  0.00  0.00    +0.000 A 
ATOM     11  C   UNL     1       4.106   5.754  17.244  0.00  0.00    +0.000 A 
ATOM     12  C   UNL     1       3.265   6.475  18.124  0.00  0.00    +0.000 A 
ATOM     13  C   UNL     1       2.671   5.757  19.175  0.00  0.00    +0.000 A 
ATOM     14  C   UNL     1       2.801   7.932  17.952  0.00  0.00    +0.000 C 
ATOM     15  O   UNL     1       3.201   8.564  16.974  0.00  0.00    +0.000 OA
ENDROOT
BRANCH   9  16
ATOM     16  N   UNL     1       4.150   2.326  18.838  0.00  0.00    +0.000 N 
ATOM     17  O   UNL     1       4.873   2.120  19.822  0.00  0.00    +0.000 OA
ATOM     18  O   UNL     1       3.671   1.449  18.106  0.00  0.00    +0.000 OA
ENDBRANCH   9  16
BRANCH   1  19
ATOM     19  C   UNL     1       1.443   9.851  18.927  0.00  0.00    +0.000 C 
BRANCH  19  23
ATOM     20  C   UNL     1      -2.808  10.572  17.850  0.00  0.00    +0.000 A 
ATOM     21  C   UNL     1      -2.265  11.165  18.998  0.00  0.00    +0.000 A 
ATOM     22  C   UNL     1      -0.901  10.994  19.358  0.00  0.00    +0.000 A 
ATOM     23  C   UNL     1      -0.043  10.188  18.595  0.00  0.00    +0.000 A 
ATOM     24  C   UNL     1      -0.615   9.600  17.447  0.00  0.00    +0.000 A 
ATOM     25  C   UNL     1      -1.972   9.762  17.096  0.00  0.00    +0.000 A 
BRANCH  20  26
ATOM     26  N   UNL     1      -4.192  10.582  17.615  0.00  0.00    +0.000 N 
ATOM     27  H   UNL     1      -4.611  11.494  17.484  0.00  0.00    +0.000 HD
ATOM     28  H   UNL     1      -4.515   9.903  16.929  0.00  0.00    +0.000 HD
ENDBRANCH  20  26
ENDBRANCH  19  23
ENDBRANCH   1  19
TORSDOF 4
ENDMDL
