MODEL 1
REMARK VINA RESULT:      -6.2      0.000      0.000
REMARK  Name = 
REMARK  15 active torsions:
REMARK  status: ('A' for Active; 'I' for Inactive)
REMARK    1  A    between atoms: C_1  and  C_2
REMARK    2  A    between atoms: C_2  and  C_3
REMARK    3  A    between atoms: C_3  and  C_4
REMARK    4  A    between atoms: C_3  and  C_5
REMARK    5  A    between atoms: C_5  and  N_6
REMARK    6  A    between atoms: C_5  and  C_17
REMARK    7  A    between atoms: N_9  and  C_10
REMARK    8  A    between atoms: C_10  and  C_11
REMARK    9  A    between atoms: C_11  and  C_12
REMARK   10  A    between atoms: C_12  and  O_13
REMARK   11  A    between atoms: O_13  and  C_14
REMARK   12  A    between atoms: C_14  and  C_15
REMARK   13  A    between atoms: C_14  and  C_16
REMARK   14  A    between atoms: C_17  and  O_19
REMARK   15  A    between atoms: O_19  and  C_20
REMARK                            x       y       z     vdW  Elec       q    Type
REMARK                         _______ _______ _______ _____ _____    ______ ____
ROOT
ATOM      1  N   UNL     1       5.747   4.151  17.166  0.00  0.00    +0.000 N 
ATOM      2  C   UNL     1       4.635   3.518  17.654  0.00  0.00    +0.000 C 
ATOM      3  O   UNL     1       3.507   3.745  17.226  0.00  0.00    +0.000 OA
ATOM      4  N   UNL     1       4.899   2.670  18.685  0.00  0.00    +0.000 N 
ATOM      5  H   UNL     1       6.657   3.759  17.355  0.00  0.00    +0.000 HD
ATOM      6  H   UNL     1       5.853   2.491  18.957  0.00  0.00    +0.000 HD
ENDROOT
BRANCH   1   7
ATOM      7  C   UNL     1       5.618   5.143  16.093  0.00  0.00    +0.000 C 
BRANCH   7   8
ATOM      8  C   UNL     1       5.761   6.606  16.609  0.00  0.00    +0.000 C 
ATOM      9  C   UNL     1       4.436   7.206  17.096  0.00  0.00    +0.000 C 
BRANCH   8  11
ATOM     10  C   UNL     1       7.755   7.942  17.552  0.00  0.00    +0.000 C 
ATOM     11  C   UNL     1       6.863   6.712  17.687  0.00  0.00    +0.000 C 
ENDBRANCH   8  11
ENDBRANCH   7   8
BRANCH   7  12
ATOM     12  C   UNL     1       6.600   4.804  14.963  0.00  0.00    +0.000 C 
ATOM     13  O   UNL     1       7.608   5.444  14.693  0.00  0.00    +0.000 OA
BRANCH  12  14
ATOM     14  O   UNL     1       6.213   3.653  14.339  0.00  0.00    +0.000 OA
ATOM     15  C   UNL     1       6.309   3.665  12.916  0.00  0.00    +0.000 C 
ENDBRANCH  12  14
ENDBRANCH   7  12
ENDBRANCH   1   7
BRANCH   4  16
ATOM     16  C   UNL     1       3.821   2.013  19.398  0.00  0.00    +0.000 C 
BRANCH  16  17
ATOM     17  C   UNL     1       3.838   2.339  20.889  0.00  0.00    +0.000 C 
BRANCH  17  18
ATOM     18  C   UNL     1       2.434   2.662  21.393  0.00  0.00    +0.000 C 
BRANCH  18  19
ATOM     19  O   UNL     1       2.346   4.042  21.743  0.00  0.00    +0.000 OA
BRANCH  19  20
ATOM     20  C   UNL     1       1.616   4.843  20.807  0.00  0.00    +0.000 C 
ATOM     21  C   UNL     1       2.549   5.658  19.917  0.00  0.00    +0.000 C 
ATOM     22  C   UNL     1       0.784   3.898  19.941  0.00  0.00    +0.000 C 
ENDBRANCH  19  20
ENDBRANCH  18  19
ENDBRANCH  17  18
ENDBRANCH  16  17
ENDBRANCH   4  16
TORSDOF 10
ENDMDL
MODEL 2
REMARK VINA RESULT:      -6.1      4.077      7.764
REMARK  Name = 
REMARK  15 active torsions:
REMARK  status: ('A' for Active; 'I' for Inactive)
REMARK    1  A    between atoms: C_1  and  C_2
REMARK    2  A    between atoms: C_2  and  C_3
REMARK    3  A    between atoms: C_3  and  C_4
REMARK    4  A    between atoms: C_3  and  C_5
REMARK    5  A    between atoms: C_5  and  N_6
REMARK    6  A    between atoms: C_5  and  C_17
REMARK    7  A    between atoms: N_9  and  C_10
REMARK    8  A    between atoms: C_10  and  C_11
REMARK    9  A    between atoms: C_11  and  C_12
REMARK   10  A    between atoms: C_12  and  O_13
REMARK   11  A    between atoms: O_13  and  C_14
REMARK   12  A    between atoms: C_14  and  C_15
REMARK   13  A    between atoms: C_14  and  C_16
REMARK   14  A    between atoms: C_17  and  O_19
REMARK   15  A    between atoms: O_19  and  C_20
REMARK                            x       y       z     vdW  Elec       q    Type
REMARK                         _______ _______ _______ _____ _____    ______ ____
ROOT
ATOM      1  N   UNL     1       6.718   7.331  17.003  0.00  0.00    +0.000 N 
ATOM      2  C   UNL     1       7.696   7.799  17.839  0.00  0.00    +0.000 C 
ATOM      3  O   UNL     1       8.234   7.089  18.684  0.00  0.00    +0.000 OA
ATOM      4  N   UNL     1       7.962   9.124  17.679  0.00  0.00    +0.000 N 
ATOM      5  H   UNL     1       6.492   7.855  16.171  0.00  0.00    +0.000 HD
ATOM      6  H   UNL     1       7.519   9.639  16.934  0.00  0.00    +0.000 HD
ENDROOT
BRANCH   1   7
ATOM      7  C   UNL     1       6.274   5.936  17.096  0.00  0.00    +0.000 C 
BRANCH   7   8
ATOM      8  C   UNL     1       4.742   5.777  16.862  0.00  0.00    +0.000 C 
ATOM      9  C   UNL     1       4.252   4.334  17.039  0.00  0.00    +0.000 C 
BRANCH   8  11
ATOM     10  C   UNL     1       2.561   6.249  18.154  0.00  0.00    +0.000 C 
ATOM     11  C   UNL     1       3.939   6.761  17.741  0.00  0.00    +0.000 C 
ENDBRANCH   8  11
ENDBRANCH   7   8
BRANCH   7  12
ATOM     12  C   UNL     1       7.120   5.066  16.155  0.00  0.00    +0.000 C 
ATOM     13  O   UNL     1       7.899   4.194  16.515  0.00  0.00    +0.000 OA
BRANCH  12  14
ATOM     14  O   UNL     1       6.834   5.373  14.855  0.00  0.00    +0.000 OA
ATOM     15  C   UNL     1       6.517   4.261  14.019  0.00  0.00    +0.000 C 
ENDBRANCH  12  14
ENDBRANCH   7  12
ENDBRANCH   1   7
BRANCH   4  16
ATOM     16  C   UNL     1       8.882   9.806  18.568  0.00  0.00    +0.000 C 
BRANCH  16  17
ATOM     17  C   UNL     1       9.103  11.259  18.157  0.00  0.00    +0.000 C 
BRANCH  17  18
ATOM     18  C   UNL     1      10.590  11.560  17.996  0.00  0.00    +0.000 C 
BRANCH  18  19
ATOM     19  O   UNL     1      10.844  12.935  18.281  0.00  0.00    +0.000 OA
BRANCH  19  20
ATOM     20  C   UNL     1      11.559  13.164  19.501  0.00  0.00    +0.000 C 
ATOM     21  C   UNL     1      10.613  13.493  20.652  0.00  0.00    +0.000 C 
ATOM     22  C   UNL     1      12.333  11.888  19.828  0.00  0.00    +0.000 C 
ENDBRANCH  19  20
ENDBRANCH  18  19
ENDBRANCH  17  18
ENDBRANCH  16  17
ENDBRANCH   4  16
TORSDOF 10
ENDMDL
MODEL 3
REMARK VINA RESULT:      -6.1      1.508      1.852
REMARK  Name = 
REMARK  15 active torsions:
REMARK  status: ('A' for Active; 'I' for Inactive)
REMARK    1  A    between atoms: C_1  and  C_2
REMARK    2  A    between atoms: C_2  and  C_3
REMARK    3  A    between atoms: C_3  and  C_4
REMARK    4  A    between atoms: C_3  and  C_5
REMARK    5  A    between atoms: C_5  and  N_6
REMARK    6  A    between atoms: C_5  and  C_17
REMARK    7  A    between atoms: N_9  and  C_10
REMARK    8  A    between atoms: C_10  and  C_11
REMARK    9  A    between atoms: C_11  and  C_12
REMARK   10  A    between atoms: C_12  and  O_13
REMARK   11  A    between atoms: O_13  and  C_14
REMARK   12  A    between atoms: C_14  and  C_15
REMARK   13  A    between atoms: C_14  and  C_16
REMARK   14  A    between atoms: C_17  and  O_19
REMARK   15  A    between atoms: O_19  and  C_20
REMARK                            x       y       z     vdW  Elec       q    Type
REMARK                         _______ _______ _______ _____ _____    ______ ____
ROOT
ATOM      1  N   UNL     1       5.705   4.208  17.950  0.00  0.00    +0.000 N 
ATOM      2  C   UNL     1       4.564   3.558  17.561  0.00  0.00    +0.000 C 
ATOM      3  O   UNL     1       3.905   3.911  16.587  0.00  0.00    +0.000 OA
ATOM      4  N   UNL     1       4.211   2.535  18.387  0.00  0.00    +0.000 N 
ATOM      5  H   UNL     1       6.343   3.745  18.578  0.00  0.00    +0.000 HD
ATOM      6  H   UNL     1       4.822   2.266  19.142  0.00  0.00    +0.000 HD
ENDROOT
BRANCH   1   7
ATOM      7  C   UNL     1       6.182   5.372  17.196  0.00  0.00    +0.000 C 
BRANCH   7   8
ATOM      8  C   UNL     1       6.882   6.428  18.103  0.00  0.00    +0.000 C 
ATOM      9  C   UNL     1       7.848   5.804  19.119  0.00  0.00    +0.000 C 
BRANCH   8  11
ATOM     10  C   UNL     1       8.152   8.672  18.072  0.00  0.00    +0.000 C 
ATOM     11  C   UNL     1       7.576   7.518  17.256  0.00  0.00    +0.000 C 
ENDBRANCH   8  11
ENDBRANCH   7   8
BRANCH   7  12
ATOM     12  C   UNL     1       7.064   4.901  16.031  0.00  0.00    +0.000 C 
ATOM     13  O   UNL     1       8.050   4.184  16.141  0.00  0.00    +0.000 OA
BRANCH  12  14
ATOM     14  O   UNL     1       6.553   5.355  14.848  0.00  0.00    +0.000 OA
ATOM     15  C   UNL     1       6.550   4.410  13.779  0.00  0.00    +0.000 C 
ENDBRANCH  12  14
ENDBRANCH   7  12
ENDBRANCH   1   7
BRANCH   4  16
ATOM     16  C   UNL     1       2.964   1.822  18.190  0.00  0.00    +0.000 C 
BRANCH  16  17
ATOM     17  C   UNL     1       2.007   2.010  19.363  0.00  0.00    +0.000 C 
BRANCH  17  18
ATOM     18  C   UNL     1       0.916   3.020  19.022  0.00  0.00    +0.000 C 
BRANCH  18  19
ATOM     19  O   UNL     1       1.503   4.261  18.634  0.00  0.00    +0.000 OA
BRANCH  19  20
ATOM     20  C   UNL     1       2.180   4.951  19.690  0.00  0.00    +0.000 C 
ATOM     21  C   UNL     1       2.860   6.221  19.186  0.00  0.00    +0.000 C 
ATOM     22  C   UNL     1       1.137   5.317  20.745  0.00  0.00    +0.000 C 
ENDBRANCH  19  20
ENDBRANCH  18  19
ENDBRANCH  17  18
ENDBRANCH  16  17
ENDBRANCH   4  16
TORSDOF 10
ENDMDL
MODEL 4
REMARK VINA RESULT:      -6.0      0.923      1.146
REMARK  Name = 
REMARK  15 active torsions:
REMARK  status: ('A' for Active; 'I' for Inactive)
REMARK    1  A    between atoms: C_1  and  C_2
REMARK    2  A    between atoms: C_2  and  C_3
REMARK    3  A    between atoms: C_3  and  C_4
REMARK    4  A    between atoms: C_3  and  C_5
REMARK    5  A    between atoms: C_5  and  N_6
REMARK    6  A    between atoms: C_5  and  C_17
REMARK    7  A    between atoms: N_9  and  C_10
REMARK    8  A    between atoms: C_10  and  C_11
REMARK    9  A    between atoms: C_11  and  C_12
REMARK   10  A    between atoms: C_12  and  O_13
REMARK   11  A    between atoms: O_13  and  C_14
REMARK   12  A    between atoms: C_14  and  C_15
REMARK   13  A    between atoms: C_14  and  C_16
REMARK   14  A    between atoms: C_17  and  O_19
REMARK   15  A    between atoms: O_19  and  C_20
REMARK                            x       y       z     vdW  Elec       q    Type
REMARK                         _______ _______ _______ _____ _____    ______ ____
ROOT
ATOM      1  N   UNL     1       5.858   3.782  16.443  0.00  0.00    +0.000 N 
ATOM      2  C   UNL     1       4.697   3.713  17.166  0.00  0.00    +0.000 C 
ATOM      3  O   UNL     1       3.968   4.687  17.335  0.00  0.00    +0.000 OA
ATOM      4  N   UNL     1       4.470   2.490  17.718  0.00  0.00    +0.000 N 
ATOM      5  H   UNL     1       6.283   2.928  16.116  0.00  0.00    +0.000 HD
ATOM      6  H   UNL     1       5.083   1.720  17.502  0.00  0.00    +0.000 HD
ENDROOT
BRANCH   1   7
ATOM      7  C   UNL     1       6.273   5.051  15.836  0.00  0.00    +0.000 C 
BRANCH   7   8
ATOM      8  C   UNL     1       7.155   5.911  16.790  0.00  0.00    +0.000 C 
ATOM      9  C   UNL     1       6.452   7.185  17.275  0.00  0.00    +0.000 C 
BRANCH   8  11
ATOM     10  C   UNL     1       7.310   5.617  19.347  0.00  0.00    +0.000 C 
ATOM     11  C   UNL     1       7.684   5.069  17.972  0.00  0.00    +0.000 C 
ENDBRANCH   8  11
ENDBRANCH   7   8
BRANCH   7  12
ATOM     12  C   UNL     1       6.943   4.775  14.483  0.00  0.00    +0.000 C 
ATOM     13  O   UNL     1       7.810   5.473  13.973  0.00  0.00    +0.000 OA
BRANCH  12  14
ATOM     14  O   UNL     1       6.468   3.607  13.958  0.00  0.00    +0.000 OA
ATOM     15  C   UNL     1       6.134   3.649  12.571  0.00  0.00    +0.000 C 
ENDBRANCH  12  14
ENDBRANCH   7  12
ENDBRANCH   1   7
BRANCH   4  16
ATOM     16  C   UNL     1       3.351   2.279  18.616  0.00  0.00    +0.000 C 
BRANCH  16  17
ATOM     17  C   UNL     1       3.776   2.317  20.080  0.00  0.00    +0.000 C 
BRANCH  17  18
ATOM     18  C   UNL     1       2.615   2.739  20.976  0.00  0.00    +0.000 C 
BRANCH  18  19
ATOM     19  O   UNL     1       2.756   4.109  21.346  0.00  0.00    +0.000 OA
BRANCH  19  20
ATOM     20  C   UNL     1       1.704   4.961  20.877  0.00  0.00    +0.000 C 
ATOM     21  C   UNL     1       2.235   6.050  19.949  0.00  0.00    +0.000 C 
ATOM     22  C   UNL     1       0.708   4.087  20.118  0.00  0.00    +0.000 C 
ENDBRANCH  19  20
ENDBRANCH  18  19
ENDBRANCH  17  18
ENDBRANCH  16  17
ENDBRANCH   4  16
TORSDOF 10
ENDMDL
MODEL 5
REMARK VINA RESULT:      -6.0      1.388      1.847
REMARK  Name = 
REMARK  15 active torsions:
REMARK  status: ('A' for Active; 'I' for Inactive)
REMARK    1  A    between atoms: C_1  and  C_2
REMARK    2  A    between atoms: C_2  and  C_3
REMARK    3  A    between atoms: C_3  and  C_4
REMARK    4  A    between atoms: C_3  and  C_5
REMARK    5  A    between atoms: C_5  and  N_6
REMARK    6  A    between atoms: C_5  and  C_17
REMARK    7  A    between atoms: N_9  and  C_10
REMARK    8  A    between atoms: C_10  and  C_11
REMARK    9  A    between atoms: C_11  and  C_12
REMARK   10  A    between atoms: C_12  and  O_13
REMARK   11  A    between atoms: O_13  and  C_14
REMARK   12  A    between atoms: C_14  and  C_15
REMARK   13  A    between atoms: C_14  and  C_16
REMARK   14  A    between atoms: C_17  and  O_19
REMARK   15  A    between atoms: O_19  and  C_20
REMARK                            x       y       z     vdW  Elec       q    Type
REMARK                         _______ _______ _______ _____ _____    ______ ____
ROOT
ATOM      1  N   UNL     1       5.783   3.924  17.193  0.00  0.00    +0.000 N 
ATOM      2  C   UNL     1       4.455   3.617  17.063  0.00  0.00    +0.000 C 
ATOM      3  O   UNL     1       3.666   4.346  16.467  0.00  0.00    +0.000 OA
ATOM      4  N   UNL     1       4.095   2.470  17.701  0.00  0.00    +0.000 N 
ATOM      5  H   UNL     1       6.431   3.196  17.453  0.00  0.00    +0.000 HD
ATOM      6  H   UNL     1       4.800   1.893  18.131  0.00  0.00    +0.000 HD
ENDROOT
BRANCH   1   7
ATOM      7  C   UNL     1       6.313   5.162  16.613  0.00  0.00    +0.000 C 
BRANCH   7   8
ATOM      8  C   UNL     1       7.263   5.922  17.586  0.00  0.00    +0.000 C 
ATOM      9  C   UNL     1       7.254   7.441  17.373  0.00  0.00    +0.000 C 
BRANCH   8  11
ATOM     10  C   UNL     1       8.192   5.569  19.965  0.00  0.00    +0.000 C 
ATOM     11  C   UNL     1       6.966   5.553  19.056  0.00  0.00    +0.000 C 
ENDBRANCH   8  11
ENDBRANCH   7   8
BRANCH   7  12
ATOM     12  C   UNL     1       6.963   4.854  15.256  0.00  0.00    +0.000 C 
ATOM     13  O   UNL     1       7.856   5.512  14.739  0.00  0.00    +0.000 OA
BRANCH  12  14
ATOM     14  O   UNL     1       6.434   3.706  14.737  0.00  0.00    +0.000 OA
ATOM     15  C   UNL     1       6.112   3.753  13.348  0.00  0.00    +0.000 C 
ENDBRANCH  12  14
ENDBRANCH   7  12
ENDBRANCH   1   7
BRANCH   4  16
ATOM     16  C   UNL     1       2.704   2.066  17.767  0.00  0.00    +0.000 C 
BRANCH  16  17
ATOM     17  C   UNL     1       2.218   1.920  19.206  0.00  0.00    +0.000 C 
BRANCH  17  18
ATOM     18  C   UNL     1       1.159   2.969  19.533  0.00  0.00    +0.000 C 
BRANCH  18  19
ATOM     19  O   UNL     1       1.557   4.241  19.024  0.00  0.00    +0.000 OA
BRANCH  19  20
ATOM     20  C   UNL     1       1.926   5.192  20.029  0.00  0.00    +0.000 C 
ATOM     21  C   UNL     1       2.254   4.509  21.354  0.00  0.00    +0.000 C 
ATOM     22  C   UNL     1       3.158   5.941  19.525  0.00  0.00    +0.000 C 
ENDBRANCH  19  20
ENDBRANCH  18  19
ENDBRANCH  17  18
ENDBRANCH  16  17
ENDBRANCH   4  16
TORSDOF 10
ENDMDL
MODEL 6
REMARK VINA RESULT:      -5.8      1.739      6.047
REMARK  Name = 
REMARK  15 active torsions:
REMARK  status: ('A' for Active; 'I' for Inactive)
REMARK    1  A    between atoms: C_1  and  C_2
REMARK    2  A    between atoms: C_2  and  C_3
REMARK    3  A    between atoms: C_3  and  C_4
REMARK    4  A    between atoms: C_3  and  C_5
REMARK    5  A    between atoms: C_5  and  N_6
REMARK    6  A    between atoms: C_5  and  C_17
REMARK    7  A    between atoms: N_9  and  C_10
REMARK    8  A    between atoms: C_10  and  C_11
REMARK    9  A    between atoms: C_11  and  C_12
REMARK   10  A    between atoms: C_12  and  O_13
REMARK   11  A    between atoms: O_13  and  C_14
REMARK   12  A    between atoms: C_14  and  C_15
REMARK   13  A    between atoms: C_14  and  C_16
REMARK   14  A    between atoms: C_17  and  O_19
REMARK   15  A    between atoms: O_19  and  C_20
REMARK                            x       y       z     vdW  Elec       q    Type
REMARK                         _______ _______ _______ _____ _____    ______ ____
ROOT
ATOM      1  N   UNL     1       2.856   4.957  18.247  0.00  0.00    +0.000 N 
ATOM      2  C   UNL     1       4.072   4.358  18.050  0.00  0.00    +0.000 C 
ATOM      3  O   UNL     1       4.925   4.295  18.931  0.00  0.00    +0.000 OA
ATOM      4  N   UNL     1       4.255   3.901  16.781  0.00  0.00    +0.000 N 
ATOM      5  H   UNL     1       2.105   4.763  17.603  0.00  0.00    +0.000 HD
ATOM      6  H   UNL     1       3.497   3.940  16.118  0.00  0.00    +0.000 HD
ENDROOT
BRANCH   1   7
ATOM      7  C   UNL     1       2.532   5.555  19.546  0.00  0.00    +0.000 C 
BRANCH   7   8
ATOM      8  C   UNL     1       1.863   6.955  19.411  0.00  0.00    +0.000 C 
ATOM      9  C   UNL     1       1.738   7.695  20.749  0.00  0.00    +0.000 C 
BRANCH   8  11
ATOM     10  C   UNL     1       1.785   9.031  17.883  0.00  0.00    +0.000 C 
ATOM     11  C   UNL     1       2.584   7.818  18.351  0.00  0.00    +0.000 C 
ENDBRANCH   8  11
ENDBRANCH   7   8
BRANCH   7  12
ATOM     12  C   UNL     1       1.696   4.566  20.370  0.00  0.00    +0.000 C 
ATOM     13  O   UNL     1       0.570   4.184  20.078  0.00  0.00    +0.000 OA
BRANCH  12  14
ATOM     14  O   UNL     1       2.415   4.133  21.448  0.00  0.00    +0.000 OA
ATOM     15  C   UNL     1       2.622   2.723  21.521  0.00  0.00    +0.000 C 
ENDBRANCH  12  14
ENDBRANCH   7  12
ENDBRANCH   1   7
BRANCH   4  16
ATOM     16  C   UNL     1       5.533   3.352  16.370  0.00  0.00    +0.000 C 
BRANCH  16  17
ATOM     17  C   UNL     1       6.013   3.948  15.050  0.00  0.00    +0.000 C 
BRANCH  17  18
ATOM     18  C   UNL     1       7.041   5.050  15.289  0.00  0.00    +0.000 C 
BRANCH  18  19
ATOM     19  O   UNL     1       7.395   5.096  16.670  0.00  0.00    +0.000 OA
BRANCH  19  20
ATOM     20  C   UNL     1       7.422   6.414  17.229  0.00  0.00    +0.000 C 
ATOM     21  C   UNL     1       6.069   7.108  17.099  0.00  0.00    +0.000 C 
ATOM     22  C   UNL     1       7.784   6.281  18.707  0.00  0.00    +0.000 C 
ENDBRANCH  19  20
ENDBRANCH  18  19
ENDBRANCH  17  18
ENDBRANCH  16  17
ENDBRANCH   4  16
TORSDOF 10
ENDMDL
MODEL 7
REMARK VINA RESULT:      -5.7      3.908      7.645
REMARK  Name = 
REMARK  15 active torsions:
REMARK  status: ('A' for Active; 'I' for Inactive)
REMARK    1  A    between atoms: C_1  and  C_2
REMARK    2  A    between atoms: C_2  and  C_3
REMARK    3  A    between atoms: C_3  and  C_4
REMARK    4  A    between atoms: C_3  and  C_5
REMARK    5  A    between atoms: C_5  and  N_6
REMARK    6  A    between atoms: C_5  and  C_17
REMARK    7  A    between atoms: N_9  and  C_10
REMARK    8  A    between atoms: C_10  and  C_11
REMARK    9  A    between atoms: C_11  and  C_12
REMARK   10  A    between atoms: C_12  and  O_13
REMARK   11  A    between atoms: O_13  and  C_14
REMARK   12  A    between atoms: C_14  and  C_15
REMARK   13  A    between atoms: C_14  and  C_16
REMARK   14  A    between atoms: C_17  and  O_19
REMARK   15  A    between atoms: O_19  and  C_20
REMARK                            x       y       z     vdW  Elec       q    Type
REMARK                         _______ _______ _______ _____ _____    ______ ____
ROOT
ATOM      1  N   UNL     1       6.815   7.278  16.909  0.00  0.00    +0.000 N 
ATOM      2  C   UNL     1       7.724   7.651  17.862  0.00  0.00    +0.000 C 
ATOM      3  O   UNL     1       8.185   6.857  18.679  0.00  0.00    +0.000 OA
ATOM      4  N   UNL     1       8.014   8.980  17.849  0.00  0.00    +0.000 N 
ATOM      5  H   UNL     1       6.664   7.880  16.114  0.00  0.00    +0.000 HD
ATOM      6  H   UNL     1       7.638   9.569  17.122  0.00  0.00    +0.000 HD
ENDROOT
BRANCH   1   7
ATOM      7  C   UNL     1       6.354   5.887  16.835  0.00  0.00    +0.000 C 
BRANCH   7   8
ATOM      8  C   UNL     1       4.841   5.738  17.171  0.00  0.00    +0.000 C 
ATOM      9  C   UNL     1       4.581   4.869  18.407  0.00  0.00    +0.000 C 
BRANCH   8  11
ATOM     10  C   UNL     1       2.907   7.123  18.167  0.00  0.00    +0.000 C 
ATOM     11  C   UNL     1       4.159   7.119  17.295  0.00  0.00    +0.000 C 
ENDBRANCH   8  11
ENDBRANCH   7   8
BRANCH   7  12
ATOM     12  C   UNL     1       6.728   5.297  15.467  0.00  0.00    +0.000 C 
ATOM     13  O   UNL     1       7.780   5.502  14.877  0.00  0.00    +0.000 OA
BRANCH  12  14
ATOM     14  O   UNL     1       5.735   4.466  15.032  0.00  0.00    +0.000 OA
ATOM     15  C   UNL     1       5.963   3.847  13.768  0.00  0.00    +0.000 C 
ENDBRANCH  12  14
ENDBRANCH   7  12
ENDBRANCH   1   7
BRANCH   4  16
ATOM     16  C   UNL     1       8.862   9.563  18.871  0.00  0.00    +0.000 C 
BRANCH  16  17
ATOM     17  C   UNL     1       9.603  10.797  18.364  0.00  0.00    +0.000 C 
BRANCH  17  18
ATOM     18  C   UNL     1       8.635  11.946  18.101  0.00  0.00    +0.000 C 
BRANCH  18  19
ATOM     19  O   UNL     1       9.281  12.966  17.342  0.00  0.00    +0.000 OA
BRANCH  19  20
ATOM     20  C   UNL     1      10.631  13.233  17.740  0.00  0.00    +0.000 C 
ATOM     21  C   UNL     1      11.550  13.399  16.532  0.00  0.00    +0.000 C 
ATOM     22  C   UNL     1      10.625  14.525  18.555  0.00  0.00    +0.000 C 
ENDBRANCH  19  20
ENDBRANCH  18  19
ENDBRANCH  17  18
ENDBRANCH  16  17
ENDBRANCH   4  16
TORSDOF 10
ENDMDL
MODEL 8
REMARK VINA RESULT:      -5.7      2.128      3.360
REMARK  Name = 
REMARK  15 active torsions:
REMARK  status: ('A' for Active; 'I' for Inactive)
REMARK    1  A    between atoms: C_1  and  C_2
REMARK    2  A    between atoms: C_2  and  C_3
REMARK    3  A    between atoms: C_3  and  C_4
REMARK    4  A    between atoms: C_3  and  C_5
REMARK    5  A    between atoms: C_5  and  N_6
REMARK    6  A    between atoms: C_5  and  C_17
REMARK    7  A    between atoms: N_9  and  C_10
REMARK    8  A    between atoms: C_10  and  C_11
REMARK    9  A    between atoms: C_11  and  C_12
REMARK   10  A    between atoms: C_12  and  O_13
REMARK   11  A    between atoms: O_13  and  C_14
REMARK   12  A    between atoms: C_14  and  C_15
REMARK   13  A    between atoms: C_14  and  C_16
REMARK   14  A    between atoms: C_17  and  O_19
REMARK   15  A    between atoms: O_19  and  C_20
REMARK                            x       y       z     vdW  Elec       q    Type
REMARK                         _______ _______ _______ _____ _____    ______ ____
ROOT
ATOM      1  N   UNL     1       5.392   4.626  18.637  0.00  0.00    +0.000 N 
ATOM      2  C   UNL     1       4.856   3.531  18.016  0.00  0.00    +0.000 C 
ATOM      3  O   UNL     1       4.950   3.349  16.805  0.00  0.00    +0.000 OA
ATOM      4  N   UNL     1       4.169   2.709  18.856  0.00  0.00    +0.000 N 
ATOM      5  H   UNL     1       5.519   4.610  19.638  0.00  0.00    +0.000 HD
ATOM      6  H   UNL     1       4.170   2.890  19.848  0.00  0.00    +0.000 HD
ENDROOT
BRANCH   1   7
ATOM      7  C   UNL     1       6.110   5.638  17.855  0.00  0.00    +0.000 C 
BRANCH   7   8
ATOM      8  C   UNL     1       5.165   6.737  17.284  0.00  0.00    +0.000 C 
ATOM      9  C   UNL     1       5.037   6.687  15.756  0.00  0.00    +0.000 C 
BRANCH   8  11
ATOM     10  C   UNL     1       2.947   7.957  17.775  0.00  0.00    +0.000 C 
ATOM     11  C   UNL     1       3.782   6.695  17.971  0.00  0.00    +0.000 C 
ENDBRANCH   8  11
ENDBRANCH   7   8
BRANCH   7  12
ATOM     12  C   UNL     1       7.261   6.212  18.694  0.00  0.00    +0.000 C 
ATOM     13  O   UNL     1       8.013   7.109  18.335  0.00  0.00    +0.000 OA
BRANCH  12  14
ATOM     14  O   UNL     1       7.287   5.611  19.921  0.00  0.00    +0.000 OA
ATOM     15  C   UNL     1       8.579   5.229  20.389  0.00  0.00    +0.000 C 
ENDBRANCH  12  14
ENDBRANCH   7  12
ENDBRANCH   1   7
BRANCH   4  16
ATOM     16  C   UNL     1       3.434   1.570  18.341  0.00  0.00    +0.000 C 
BRANCH  16  17
ATOM     17  C   UNL     1       2.097   1.979  17.733  0.00  0.00    +0.000 C 
BRANCH  17  18
ATOM     18  C   UNL     1       1.083   2.320  18.821  0.00  0.00    +0.000 C 
BRANCH  18  19
ATOM     19  O   UNL     1       1.150   3.711  19.132  0.00  0.00    +0.000 OA
BRANCH  19  20
ATOM     20  C   UNL     1       1.096   4.007  20.532  0.00  0.00    +0.000 C 
ATOM     21  C   UNL     1       1.378   2.769  21.379  0.00  0.00    +0.000 C 
ATOM     22  C   UNL     1       2.153   5.071  20.820  0.00  0.00    +0.000 C 
ENDBRANCH  19  20
ENDBRANCH  18  19
ENDBRANCH  17  18
ENDBRANCH  16  17
ENDBRANCH   4  16
TORSDOF 10
ENDMDL
MODEL 9
REMARK VINA RESULT:      -5.7      1.999      5.951
REMARK  Name = 
REMARK  15 active torsions:
REMARK  status: ('A' for Active; 'I' for Inactive)
REMARK    1  A    between atoms: C_1  and  C_2
REMARK    2  A    between atoms: C_2  and  C_3
REMARK    3  A    between atoms: C_3  and  C_4
REMARK    4  A    between atoms: C_3  and  C_5
REMARK    5  A    between atoms: C_5  and  N_6
REMARK    6  A    between atoms: C_5  and  C_17
REMARK    7  A    between atoms: N_9  and  C_10
REMARK    8  A    between atoms: C_10  and  C_11
REMARK    9  A    between atoms: C_11  and  C_12
REMARK   10  A    between atoms: C_12  and  O_13
REMARK   11  A    between atoms: O_13  and  C_14
REMARK   12  A    between atoms: C_14  and  C_15
REMARK   13  A    between atoms: C_14  and  C_16
REMARK   14  A    between atoms: C_17  and  O_19
REMARK   15  A    between atoms: O_19  and  C_20
REMARK                            x       y       z     vdW  Elec       q    Type
REMARK                         _______ _______ _______ _____ _____    ______ ____
ROOT
ATOM      1  N   UNL     1       3.495   4.800  19.008  0.00  0.00    +0.000 N 
ATOM      2  C   UNL     1       4.853   4.659  19.115  0.00  0.00    +0.000 C 
ATOM      3  O   UNL     1       5.380   3.605  19.462  0.00  0.00    +0.000 OA
ATOM      4  N   UNL     1       5.542   5.804  18.859  0.00  0.00    +0.000 N 
ATOM      5  H   UNL     1       3.123   5.577  18.483  0.00  0.00    +0.000 HD
ATOM      6  H   UNL     1       5.053   6.622  18.532  0.00  0.00    +0.000 HD
ENDROOT
BRANCH   1   7
ATOM      7  C   UNL     1       2.611   3.671  19.312  0.00  0.00    +0.000 C 
BRANCH   7   8
ATOM      8  C   UNL     1       1.597   3.993  20.450  0.00  0.00    +0.000 C 
ATOM      9  C   UNL     1       1.354   2.808  21.394  0.00  0.00    +0.000 C 
BRANCH   8  11
ATOM     10  C   UNL     1       1.246   6.518  20.835  0.00  0.00    +0.000 C 
ATOM     11  C   UNL     1       2.016   5.260  21.228  0.00  0.00    +0.000 C 
ENDBRANCH   8  11
ENDBRANCH   7   8
BRANCH   7  12
ATOM     12  C   UNL     1       1.933   3.189  18.022  0.00  0.00    +0.000 C 
ATOM     13  O   UNL     1       1.332   3.907  17.234  0.00  0.00    +0.000 OA
BRANCH  12  14
ATOM     14  O   UNL     1       2.148   1.850  17.855  0.00  0.00    +0.000 OA
ATOM     15  C   UNL     1       3.457   1.392  18.192  0.00  0.00    +0.000 C 
ENDBRANCH  12  14
ENDBRANCH   7  12
ENDBRANCH   1   7
BRANCH   4  16
ATOM     16  C   UNL     1       6.979   5.861  19.049  0.00  0.00    +0.000 C 
BRANCH  16  17
ATOM     17  C   UNL     1       7.705   6.316  17.787  0.00  0.00    +0.000 C 
BRANCH  17  18
ATOM     18  C   UNL     1       7.422   5.371  16.623  0.00  0.00    +0.000 C 
BRANCH  18  19
ATOM     19  O   UNL     1       6.437   5.939  15.761  0.00  0.00    +0.000 OA
BRANCH  19  20
ATOM     20  C   UNL     1       5.742   4.986  14.950  0.00  0.00    +0.000 C 
ATOM     21  C   UNL     1       6.612   4.485  13.801  0.00  0.00    +0.000 C 
ATOM     22  C   UNL     1       5.357   3.810  15.846  0.00  0.00    +0.000 C 
ENDBRANCH  19  20
ENDBRANCH  18  19
ENDBRANCH  17  18
ENDBRANCH  16  17
ENDBRANCH   4  16
TORSDOF 10
ENDMDL
