MODEL 1
REMARK VINA RESULT:      -6.0      0.000      0.000
REMARK  Name = 
REMARK  4 active torsions:
REMARK  status: ('A' for Active; 'I' for Inactive)
REMARK    1  A    between atoms: C_1  and  C_2
REMARK    2  A    between atoms: C_2  and  O_3
REMARK    3  A    between atoms: O_3  and  N_4
REMARK    4  A    between atoms: N_6  and  C_7
REMARK                            x       y       z     vdW  Elec       q    Type
REMARK                         _______ _______ _______ _____ _____    ______ ____
ROOT
ATOM      1  C   UNL     1       4.859   4.392  16.995  0.00  0.00    +0.000 A 
ATOM      2  C   UNL     1       3.723   3.635  17.319  0.00  0.00    +0.000 A 
ATOM      3  C   UNL     1       2.572   4.240  17.829  0.00  0.00    +0.000 A 
ATOM      4 CL   UNL     1       1.185   3.283  18.178  0.00  0.00    +0.000 Cl
ATOM      5  C   UNL     1       2.533   5.614  18.046  0.00  0.00    +0.000 A 
ATOM      6  C   UNL     1       3.660   6.385  17.767  0.00  0.00    +0.000 A 
ATOM      7  C   UNL     1       4.810   5.779  17.252  0.00  0.00    +0.000 A 
ATOM      8 CL   UNL     1       6.178   6.784  16.908  0.00  0.00    +0.000 Cl
ENDROOT
BRANCH   1  11
ATOM      9  N   UNL     1       5.569   4.125  14.064  0.00  0.00    +0.000 NA
ATOM     10  C   UNL     1       6.322   3.820  15.063  0.00  0.00    +0.000 C 
ATOM     11  N   UNL     1       6.010   3.829  16.398  0.00  0.00    +0.000 N 
ATOM     12  H   UNL     1       6.772   3.680  17.050  0.00  0.00    +0.000 HD
BRANCH   9  13
ATOM     13  O   UNL     1       6.274   4.015  12.860  0.00  0.00    +0.000 OA
BRANCH  13  15
ATOM     14  C   UNL     1       4.413   3.328  11.513  0.00  0.00    +0.000 C 
ATOM     15  C   UNL     1       5.722   2.908  12.145  0.00  0.00    +0.000 C 
ENDBRANCH  13  15
ENDBRANCH   9  13
ENDBRANCH   1  11
TORSDOF 3
ENDMDL
MODEL 2
REMARK VINA RESULT:      -5.9      3.351      4.572
REMARK  Name = 
REMARK  4 active torsions:
REMARK  status: ('A' for Active; 'I' for Inactive)
REMARK    1  A    between atoms: C_1  and  C_2
REMARK    2  A    between atoms: C_2  and  O_3
REMARK    3  A    between atoms: O_3  and  N_4
REMARK    4  A    between atoms: N_6  and  C_7
REMARK                            x       y       z     vdW  Elec       q    Type
REMARK                         _______ _______ _______ _____ _____    ______ ____
ROOT
ATOM      1  C   UNL     1       5.137   4.645  18.370  0.00  0.00    +0.000 A 
ATOM      2  C   UNL     1       4.208   4.937  19.380  0.00  0.00    +0.000 A 
ATOM      3  C   UNL     1       2.870   4.556  19.264  0.00  0.00    +0.000 A 
ATOM      4 CL   UNL     1       1.769   4.899  20.542  0.00  0.00    +0.000 Cl
ATOM      5  C   UNL     1       2.421   3.890  18.128  0.00  0.00    +0.000 A 
ATOM      6  C   UNL     1       3.313   3.620  17.093  0.00  0.00    +0.000 A 
ATOM      7  C   UNL     1       4.654   3.998  17.212  0.00  0.00    +0.000 A 
ATOM      8 CL   UNL     1       5.727   3.624  15.903  0.00  0.00    +0.000 Cl
ENDROOT
BRANCH   1  11
ATOM      9  N   UNL     1       6.728   6.923  17.169  0.00  0.00    +0.000 NA
ATOM     10  C   UNL     1       7.166   6.040  17.997  0.00  0.00    +0.000 C 
ATOM     11  N   UNL     1       6.515   4.937  18.487  0.00  0.00    +0.000 N 
ATOM     12  H   UNL     1       6.976   4.423  19.231  0.00  0.00    +0.000 HD
BRANCH   9  13
ATOM     13  O   UNL     1       7.693   7.911  16.943  0.00  0.00    +0.000 OA
BRANCH  13  15
ATOM     14  C   UNL     1       8.623   9.716  18.218  0.00  0.00    +0.000 C 
ATOM     15  C   UNL     1       8.262   8.246  18.210  0.00  0.00    +0.000 C 
ENDBRANCH  13  15
ENDBRANCH   9  13
ENDBRANCH   1  11
TORSDOF 3
ENDMDL
MODEL 3
REMARK VINA RESULT:      -5.9      3.543      5.451
REMARK  Name = 
REMARK  4 active torsions:
REMARK  status: ('A' for Active; 'I' for Inactive)
REMARK    1  A    between atoms: C_1  and  C_2
REMARK    2  A    between atoms: C_2  and  O_3
REMARK    3  A    between atoms: O_3  and  N_4
REMARK    4  A    between atoms: N_6  and  C_7
REMARK                            x       y       z     vdW  Elec       q    Type
REMARK                         _______ _______ _______ _____ _____    ______ ____
ROOT
ATOM      1  C   UNL     1       5.161   4.173  17.637  0.00  0.00    +0.000 A 
ATOM      2  C   UNL     1       5.642   3.774  16.380  0.00  0.00    +0.000 A 
ATOM      3  C   UNL     1       5.724   4.678  15.318  0.00  0.00    +0.000 A 
ATOM      4 CL   UNL     1       6.356   4.160  13.803  0.00  0.00    +0.000 Cl
ATOM      5  C   UNL     1       5.311   5.997  15.479  0.00  0.00    +0.000 A 
ATOM      6  C   UNL     1       4.795   6.410  16.705  0.00  0.00    +0.000 A 
ATOM      7  C   UNL     1       4.717   5.507  17.769  0.00  0.00    +0.000 A 
ATOM      8 CL   UNL     1       4.082   6.075  19.278  0.00  0.00    +0.000 Cl
ENDROOT
BRANCH   1  11
ATOM      9  N   UNL     1       2.807   2.849  19.005  0.00  0.00    +0.000 NA
ATOM     10  C   UNL     1       4.052   2.665  19.279  0.00  0.00    +0.000 C 
ATOM     11  N   UNL     1       5.142   3.313  18.759  0.00  0.00    +0.000 N 
ATOM     12  H   UNL     1       6.055   2.945  19.002  0.00  0.00    +0.000 HD
BRANCH   9  13
ATOM     13  O   UNL     1       2.003   1.963  19.731  0.00  0.00    +0.000 OA
BRANCH  13  15
ATOM     14  C   UNL     1       0.916   3.988  20.414  0.00  0.00    +0.000 C 
ATOM     15  C   UNL     1       1.510   2.673  20.869  0.00  0.00    +0.000 C 
ENDBRANCH  13  15
ENDBRANCH   9  13
ENDBRANCH   1  11
TORSDOF 3
ENDMDL
MODEL 4
REMARK VINA RESULT:      -5.8      3.750      4.882
REMARK  Name = 
REMARK  4 active torsions:
REMARK  status: ('A' for Active; 'I' for Inactive)
REMARK    1  A    between atoms: C_1  and  C_2
REMARK    2  A    between atoms: C_2  and  O_3
REMARK    3  A    between atoms: O_3  and  N_4
REMARK    4  A    between atoms: N_6  and  C_7
REMARK                            x       y       z     vdW  Elec       q    Type
REMARK                         _______ _______ _______ _____ _____    ______ ____
ROOT
ATOM      1  C   UNL     1       3.180   4.157  18.614  0.00  0.00    +0.000 A 
ATOM      2  C   UNL     1       2.689   5.337  19.195  0.00  0.00    +0.000 A 
ATOM      3  C   UNL     1       1.785   5.296  20.258  0.00  0.00    +0.000 A 
ATOM      4 CL   UNL     1       1.236   6.764  20.970  0.00  0.00    +0.000 Cl
ATOM      5  C   UNL     1       1.334   4.078  20.756  0.00  0.00    +0.000 A 
ATOM      6  C   UNL     1       1.776   2.892  20.173  0.00  0.00    +0.000 A 
ATOM      7  C   UNL     1       2.685   2.933  19.111  0.00  0.00    +0.000 A 
ATOM      8 CL   UNL     1       3.216   1.430  18.433  0.00  0.00    +0.000 Cl
ENDROOT
BRANCH   1  11
ATOM      9  N   UNL     1       6.160   4.654  18.810  0.00  0.00    +0.000 NA
ATOM     10  C   UNL     1       5.514   4.295  17.755  0.00  0.00    +0.000 C 
ATOM     11  N   UNL     1       4.160   4.156  17.594  0.00  0.00    +0.000 N 
ATOM     12  H   UNL     1       3.840   3.740  16.726  0.00  0.00    +0.000 HD
BRANCH   9  13
ATOM     13  O   UNL     1       7.540   4.643  18.573  0.00  0.00    +0.000 OA
BRANCH  13  15
ATOM     14  C   UNL     1       7.868   6.992  18.222  0.00  0.00    +0.000 C 
ATOM     15  C   UNL     1       8.081   5.827  19.163  0.00  0.00    +0.000 C 
ENDBRANCH  13  15
ENDBRANCH   9  13
ENDBRANCH   1  11
TORSDOF 3
ENDMDL
MODEL 5
REMARK VINA RESULT:      -5.8      1.282      2.440
REMARK  Name = 
REMARK  4 active torsions:
REMARK  status: ('A' for Active; 'I' for Inactive)
REMARK    1  A    between atoms: C_1  and  C_2
REMARK    2  A    between atoms: C_2  and  O_3
REMARK    3  A    between atoms: O_3  and  N_4
REMARK    4  A    between atoms: N_6  and  C_7
REMARK                            x       y       z     vdW  Elec       q    Type
REMARK                         _______ _______ _______ _____ _____    ______ ____
ROOT
ATOM      1  C   UNL     1       4.476   4.243  17.163  0.00  0.00    +0.000 A 
ATOM      2  C   UNL     1       4.300   5.636  17.169  0.00  0.00    +0.000 A 
ATOM      3  C   UNL     1       3.182   6.220  17.767  0.00  0.00    +0.000 A 
ATOM      4 CL   UNL     1       3.021   7.934  17.788  0.00  0.00    +0.000 Cl
ATOM      5  C   UNL     1       2.201   5.428  18.356  0.00  0.00    +0.000 A 
ATOM      6  C   UNL     1       2.331   4.041  18.331  0.00  0.00    +0.000 A 
ATOM      7  C   UNL     1       3.454   3.457  17.737  0.00  0.00    +0.000 A 
ATOM      8 CL   UNL     1       3.577   1.729  17.746  0.00  0.00    +0.000 Cl
ENDROOT
BRANCH   1  11
ATOM      9  N   UNL     1       5.564   4.254  14.338  0.00  0.00    +0.000 NA
ATOM     10  C   UNL     1       6.131   3.737  15.372  0.00  0.00    +0.000 C 
ATOM     11  N   UNL     1       5.634   3.620  16.644  0.00  0.00    +0.000 N 
ATOM     12  H   UNL     1       6.275   3.297  17.361  0.00  0.00    +0.000 HD
BRANCH   9  13
ATOM     13  O   UNL     1       6.418   4.207  13.230  0.00  0.00    +0.000 OA
BRANCH  13  15
ATOM     14  C   UNL     1       4.675   3.411  11.790  0.00  0.00    +0.000 C 
ATOM     15  C   UNL     1       6.011   3.097  12.426  0.00  0.00    +0.000 C 
ENDBRANCH  13  15
ENDBRANCH   9  13
ENDBRANCH   1  11
TORSDOF 3
ENDMDL
MODEL 6
REMARK VINA RESULT:      -5.8      2.779      3.585
REMARK  Name = 
REMARK  4 active torsions:
REMARK  status: ('A' for Active; 'I' for Inactive)
REMARK    1  A    between atoms: C_1  and  C_2
REMARK    2  A    between atoms: C_2  and  O_3
REMARK    3  A    between atoms: O_3  and  N_4
REMARK    4  A    between atoms: N_6  and  C_7
REMARK                            x       y       z     vdW  Elec       q    Type
REMARK                         _______ _______ _______ _____ _____    ______ ____
ROOT
ATOM      1  C   UNL     1       3.951   3.910  19.215  0.00  0.00    +0.000 A 
ATOM      2  C   UNL     1       3.420   5.097  19.742  0.00  0.00    +0.000 A 
ATOM      3  C   UNL     1       2.113   5.151  20.229  0.00  0.00    +0.000 A 
ATOM      4 CL   UNL     1       1.511   6.616  20.904  0.00  0.00    +0.000 Cl
ATOM      5  C   UNL     1       1.295   4.026  20.185  0.00  0.00    +0.000 A 
ATOM      6  C   UNL     1       1.784   2.844  19.633  0.00  0.00    +0.000 A 
ATOM      7  C   UNL     1       3.095   2.789  19.149  0.00  0.00    +0.000 A 
ATOM      8 CL   UNL     1       3.659   1.291  18.487  0.00  0.00    +0.000 Cl
ENDROOT
BRANCH   1  11
ATOM      9  N   UNL     1       5.305   5.073  16.770  0.00  0.00    +0.000 NA
ATOM     10  C   UNL     1       5.877   4.421  17.721  0.00  0.00    +0.000 C 
ATOM     11  N   UNL     1       5.295   3.792  18.791  0.00  0.00    +0.000 N 
ATOM     12  H   UNL     1       5.916   3.436  19.510  0.00  0.00    +0.000 HD
BRANCH   9  13
ATOM     13  O   UNL     1       6.255   5.591  15.883  0.00  0.00    +0.000 OA
BRANCH  13  15
ATOM     14  C   UNL     1       6.222   4.092  14.012  0.00  0.00    +0.000 C 
ATOM     15  C   UNL     1       6.932   4.480  15.290  0.00  0.00    +0.000 C 
ENDBRANCH  13  15
ENDBRANCH   9  13
ENDBRANCH   1  11
TORSDOF 3
ENDMDL
MODEL 7
REMARK VINA RESULT:      -5.8      3.932      5.790
REMARK  Name = 
REMARK  4 active torsions:
REMARK  status: ('A' for Active; 'I' for Inactive)
REMARK    1  A    between atoms: C_1  and  C_2
REMARK    2  A    between atoms: C_2  and  O_3
REMARK    3  A    between atoms: O_3  and  N_4
REMARK    4  A    between atoms: N_6  and  C_7
REMARK                            x       y       z     vdW  Elec       q    Type
REMARK                         _______ _______ _______ _____ _____    ______ ____
ROOT
ATOM      1  C   UNL     1       5.593   4.347  18.308  0.00  0.00    +0.000 A 
ATOM      2  C   UNL     1       6.654   5.215  18.607  0.00  0.00    +0.000 A 
ATOM      3  C   UNL     1       6.830   6.409  17.906  0.00  0.00    +0.000 A 
ATOM      4 CL   UNL     1       8.121   7.467  18.328  0.00  0.00    +0.000 Cl
ATOM      5  C   UNL     1       5.962   6.758  16.876  0.00  0.00    +0.000 A 
ATOM      6  C   UNL     1       4.922   5.897  16.533  0.00  0.00    +0.000 A 
ATOM      7  C   UNL     1       4.744   4.703  17.239  0.00  0.00    +0.000 A 
ATOM      8 CL   UNL     1       3.426   3.675  16.784  0.00  0.00    +0.000 Cl
ENDROOT
BRANCH   1  11
ATOM      9  N   UNL     1       3.338   3.755  20.239  0.00  0.00    +0.000 NA
ATOM     10  C   UNL     1       4.239   2.926  19.841  0.00  0.00    +0.000 C 
ATOM     11  N   UNL     1       5.331   3.172  19.051  0.00  0.00    +0.000 N 
ATOM     12  H   UNL     1       5.862   2.367  18.735  0.00  0.00    +0.000 HD
BRANCH   9  13
ATOM     13  O   UNL     1       2.369   3.101  21.009  0.00  0.00    +0.000 OA
BRANCH  13  15
ATOM     14  C   UNL     1       0.688   2.693  19.348  0.00  0.00    +0.000 C 
ATOM     15  C   UNL     1       1.090   3.535  20.539  0.00  0.00    +0.000 C 
ENDBRANCH  13  15
ENDBRANCH   9  13
ENDBRANCH   1  11
TORSDOF 3
ENDMDL
MODEL 8
REMARK VINA RESULT:      -5.8      2.017      2.447
REMARK  Name = 
REMARK  4 active torsions:
REMARK  status: ('A' for Active; 'I' for Inactive)
REMARK    1  A    between atoms: C_1  and  C_2
REMARK    2  A    between atoms: C_2  and  O_3
REMARK    3  A    between atoms: O_3  and  N_4
REMARK    4  A    between atoms: N_6  and  C_7
REMARK                            x       y       z     vdW  Elec       q    Type
REMARK                         _______ _______ _______ _____ _____    ______ ____
ROOT
ATOM      1  C   UNL     1       4.466   5.236  18.042  0.00  0.00    +0.000 A 
ATOM      2  C   UNL     1       4.499   3.844  18.215  0.00  0.00    +0.000 A 
ATOM      3  C   UNL     1       3.323   3.093  18.261  0.00  0.00    +0.000 A 
ATOM      4 CL   UNL     1       3.406   1.382  18.436  0.00  0.00    +0.000 Cl
ATOM      5  C   UNL     1       2.083   3.715  18.154  0.00  0.00    +0.000 A 
ATOM      6  C   UNL     1       2.019   5.100  18.019  0.00  0.00    +0.000 A 
ATOM      7  C   UNL     1       3.198   5.851  17.968  0.00  0.00    +0.000 A 
ATOM      8 CL   UNL     1       3.064   7.568  17.783  0.00  0.00    +0.000 Cl
ENDROOT
BRANCH   1  11
ATOM      9  N   UNL     1       6.552   5.210  15.848  0.00  0.00    +0.000 NA
ATOM     10  C   UNL     1       6.497   6.030  16.839  0.00  0.00    +0.000 C 
ATOM     11  N   UNL     1       5.635   6.019  17.905  0.00  0.00    +0.000 N 
ATOM     12  H   UNL     1       5.659   6.822  18.525  0.00  0.00    +0.000 HD
BRANCH   9  13
ATOM     13  O   UNL     1       7.557   5.585  14.950  0.00  0.00    +0.000 OA
BRANCH  13  15
ATOM     14  C   UNL     1       6.191   3.906  13.919  0.00  0.00    +0.000 C 
ATOM     15  C   UNL     1       7.284   4.930  13.709  0.00  0.00    +0.000 C 
ENDBRANCH  13  15
ENDBRANCH   9  13
ENDBRANCH   1  11
TORSDOF 3
ENDMDL
MODEL 9
REMARK VINA RESULT:      -5.7      3.425      5.615
REMARK  Name = 
REMARK  4 active torsions:
REMARK  status: ('A' for Active; 'I' for Inactive)
REMARK    1  A    between atoms: C_1  and  C_2
REMARK    2  A    between atoms: C_2  and  O_3
REMARK    3  A    between atoms: O_3  and  N_4
REMARK    4  A    between atoms: N_6  and  C_7
REMARK                            x       y       z     vdW  Elec       q    Type
REMARK                         _______ _______ _______ _____ _____    ______ ____
ROOT
ATOM      1  C   UNL     1       4.681   4.720  17.012  0.00  0.00    +0.000 A 
ATOM      2  C   UNL     1       4.825   4.391  15.655  0.00  0.00    +0.000 A 
ATOM      3  C   UNL     1       6.087   4.198  15.088  0.00  0.00    +0.000 A 
ATOM      4 CL   UNL     1       6.221   3.756  13.430  0.00  0.00    +0.000 Cl
ATOM      5  C   UNL     1       7.237   4.347  15.857  0.00  0.00    +0.000 A 
ATOM      6  C   UNL     1       7.125   4.710  17.197  0.00  0.00    +0.000 A 
ATOM      7  C   UNL     1       5.861   4.899  17.765  0.00  0.00    +0.000 A 
ATOM      8 CL   UNL     1       5.776   5.334  19.440  0.00  0.00    +0.000 Cl
ENDROOT
BRANCH   1  11
ATOM      9  N   UNL     1       3.054   2.625  18.470  0.00  0.00    +0.000 NA
ATOM     10  C   UNL     1       2.772   3.877  18.371  0.00  0.00    +0.000 C 
ATOM     11  N   UNL     1       3.421   4.840  17.642  0.00  0.00    +0.000 N 
ATOM     12  H   UNL     1       3.130   5.801  17.786  0.00  0.00    +0.000 HD
BRANCH   9  13
ATOM     13  O   UNL     1       2.165   1.984  19.340  0.00  0.00    +0.000 OA
BRANCH  13  15
ATOM     14  C   UNL     1       1.544   2.665  21.554  0.00  0.00    +0.000 C 
ATOM     15  C   UNL     1       1.488   3.002  20.080  0.00  0.00    +0.000 C 
ENDBRANCH  13  15
ENDBRANCH   9  13
ENDBRANCH   1  11
TORSDOF 3
ENDMDL
