MODEL 1
REMARK VINA RESULT:      -7.9      0.000      0.000
REMARK  Name = 
REMARK  11 active torsions:
REMARK  status: ('A' for Active; 'I' for Inactive)
REMARK    1  A    between atoms: C_1  and  C_2
REMARK    2  A    between atoms: C_2  and  N_3
REMARK    3  A    between atoms: N_3  and  C_4
REMARK    4  A    between atoms: N_3  and  C_6
REMARK    5  A    between atoms: C_4  and  C_5
REMARK    6  A    between atoms: C_6  and  C_7
REMARK    7  A    between atoms: C_7  and  C_8
REMARK    8  A    between atoms: C_8  and  N_9
REMARK    9  A    between atoms: N_9  and  C_10
REMARK   10  A    between atoms: C_10  and  C_11
REMARK   11  A    between atoms: C_11  and  N_12
REMARK                            x       y       z     vdW  Elec       q    Type
REMARK                         _______ _______ _______ _____ _____    ______ ____
ROOT
ATOM      1  N   UNL     1       6.274   5.254  17.682  0.00  0.00    +0.000 N 
ATOM      2  C   UNL     1       6.432   4.971  16.336  0.00  0.00    +0.000 A 
ATOM      3  C   UNL     1       7.498   5.204  15.452  0.00  0.00    +0.000 A 
ATOM      4  C   UNL     1       7.348   4.804  14.118  0.00  0.00    +0.000 A 
ATOM      5  C   UNL     1       6.179   4.193  13.672  0.00  0.00    +0.000 A 
ATOM      6  C   UNL     1       5.124   3.961  14.556  0.00  0.00    +0.000 A 
ATOM      7  C   UNL     1       5.249   4.351  15.905  0.00  0.00    +0.000 A 
ATOM      8  C   UNL     1       4.389   4.258  17.030  0.00  0.00    +0.000 A 
ATOM      9  N   UNL     1       3.136   3.744  17.139  0.00  0.00    +0.000 NA
ATOM     10  C   UNL     1       2.614   3.830  18.373  0.00  0.00    +0.000 A 
ATOM     11  C   UNL     1       1.342   3.308  18.578  0.00  0.00    +0.000 A 
ATOM     12  C   UNL     1       0.730   3.352  19.830  0.00  0.00    +0.000 A 
ATOM     13  C   UNL     1       1.399   3.932  20.898  0.00  0.00    +0.000 A 
ATOM     14  C   UNL     1       2.677   4.462  20.706  0.00  0.00    +0.000 A 
ATOM     15  C   UNL     1       3.302   4.421  19.467  0.00  0.00    +0.000 A 
ATOM     16  N   UNL     1       4.539   4.942  19.356  0.00  0.00    +0.000 NA
ATOM     17  C   UNL     1       5.040   4.829  18.111  0.00  0.00    +0.000 A 
ENDROOT
BRANCH   1  18
ATOM     18  C   UNL     1       7.236   5.932  18.544  0.00  0.00    +0.000 C 
BRANCH  18  19
ATOM     19  C   UNL     1       7.596   7.316  17.995  0.00  0.00    +0.000 C 
BRANCH  19  20
ATOM     20  N   UNL     1       8.685   7.962  18.749  0.00  0.00    +0.000 NA
ATOM     21  H   UNL     1       8.564   7.766  19.744  0.00  0.00    +0.000 HD
BRANCH  20  22
ATOM     22  C   UNL     1       8.624   9.420  18.550  0.00  0.00    +0.000 C 
BRANCH  22  23
ATOM     23  C   UNL     1       9.134  10.156  19.791  0.00  0.00    +0.000 C 
BRANCH  23  24
ATOM     24  C   UNL     1       9.806  11.499  19.443  0.00  0.00    +0.000 C 
BRANCH  24  25
ATOM     25  N   UNL     1       9.764  11.869  18.013  0.00  0.00    +0.000 NA
BRANCH  25  27
ATOM     26  C   UNL     1       7.587  12.767  17.095  0.00  0.00    +0.000 C 
ATOM     27  C   UNL     1       8.919  13.051  17.780  0.00  0.00    +0.000 C 
ENDBRANCH  25  27
BRANCH  25  28
ATOM     28  C   UNL     1      11.118  11.978  17.440  0.00  0.00    +0.000 C 
ATOM     29  C   UNL     1      11.457  13.290  16.737  0.00  0.00    +0.000 C 
ENDBRANCH  25  28
ENDBRANCH  24  25
ENDBRANCH  23  24
ENDBRANCH  22  23
ENDBRANCH  20  22
ENDBRANCH  19  20
ENDBRANCH  18  19
ENDBRANCH   1  18
TORSDOF 9
ENDMDL
MODEL 2
REMARK VINA RESULT:      -7.7      0.961      1.448
REMARK  Name = 
REMARK  11 active torsions:
REMARK  status: ('A' for Active; 'I' for Inactive)
REMARK    1  A    between atoms: C_1  and  C_2
REMARK    2  A    between atoms: C_2  and  N_3
REMARK    3  A    between atoms: N_3  and  C_4
REMARK    4  A    between atoms: N_3  and  C_6
REMARK    5  A    between atoms: C_4  and  C_5
REMARK    6  A    between atoms: C_6  and  C_7
REMARK    7  A    between atoms: C_7  and  C_8
REMARK    8  A    between atoms: C_8  and  N_9
REMARK    9  A    between atoms: N_9  and  C_10
REMARK   10  A    between atoms: C_10  and  C_11
REMARK   11  A    between atoms: C_11  and  N_12
REMARK                            x       y       z     vdW  Elec       q    Type
REMARK                         _______ _______ _______ _____ _____    ______ ____
ROOT
ATOM      1  N   UNL     1       6.048   5.931  16.835  0.00  0.00    +0.000 N 
ATOM      2  C   UNL     1       6.282   5.304  15.624  0.00  0.00    +0.000 A 
ATOM      3  C   UNL     1       7.275   5.497  14.649  0.00  0.00    +0.000 A 
ATOM      4  C   UNL     1       7.236   4.695  13.500  0.00  0.00    +0.000 A 
ATOM      5  C   UNL     1       6.246   3.734  13.322  0.00  0.00    +0.000 A 
ATOM      6  C   UNL     1       5.264   3.544  14.295  0.00  0.00    +0.000 A 
ATOM      7  C   UNL     1       5.280   4.335  15.462  0.00  0.00    +0.000 A 
ATOM      8  C   UNL     1       4.452   4.390  16.613  0.00  0.00    +0.000 A 
ATOM      9  N   UNL     1       3.351   3.664  16.940  0.00  0.00    +0.000 NA
ATOM     10  C   UNL     1       2.810   3.993  18.124  0.00  0.00    +0.000 A 
ATOM     11  C   UNL     1       1.691   3.285  18.546  0.00  0.00    +0.000 A 
ATOM     12  C   UNL     1       1.072   3.560  19.765  0.00  0.00    +0.000 A 
ATOM     13  C   UNL     1       1.576   4.566  20.576  0.00  0.00    +0.000 A 
ATOM     14  C   UNL     1       2.699   5.287  20.164  0.00  0.00    +0.000 A 
ATOM     15  C   UNL     1       3.330   5.022  18.956  0.00  0.00    +0.000 A 
ATOM     16  N   UNL     1       4.414   5.749  18.626  0.00  0.00    +0.000 NA
ATOM     17  C   UNL     1       4.942   5.387  17.441  0.00  0.00    +0.000 A 
ENDROOT
BRANCH   1  18
ATOM     18  C   UNL     1       6.817   7.032  17.404  0.00  0.00    +0.000 C 
BRANCH  18  19
ATOM     19  C   UNL     1       7.776   6.537  18.491  0.00  0.00    +0.000 C 
BRANCH  19  20
ATOM     20  N   UNL     1       8.612   7.616  19.048  0.00  0.00    +0.000 NA
ATOM     21  H   UNL     1       8.350   7.771  20.024  0.00  0.00    +0.000 HD
BRANCH  20  22
ATOM     22  C   UNL     1       8.373   8.861  18.298  0.00  0.00    +0.000 C 
BRANCH  22  23
ATOM     23  C   UNL     1       9.108  10.034  18.950  0.00  0.00    +0.000 C 
BRANCH  23  24
ATOM     24  C   UNL     1       9.071  11.307  18.082  0.00  0.00    +0.000 C 
BRANCH  24  25
ATOM     25  N   UNL     1      10.012  12.371  18.489  0.00  0.00    +0.000 NA
BRANCH  25  27
ATOM     26  C   UNL     1      11.582  13.273  16.725  0.00  0.00    +0.000 C 
ATOM     27  C   UNL     1      10.223  13.353  17.413  0.00  0.00    +0.000 C 
ENDBRANCH  25  27
BRANCH  25  28
ATOM     28  C   UNL     1       9.629  12.970  19.781  0.00  0.00    +0.000 C 
ATOM     29  C   UNL     1      10.729  13.703  20.544  0.00  0.00    +0.000 C 
ENDBRANCH  25  28
ENDBRANCH  24  25
ENDBRANCH  23  24
ENDBRANCH  22  23
ENDBRANCH  20  22
ENDBRANCH  19  20
ENDBRANCH  18  19
ENDBRANCH   1  18
TORSDOF 9
ENDMDL
MODEL 3
REMARK VINA RESULT:      -7.6      3.057      4.612
REMARK  Name = 
REMARK  11 active torsions:
REMARK  status: ('A' for Active; 'I' for Inactive)
REMARK    1  A    between atoms: C_1  and  C_2
REMARK    2  A    between atoms: C_2  and  N_3
REMARK    3  A    between atoms: N_3  and  C_4
REMARK    4  A    between atoms: N_3  and  C_6
REMARK    5  A    between atoms: C_4  and  C_5
REMARK    6  A    between atoms: C_6  and  C_7
REMARK    7  A    between atoms: C_7  and  C_8
REMARK    8  A    between atoms: C_8  and  N_9
REMARK    9  A    between atoms: N_9  and  C_10
REMARK   10  A    between atoms: C_10  and  C_11
REMARK   11  A    between atoms: C_11  and  N_12
REMARK                            x       y       z     vdW  Elec       q    Type
REMARK                         _______ _______ _______ _____ _____    ______ ____
ROOT
ATOM      1  N   UNL     1       3.878   5.609  17.937  0.00  0.00    +0.000 N 
ATOM      2  C   UNL     1       3.741   4.543  18.809  0.00  0.00    +0.000 A 
ATOM      3  C   UNL     1       4.286   3.248  18.794  0.00  0.00    +0.000 A 
ATOM      4  C   UNL     1       3.941   2.375  19.834  0.00  0.00    +0.000 A 
ATOM      5  C   UNL     1       3.083   2.771  20.857  0.00  0.00    +0.000 A 
ATOM      6  C   UNL     1       2.547   4.060  20.868  0.00  0.00    +0.000 A 
ATOM      7  C   UNL     1       2.880   4.959  19.835  0.00  0.00    +0.000 A 
ATOM      8  C   UNL     1       2.519   6.305  19.561  0.00  0.00    +0.000 A 
ATOM      9  N   UNL     1       1.711   7.155  20.246  0.00  0.00    +0.000 NA
ATOM     10  C   UNL     1       1.592   8.369  19.685  0.00  0.00    +0.000 A 
ATOM     11  C   UNL     1       0.799   9.309  20.332  0.00  0.00    +0.000 A 
ATOM     12  C   UNL     1       0.628  10.595  19.819  0.00  0.00    +0.000 A 
ATOM     13  C   UNL     1       1.256  10.947  18.633  0.00  0.00    +0.000 A 
ATOM     14  C   UNL     1       2.055  10.011  17.972  0.00  0.00    +0.000 A 
ATOM     15  C   UNL     1       2.240   8.730  18.472  0.00  0.00    +0.000 A 
ATOM     16  N   UNL     1       3.032   7.883  17.787  0.00  0.00    +0.000 NA
ATOM     17  C   UNL     1       3.142   6.679  18.382  0.00  0.00    +0.000 A 
ENDROOT
BRANCH   1  18
ATOM     18  C   UNL     1       4.654   5.623  16.701  0.00  0.00    +0.000 C 
BRANCH  18  19
ATOM     19  C   UNL     1       6.128   5.937  16.974  0.00  0.00    +0.000 C 
BRANCH  19  20
ATOM     20  N   UNL     1       6.398   7.384  17.051  0.00  0.00    +0.000 NA
ATOM     21  H   UNL     1       6.457   7.762  16.103  0.00  0.00    +0.000 HD
BRANCH  20  22
ATOM     22  C   UNL     1       7.689   7.609  17.723  0.00  0.00    +0.000 C 
BRANCH  22  23
ATOM     23  C   UNL     1       8.016   9.103  17.778  0.00  0.00    +0.000 C 
BRANCH  23  24
ATOM     24  C   UNL     1       8.929   9.462  18.967  0.00  0.00    +0.000 C 
BRANCH  24  25
ATOM     25  N   UNL     1       9.035  10.906  19.262  0.00  0.00    +0.000 NA
BRANCH  25  27
ATOM     26  C   UNL     1       9.541  12.441  21.206  0.00  0.00    +0.000 C 
ATOM     27  C   UNL     1       9.870  11.160  20.447  0.00  0.00    +0.000 C 
ENDBRANCH  25  27
BRANCH  25  28
ATOM     28  C   UNL     1       9.435  11.676  18.070  0.00  0.00    +0.000 C 
ATOM     29  C   UNL     1      10.922  11.670  17.723  0.00  0.00    +0.000 C 
ENDBRANCH  25  28
ENDBRANCH  24  25
ENDBRANCH  23  24
ENDBRANCH  22  23
ENDBRANCH  20  22
ENDBRANCH  19  20
ENDBRANCH  18  19
ENDBRANCH   1  18
TORSDOF 9
ENDMDL
MODEL 4
REMARK VINA RESULT:      -7.6      1.012      1.543
REMARK  Name = 
REMARK  11 active torsions:
REMARK  status: ('A' for Active; 'I' for Inactive)
REMARK    1  A    between atoms: C_1  and  C_2
REMARK    2  A    between atoms: C_2  and  N_3
REMARK    3  A    between atoms: N_3  and  C_4
REMARK    4  A    between atoms: N_3  and  C_6
REMARK    5  A    between atoms: C_4  and  C_5
REMARK    6  A    between atoms: C_6  and  C_7
REMARK    7  A    between atoms: C_7  and  C_8
REMARK    8  A    between atoms: C_8  and  N_9
REMARK    9  A    between atoms: N_9  and  C_10
REMARK   10  A    between atoms: C_10  and  C_11
REMARK   11  A    between atoms: C_11  and  N_12
REMARK                            x       y       z     vdW  Elec       q    Type
REMARK                         _______ _______ _______ _____ _____    ______ ____
ROOT
ATOM      1  N   UNL     1       6.390   4.615  17.542  0.00  0.00    +0.000 N 
ATOM      2  C   UNL     1       6.420   4.547  16.160  0.00  0.00    +0.000 A 
ATOM      3  C   UNL     1       7.444   4.811  15.235  0.00  0.00    +0.000 A 
ATOM      4  C   UNL     1       7.156   4.660  13.871  0.00  0.00    +0.000 A 
ATOM      5  C   UNL     1       5.895   4.261  13.438  0.00  0.00    +0.000 A 
ATOM      6  C   UNL     1       4.883   3.996  14.363  0.00  0.00    +0.000 A 
ATOM      7  C   UNL     1       5.146   4.138  15.740  0.00  0.00    +0.000 A 
ATOM      8  C   UNL     1       4.359   3.949  16.907  0.00  0.00    +0.000 A 
ATOM      9  N   UNL     1       3.064   3.561  17.041  0.00  0.00    +0.000 NA
ATOM     10  C   UNL     1       2.642   3.492  18.313  0.00  0.00    +0.000 A 
ATOM     11  C   UNL     1       1.334   3.082  18.543  0.00  0.00    +0.000 A 
ATOM     12  C   UNL     1       0.819   2.979  19.835  0.00  0.00    +0.000 A 
ATOM     13  C   UNL     1       1.624   3.297  20.919  0.00  0.00    +0.000 A 
ATOM     14  C   UNL     1       2.940   3.712  20.703  0.00  0.00    +0.000 A 
ATOM     15  C   UNL     1       3.470   3.814  19.424  0.00  0.00    +0.000 A 
ATOM     16  N   UNL     1       4.749   4.212  19.290  0.00  0.00    +0.000 NA
ATOM     17  C   UNL     1       5.147   4.257  18.004  0.00  0.00    +0.000 A 
ENDROOT
BRANCH   1  18
ATOM     18  C   UNL     1       7.483   5.032  18.413  0.00  0.00    +0.000 C 
BRANCH  18  19
ATOM     19  C   UNL     1       7.460   6.545  18.649  0.00  0.00    +0.000 C 
BRANCH  19  20
ATOM     20  N   UNL     1       8.103   7.301  17.559  0.00  0.00    +0.000 NA
ATOM     21  H   UNL     1       9.117   7.197  17.634  0.00  0.00    +0.000 HD
BRANCH  20  22
ATOM     22  C   UNL     1       7.771   8.730  17.689  0.00  0.00    +0.000 C 
BRANCH  22  23
ATOM     23  C   UNL     1       8.718   9.417  18.675  0.00  0.00    +0.000 C 
BRANCH  23  24
ATOM     24  C   UNL     1       9.293  10.734  18.118  0.00  0.00    +0.000 C 
BRANCH  24  25
ATOM     25  N   UNL     1       9.743  11.703  19.139  0.00  0.00    +0.000 NA
BRANCH  25  27
ATOM     26  C   UNL     1       9.970  13.902  17.912  0.00  0.00    +0.000 C 
ATOM     27  C   UNL     1       9.186  13.044  18.900  0.00  0.00    +0.000 C 
ENDBRANCH  25  27
BRANCH  25  28
ATOM     28  C   UNL     1       9.520  11.196  20.506  0.00  0.00    +0.000 C 
ATOM     29  C   UNL     1       9.419  12.243  21.612  0.00  0.00    +0.000 C 
ENDBRANCH  25  28
ENDBRANCH  24  25
ENDBRANCH  23  24
ENDBRANCH  22  23
ENDBRANCH  20  22
ENDBRANCH  19  20
ENDBRANCH  18  19
ENDBRANCH   1  18
TORSDOF 9
ENDMDL
MODEL 5
REMARK VINA RESULT:      -7.5      4.421      7.561
REMARK  Name = 
REMARK  11 active torsions:
REMARK  status: ('A' for Active; 'I' for Inactive)
REMARK    1  A    between atoms: C_1  and  C_2
REMARK    2  A    between atoms: C_2  and  N_3
REMARK    3  A    between atoms: N_3  and  C_4
REMARK    4  A    between atoms: N_3  and  C_6
REMARK    5  A    between atoms: C_4  and  C_5
REMARK    6  A    between atoms: C_6  and  C_7
REMARK    7  A    between atoms: C_7  and  C_8
REMARK    8  A    between atoms: C_8  and  N_9
REMARK    9  A    between atoms: N_9  and  C_10
REMARK   10  A    between atoms: C_10  and  C_11
REMARK   11  A    between atoms: C_11  and  N_12
REMARK                            x       y       z     vdW  Elec       q    Type
REMARK                         _______ _______ _______ _____ _____    ______ ____
ROOT
ATOM      1  N   UNL     1       3.482   5.179  18.093  0.00  0.00    +0.000 N 
ATOM      2  C   UNL     1       3.346   4.209  19.072  0.00  0.00    +0.000 A 
ATOM      3  C   UNL     1       3.783   2.876  19.132  0.00  0.00    +0.000 A 
ATOM      4  C   UNL     1       3.472   2.130  20.277  0.00  0.00    +0.000 A 
ATOM      5  C   UNL     1       2.751   2.688  21.329  0.00  0.00    +0.000 A 
ATOM      6  C   UNL     1       2.322   4.014  21.265  0.00  0.00    +0.000 A 
ATOM      7  C   UNL     1       2.623   4.788  20.126  0.00  0.00    +0.000 A 
ATOM      8  C   UNL     1       2.344   6.130  19.758  0.00  0.00    +0.000 A 
ATOM      9  N   UNL     1       1.675   7.104  20.427  0.00  0.00    +0.000 NA
ATOM     10  C   UNL     1       1.598   8.270  19.766  0.00  0.00    +0.000 A 
ATOM     11  C   UNL     1       0.948   9.329  20.388  0.00  0.00    +0.000 A 
ATOM     12  C   UNL     1       0.829  10.574  19.772  0.00  0.00    +0.000 A 
ATOM     13  C   UNL     1       1.366  10.765  18.507  0.00  0.00    +0.000 A 
ATOM     14  C   UNL     1       2.022   9.709  17.870  0.00  0.00    +0.000 A 
ATOM     15  C   UNL     1       2.153   8.465  18.471  0.00  0.00    +0.000 A 
ATOM     16  N   UNL     1       2.806   7.496  17.803  0.00  0.00    +0.000 NA
ATOM     17  C   UNL     1       2.878   6.344  18.497  0.00  0.00    +0.000 A 
ENDROOT
BRANCH   1  18
ATOM     18  C   UNL     1       4.133   5.017  16.798  0.00  0.00    +0.000 C 
BRANCH  18  19
ATOM     19  C   UNL     1       5.637   5.294  16.893  0.00  0.00    +0.000 C 
BRANCH  19  20
ATOM     20  N   UNL     1       6.456   4.142  16.475  0.00  0.00    +0.000 NA
ATOM     21  H   UNL     1       7.432   4.436  16.405  0.00  0.00    +0.000 HD
BRANCH  20  22
ATOM     22  C   UNL     1       6.012   3.679  15.149  0.00  0.00    +0.000 C 
BRANCH  22  23
ATOM     23  C   UNL     1       6.657   4.516  14.041  0.00  0.00    +0.000 C 
BRANCH  23  24
ATOM     24  C   UNL     1       6.696   3.774  12.691  0.00  0.00    +0.000 C 
BRANCH  24  25
ATOM     25  N   UNL     1       5.499   2.963  12.387  0.00  0.00    +0.000 NA
BRANCH  25  27
ATOM     26  C   UNL     1       3.631   3.248  10.707  0.00  0.00    +0.000 C 
ATOM     27  C   UNL     1       4.381   3.796  11.917  0.00  0.00    +0.000 C 
ENDBRANCH  25  27
BRANCH  25  28
ATOM     28  C   UNL     1       5.820   1.832  11.496  0.00  0.00    +0.000 C 
ATOM     29  C   UNL     1       7.268   1.728  11.024  0.00  0.00    +0.000 C 
ENDBRANCH  25  28
ENDBRANCH  24  25
ENDBRANCH  23  24
ENDBRANCH  22  23
ENDBRANCH  20  22
ENDBRANCH  19  20
ENDBRANCH  18  19
ENDBRANCH   1  18
TORSDOF 9
ENDMDL
MODEL 6
REMARK VINA RESULT:      -7.5      0.939      1.244
REMARK  Name = 
REMARK  11 active torsions:
REMARK  status: ('A' for Active; 'I' for Inactive)
REMARK    1  A    between atoms: C_1  and  C_2
REMARK    2  A    between atoms: C_2  and  N_3
REMARK    3  A    between atoms: N_3  and  C_4
REMARK    4  A    between atoms: N_3  and  C_6
REMARK    5  A    between atoms: C_4  and  C_5
REMARK    6  A    between atoms: C_6  and  C_7
REMARK    7  A    between atoms: C_7  and  C_8
REMARK    8  A    between atoms: C_8  and  N_9
REMARK    9  A    between atoms: N_9  and  C_10
REMARK   10  A    between atoms: C_10  and  C_11
REMARK   11  A    between atoms: C_11  and  N_12
REMARK                            x       y       z     vdW  Elec       q    Type
REMARK                         _______ _______ _______ _____ _____    ______ ____
ROOT
ATOM      1  N   UNL     1       6.093   5.401  17.436  0.00  0.00    +0.000 N 
ATOM      2  C   UNL     1       6.284   4.988  16.128  0.00  0.00    +0.000 A 
ATOM      3  C   UNL     1       7.322   5.234  15.213  0.00  0.00    +0.000 A 
ATOM      4  C   UNL     1       7.219   4.674  13.933  0.00  0.00    +0.000 A 
ATOM      5  C   UNL     1       6.124   3.895  13.570  0.00  0.00    +0.000 A 
ATOM      6  C   UNL     1       5.098   3.651  14.484  0.00  0.00    +0.000 A 
ATOM      7  C   UNL     1       5.177   4.200  15.780  0.00  0.00    +0.000 A 
ATOM      8  C   UNL     1       4.329   4.141  16.916  0.00  0.00    +0.000 A 
ATOM      9  N   UNL     1       3.138   3.511  17.093  0.00  0.00    +0.000 NA
ATOM     10  C   UNL     1       2.607   3.677  18.315  0.00  0.00    +0.000 A 
ATOM     11  C   UNL     1       1.398   3.048  18.589  0.00  0.00    +0.000 A 
ATOM     12  C   UNL     1       0.782   3.165  19.835  0.00  0.00    +0.000 A 
ATOM     13  C   UNL     1       1.382   3.930  20.825  0.00  0.00    +0.000 A 
ATOM     14  C   UNL     1       2.596   4.569  20.563  0.00  0.00    +0.000 A 
ATOM     15  C   UNL     1       3.225   4.458  19.330  0.00  0.00    +0.000 A 
ATOM     16  N   UNL     1       4.398   5.093  19.150  0.00  0.00    +0.000 NA
ATOM     17  C   UNL     1       4.912   4.896  17.921  0.00  0.00    +0.000 A 
ENDROOT
BRANCH   1  18
ATOM     18  C   UNL     1       6.975   6.270  18.207  0.00  0.00    +0.000 C 
BRANCH  18  19
ATOM     19  C   UNL     1       6.819   7.735  17.787  0.00  0.00    +0.000 C 
BRANCH  19  20
ATOM     20  N   UNL     1       8.094   8.347  17.371  0.00  0.00    +0.000 NA
ATOM     21  H   UNL     1       8.792   7.611  17.248  0.00  0.00    +0.000 HD
BRANCH  20  22
ATOM     22  C   UNL     1       8.565   9.265  18.422  0.00  0.00    +0.000 C 
BRANCH  22  23
ATOM     23  C   UNL     1       8.740  10.679  17.864  0.00  0.00    +0.000 C 
BRANCH  23  24
ATOM     24  C   UNL     1      10.095  11.301  18.255  0.00  0.00    +0.000 C 
BRANCH  24  25
ATOM     25  N   UNL     1      10.055  12.745  18.569  0.00  0.00    +0.000 NA
BRANCH  25  27
ATOM     26  C   UNL     1      10.218  11.993  20.977  0.00  0.00    +0.000 C 
ATOM     27  C   UNL     1       9.660  12.988  19.965  0.00  0.00    +0.000 C 
ENDBRANCH  25  27
BRANCH  25  28
ATOM     28  C   UNL     1      11.303  13.423  18.172  0.00  0.00    +0.000 C 
ATOM     29  C   UNL     1      11.209  14.380  16.986  0.00  0.00    +0.000 C 
ENDBRANCH  25  28
ENDBRANCH  24  25
ENDBRANCH  23  24
ENDBRANCH  22  23
ENDBRANCH  20  22
ENDBRANCH  19  20
ENDBRANCH  18  19
ENDBRANCH   1  18
TORSDOF 9
ENDMDL
MODEL 7
REMARK VINA RESULT:      -7.4      4.382      7.709
REMARK  Name = 
REMARK  11 active torsions:
REMARK  status: ('A' for Active; 'I' for Inactive)
REMARK    1  A    between atoms: C_1  and  C_2
REMARK    2  A    between atoms: C_2  and  N_3
REMARK    3  A    between atoms: N_3  and  C_4
REMARK    4  A    between atoms: N_3  and  C_6
REMARK    5  A    between atoms: C_4  and  C_5
REMARK    6  A    between atoms: C_6  and  C_7
REMARK    7  A    between atoms: C_7  and  C_8
REMARK    8  A    between atoms: C_8  and  N_9
REMARK    9  A    between atoms: N_9  and  C_10
REMARK   10  A    between atoms: C_10  and  C_11
REMARK   11  A    between atoms: C_11  and  N_12
REMARK                            x       y       z     vdW  Elec       q    Type
REMARK                         _______ _______ _______ _____ _____    ______ ____
ROOT
ATOM      1  N   UNL     1       3.534   5.395  18.248  0.00  0.00    +0.000 N 
ATOM      2  C   UNL     1       3.375   4.420  19.219  0.00  0.00    +0.000 A 
ATOM      3  C   UNL     1       3.838   3.096  19.297  0.00  0.00    +0.000 A 
ATOM      4  C   UNL     1       3.492   2.342  20.426  0.00  0.00    +0.000 A 
ATOM      5  C   UNL     1       2.713   2.882  21.446  0.00  0.00    +0.000 A 
ATOM      6  C   UNL     1       2.260   4.199  21.365  0.00  0.00    +0.000 A 
ATOM      7  C   UNL     1       2.594   4.981  20.241  0.00  0.00    +0.000 A 
ATOM      8  C   UNL     1       2.304   6.318  19.863  0.00  0.00    +0.000 A 
ATOM      9  N   UNL     1       1.585   7.276  20.503  0.00  0.00    +0.000 NA
ATOM     10  C   UNL     1       1.513   8.442  19.840  0.00  0.00    +0.000 A 
ATOM     11  C   UNL     1       0.813   9.485  20.434  0.00  0.00    +0.000 A 
ATOM     12  C   UNL     1       0.696  10.729  19.815  0.00  0.00    +0.000 A 
ATOM     13  C   UNL     1       1.285  10.934  18.575  0.00  0.00    +0.000 A 
ATOM     14  C   UNL     1       1.990   9.894  17.966  0.00  0.00    +0.000 A 
ATOM     15  C   UNL     1       2.121   8.652  18.572  0.00  0.00    +0.000 A 
ATOM     16  N   UNL     1       2.823   7.698  17.932  0.00  0.00    +0.000 NA
ATOM     17  C   UNL     1       2.888   6.546  18.627  0.00  0.00    +0.000 A 
ENDROOT
BRANCH   1  18
ATOM     18  C   UNL     1       4.245   5.250  16.983  0.00  0.00    +0.000 C 
BRANCH  18  19
ATOM     19  C   UNL     1       5.763   5.293  17.191  0.00  0.00    +0.000 C 
BRANCH  19  20
ATOM     20  N   UNL     1       6.463   4.191  16.506  0.00  0.00    +0.000 NA
ATOM     21  H   UNL     1       7.283   4.565  16.025  0.00  0.00    +0.000 HD
BRANCH  20  22
ATOM     22  C   UNL     1       5.569   3.588  15.503  0.00  0.00    +0.000 C 
BRANCH  22  23
ATOM     23  C   UNL     1       5.627   4.372  14.189  0.00  0.00    +0.000 C 
BRANCH  23  24
ATOM     24  C   UNL     1       6.491   3.669  13.123  0.00  0.00    +0.000 C 
BRANCH  24  25
ATOM     25  N   UNL     1       5.769   3.265  11.898  0.00  0.00    +0.000 NA
BRANCH  25  27
ATOM     26  C   UNL     1       7.428   1.607  10.955  0.00  0.00    +0.000 C 
ATOM     27  C   UNL     1       6.044   1.864  11.541  0.00  0.00    +0.000 C 
ENDBRANCH  25  27
BRANCH  25  28
ATOM     28  C   UNL     1       4.334   3.593  11.979  0.00  0.00    +0.000 C 
ATOM     29  C   UNL     1       3.495   3.288  10.741  0.00  0.00    +0.000 C 
ENDBRANCH  25  28
ENDBRANCH  24  25
ENDBRANCH  23  24
ENDBRANCH  22  23
ENDBRANCH  20  22
ENDBRANCH  19  20
ENDBRANCH  18  19
ENDBRANCH   1  18
TORSDOF 9
ENDMDL
MODEL 8
REMARK VINA RESULT:      -7.4      0.986      1.316
REMARK  Name = 
REMARK  11 active torsions:
REMARK  status: ('A' for Active; 'I' for Inactive)
REMARK    1  A    between atoms: C_1  and  C_2
REMARK    2  A    between atoms: C_2  and  N_3
REMARK    3  A    between atoms: N_3  and  C_4
REMARK    4  A    between atoms: N_3  and  C_6
REMARK    5  A    between atoms: C_4  and  C_5
REMARK    6  A    between atoms: C_6  and  C_7
REMARK    7  A    between atoms: C_7  and  C_8
REMARK    8  A    between atoms: C_8  and  N_9
REMARK    9  A    between atoms: N_9  and  C_10
REMARK   10  A    between atoms: C_10  and  C_11
REMARK   11  A    between atoms: C_11  and  N_12
REMARK                            x       y       z     vdW  Elec       q    Type
REMARK                         _______ _______ _______ _____ _____    ______ ____
ROOT
ATOM      1  N   UNL     1       6.165   5.428  17.319  0.00  0.00    +0.000 N 
ATOM      2  C   UNL     1       6.320   5.001  16.011  0.00  0.00    +0.000 A 
ATOM      3  C   UNL     1       7.348   5.210  15.077  0.00  0.00    +0.000 A 
ATOM      4  C   UNL     1       7.206   4.645  13.802  0.00  0.00    +0.000 A 
ATOM      5  C   UNL     1       6.082   3.898  13.463  0.00  0.00    +0.000 A 
ATOM      6  C   UNL     1       5.065   3.691  14.397  0.00  0.00    +0.000 A 
ATOM      7  C   UNL     1       5.183   4.245  15.688  0.00  0.00    +0.000 A 
ATOM      8  C   UNL     1       4.353   4.220  16.839  0.00  0.00    +0.000 A 
ATOM      9  N   UNL     1       3.148   3.627  17.041  0.00  0.00    +0.000 NA
ATOM     10  C   UNL     1       2.643   3.817  18.270  0.00  0.00    +0.000 A 
ATOM     11  C   UNL     1       1.421   3.227  18.569  0.00  0.00    +0.000 A 
ATOM     12  C   UNL     1       0.830   3.370  19.824  0.00  0.00    +0.000 A 
ATOM     13  C   UNL     1       1.470   4.122  20.799  0.00  0.00    +0.000 A 
ATOM     14  C   UNL     1       2.698   4.722  20.512  0.00  0.00    +0.000 A 
ATOM     15  C   UNL     1       3.302   4.584  19.269  0.00  0.00    +0.000 A 
ATOM     16  N   UNL     1       4.491   5.182  19.065  0.00  0.00    +0.000 NA
ATOM     17  C   UNL     1       4.977   4.962  17.828  0.00  0.00    +0.000 A 
ENDROOT
BRANCH   1  18
ATOM     18  C   UNL     1       7.086   6.274  18.069  0.00  0.00    +0.000 C 
BRANCH  18  19
ATOM     19  C   UNL     1       6.912   7.750  17.698  0.00  0.00    +0.000 C 
BRANCH  19  20
ATOM     20  N   UNL     1       8.195   8.425  17.433  0.00  0.00    +0.000 NA
ATOM     21  H   UNL     1       8.939   7.726  17.400  0.00  0.00    +0.000 HD
BRANCH  20  22
ATOM     22  C   UNL     1       8.490   9.369  18.524  0.00  0.00    +0.000 C 
BRANCH  22  23
ATOM     23  C   UNL     1       9.328  10.543  18.011  0.00  0.00    +0.000 C 
BRANCH  23  24
ATOM     24  C   UNL     1       9.577  11.607  19.098  0.00  0.00    +0.000 C 
BRANCH  24  25
ATOM     25  N   UNL     1       9.296  12.999  18.688  0.00  0.00    +0.000 NA
BRANCH  25  27
ATOM     26  C   UNL     1       7.279  14.222  17.780  0.00  0.00    +0.000 C 
ATOM     27  C   UNL     1       8.259  13.061  17.646  0.00  0.00    +0.000 C 
ENDBRANCH  25  27
BRANCH  25  28
ATOM     28  C   UNL     1       9.032  13.866  19.851  0.00  0.00    +0.000 C 
ATOM     29  C   UNL     1       9.909  13.642  21.080  0.00  0.00    +0.000 C 
ENDBRANCH  25  28
ENDBRANCH  24  25
ENDBRANCH  23  24
ENDBRANCH  22  23
ENDBRANCH  20  22
ENDBRANCH  19  20
ENDBRANCH  18  19
ENDBRANCH   1  18
TORSDOF 9
ENDMDL
MODEL 9
REMARK VINA RESULT:      -7.2      3.088      4.657
REMARK  Name = 
REMARK  11 active torsions:
REMARK  status: ('A' for Active; 'I' for Inactive)
REMARK    1  A    between atoms: C_1  and  C_2
REMARK    2  A    between atoms: C_2  and  N_3
REMARK    3  A    between atoms: N_3  and  C_4
REMARK    4  A    between atoms: N_3  and  C_6
REMARK    5  A    between atoms: C_4  and  C_5
REMARK    6  A    between atoms: C_6  and  C_7
REMARK    7  A    between atoms: C_7  and  C_8
REMARK    8  A    between atoms: C_8  and  N_9
REMARK    9  A    between atoms: N_9  and  C_10
REMARK   10  A    between atoms: C_10  and  C_11
REMARK   11  A    between atoms: C_11  and  N_12
REMARK                            x       y       z     vdW  Elec       q    Type
REMARK                         _______ _______ _______ _____ _____    ______ ____
ROOT
ATOM      1  N   UNL     1       3.971   5.736  18.185  0.00  0.00    +0.000 N 
ATOM      2  C   UNL     1       3.790   4.666  19.044  0.00  0.00    +0.000 A 
ATOM      3  C   UNL     1       4.369   3.386  19.076  0.00  0.00    +0.000 A 
ATOM      4  C   UNL     1       3.962   2.503  20.085  0.00  0.00    +0.000 A 
ATOM      5  C   UNL     1       3.011   2.875  21.032  0.00  0.00    +0.000 A 
ATOM      6  C   UNL     1       2.442   4.149  20.997  0.00  0.00    +0.000 A 
ATOM      7  C   UNL     1       2.835   5.058  19.994  0.00  0.00    +0.000 A 
ATOM      8  C   UNL     1       2.462   6.393  19.689  0.00  0.00    +0.000 A 
ATOM      9  N   UNL     1       1.576   7.221  20.303  0.00  0.00    +0.000 NA
ATOM     10  C   UNL     1       1.473   8.432  19.732  0.00  0.00    +0.000 A 
ATOM     11  C   UNL     1       0.603   9.349  20.309  0.00  0.00    +0.000 A 
ATOM     12  C   UNL     1       0.441  10.630  19.782  0.00  0.00    +0.000 A 
ATOM     13  C   UNL     1       1.157  11.000  18.653  0.00  0.00    +0.000 A 
ATOM     14  C   UNL     1       2.033  10.088  18.062  0.00  0.00    +0.000 A 
ATOM     15  C   UNL     1       2.210   8.811  18.577  0.00  0.00    +0.000 A 
ATOM     16  N   UNL     1       3.079   7.986  17.963  0.00  0.00    +0.000 NA
ATOM     17  C   UNL     1       3.171   6.786  18.565  0.00  0.00    +0.000 A 
ENDROOT
BRANCH   1  18
ATOM     18  C   UNL     1       4.846   5.773  17.019  0.00  0.00    +0.000 C 
BRANCH  18  19
ATOM     19  C   UNL     1       6.301   6.030  17.424  0.00  0.00    +0.000 C 
BRANCH  19  20
ATOM     20  N   UNL     1       6.734   7.412  17.147  0.00  0.00    +0.000 NA
ATOM     21  H   UNL     1       7.014   7.483  16.167  0.00  0.00    +0.000 HD
BRANCH  20  22
ATOM     22  C   UNL     1       7.896   7.741  17.989  0.00  0.00    +0.000 C 
BRANCH  22  23
ATOM     23  C   UNL     1       8.242   9.228  17.874  0.00  0.00    +0.000 C 
BRANCH  23  24
ATOM     24  C   UNL     1       8.828   9.799  19.180  0.00  0.00    +0.000 C 
BRANCH  24  25
ATOM     25  N   UNL     1       9.995  10.688  19.008  0.00  0.00    +0.000 NA
BRANCH  25  27
ATOM     26  C   UNL     1       8.963  12.675  17.833  0.00  0.00    +0.000 C 
ATOM     27  C   UNL     1       9.902  11.475  17.768  0.00  0.00    +0.000 C 
ENDBRANCH  25  27
BRANCH  25  28
ATOM     28  C   UNL     1      10.245  11.497  20.214  0.00  0.00    +0.000 C 
ATOM     29  C   UNL     1       9.134  11.520  21.261  0.00  0.00    +0.000 C 
ENDBRANCH  25  28
ENDBRANCH  24  25
ENDBRANCH  23  24
ENDBRANCH  22  23
ENDBRANCH  20  22
ENDBRANCH  19  20
ENDBRANCH  18  19
ENDBRANCH   1  18
TORSDOF 9
ENDMDL
