MODEL 1
REMARK VINA RESULT:      -5.7      0.000      0.000
REMARK  Name = 
REMARK  3 active torsions:
REMARK  status: ('A' for Active; 'I' for Inactive)
REMARK    1  A    between atoms: C_1  and  C_2
REMARK    2  A    between atoms: C_5  and  S_6
REMARK    3  A    between atoms: S_6  and  C_7
REMARK                            x       y       z     vdW  Elec       q    Type
REMARK                         _______ _______ _______ _____ _____    ______ ____
ROOT
ATOM      1  C   UNL     1       1.508   4.380  18.472  0.00  0.00    +0.000 C 
ATOM      2  C   UNL     1       2.899   4.596  17.949  0.00  0.00    +0.000 A 
ATOM      3  C   UNL     1       3.596   5.782  18.225  0.00  0.00    +0.000 A 
ATOM      4  C   UNL     1       4.891   5.969  17.737  0.00  0.00    +0.000 A 
ATOM      5  C   UNL     1       5.493   4.968  16.973  0.00  0.00    +0.000 A 
ATOM      6  C   UNL     1       4.807   3.785  16.681  0.00  0.00    +0.000 A 
ATOM      7  C   UNL     1       3.514   3.602  17.178  0.00  0.00    +0.000 A 
ENDROOT
BRANCH   5   8
ATOM      8  S   UNL     1       7.143   5.207  16.360  0.00  0.00    +0.000 S 
ATOM      9  C   UNL     1       7.030   4.784  14.643  0.00  0.00    +0.000 C 
ATOM     10  O   UNL     1       7.439   6.629  16.454  0.00  0.00    +0.000 OA
ATOM     11  O   UNL     1       7.999   4.229  16.998  0.00  0.00    +0.000 OA
ENDBRANCH   5   8
TORSDOF 1
ENDMDL
MODEL 2
REMARK VINA RESULT:      -5.6      1.356      1.625
REMARK  Name = 
REMARK  3 active torsions:
REMARK  status: ('A' for Active; 'I' for Inactive)
REMARK    1  A    between atoms: C_1  and  C_2
REMARK    2  A    between atoms: C_5  and  S_6
REMARK    3  A    between atoms: S_6  and  C_7
REMARK                            x       y       z     vdW  Elec       q    Type
REMARK                         _______ _______ _______ _____ _____    ______ ____
ROOT
ATOM      1  C   UNL     1       1.373   4.185  17.817  0.00  0.00    +0.000 C 
ATOM      2  C   UNL     1       2.853   4.441  17.825  0.00  0.00    +0.000 A 
ATOM      3  C   UNL     1       3.419   5.365  18.715  0.00  0.00    +0.000 A 
ATOM      4  C   UNL     1       4.798   5.591  18.716  0.00  0.00    +0.000 A 
ATOM      5  C   UNL     1       5.613   4.889  17.827  0.00  0.00    +0.000 A 
ATOM      6  C   UNL     1       5.063   3.971  16.928  0.00  0.00    +0.000 A 
ATOM      7  C   UNL     1       3.684   3.746  16.937  0.00  0.00    +0.000 A 
ENDROOT
BRANCH   5   8
ATOM      8  S   UNL     1       7.368   5.172  17.837  0.00  0.00    +0.000 S 
ATOM      9  C   UNL     1       7.524   6.908  17.516  0.00  0.00    +0.000 C 
ATOM     10  O   UNL     1       7.840   4.921  19.190  0.00  0.00    +0.000 OA
ATOM     11  O   UNL     1       7.938   4.464  16.711  0.00  0.00    +0.000 OA
ENDBRANCH   5   8
TORSDOF 1
ENDMDL
MODEL 3
REMARK VINA RESULT:      -5.6      1.086      2.131
REMARK  Name = 
REMARK  3 active torsions:
REMARK  status: ('A' for Active; 'I' for Inactive)
REMARK    1  A    between atoms: C_1  and  C_2
REMARK    2  A    between atoms: C_5  and  S_6
REMARK    3  A    between atoms: S_6  and  C_7
REMARK                            x       y       z     vdW  Elec       q    Type
REMARK                         _______ _______ _______ _____ _____    ______ ____
ROOT
ATOM      1  C   UNL     1       1.361   4.214  17.948  0.00  0.00    +0.000 C 
ATOM      2  C   UNL     1       2.819   4.487  17.712  0.00  0.00    +0.000 A 
ATOM      3  C   UNL     1       3.625   3.558  17.037  0.00  0.00    +0.000 A 
ATOM      4  C   UNL     1       4.979   3.825  16.819  0.00  0.00    +0.000 A 
ATOM      5  C   UNL     1       5.528   5.025  17.273  0.00  0.00    +0.000 A 
ATOM      6  C   UNL     1       4.739   5.956  17.955  0.00  0.00    +0.000 A 
ATOM      7  C   UNL     1       3.385   5.685  18.164  0.00  0.00    +0.000 A 
ENDROOT
BRANCH   5   8
ATOM      8  S   UNL     1       7.248   5.365  16.986  0.00  0.00    +0.000 S 
ATOM      9  C   UNL     1       7.504   6.950  17.737  0.00  0.00    +0.000 C 
ATOM     10  O   UNL     1       8.015   4.383  17.737  0.00  0.00    +0.000 OA
ATOM     11  O   UNL     1       7.438   5.520  15.559  0.00  0.00    +0.000 OA
ENDBRANCH   5   8
TORSDOF 1
ENDMDL
MODEL 4
REMARK VINA RESULT:      -5.6      1.127      1.790
REMARK  Name = 
REMARK  3 active torsions:
REMARK  status: ('A' for Active; 'I' for Inactive)
REMARK    1  A    between atoms: C_1  and  C_2
REMARK    2  A    between atoms: C_5  and  S_6
REMARK    3  A    between atoms: S_6  and  C_7
REMARK                            x       y       z     vdW  Elec       q    Type
REMARK                         _______ _______ _______ _____ _____    ______ ____
ROOT
ATOM      1  C   UNL     1       1.319   4.034  17.856  0.00  0.00    +0.000 C 
ATOM      2  C   UNL     1       2.743   4.482  17.691  0.00  0.00    +0.000 A 
ATOM      3  C   UNL     1       3.137   5.779  18.056  0.00  0.00    +0.000 A 
ATOM      4  C   UNL     1       4.465   6.182  17.902  0.00  0.00    +0.000 A 
ATOM      5  C   UNL     1       5.404   5.288  17.386  0.00  0.00    +0.000 A 
ATOM      6  C   UNL     1       5.025   3.996  17.010  0.00  0.00    +0.000 A 
ATOM      7  C   UNL     1       3.695   3.597  17.172  0.00  0.00    +0.000 A 
ENDROOT
BRANCH   5   8
ATOM      8  S   UNL     1       7.094   5.802  17.200  0.00  0.00    +0.000 S 
ATOM      9  C   UNL     1       7.715   5.848  18.859  0.00  0.00    +0.000 C 
ATOM     10  O   UNL     1       7.794   4.744  16.487  0.00  0.00    +0.000 OA
ATOM     11  O   UNL     1       7.092   7.159  16.694  0.00  0.00    +0.000 OA
ENDBRANCH   5   8
TORSDOF 1
ENDMDL
MODEL 5
REMARK VINA RESULT:      -5.5      0.767      1.491
REMARK  Name = 
REMARK  3 active torsions:
REMARK  status: ('A' for Active; 'I' for Inactive)
REMARK    1  A    between atoms: C_1  and  C_2
REMARK    2  A    between atoms: C_5  and  S_6
REMARK    3  A    between atoms: S_6  and  C_7
REMARK                            x       y       z     vdW  Elec       q    Type
REMARK                         _______ _______ _______ _____ _____    ______ ____
ROOT
ATOM      1  C   UNL     1       1.850   3.987  19.276  0.00  0.00    +0.000 C 
ATOM      2  C   UNL     1       3.168   4.242  18.602  0.00  0.00    +0.000 A 
ATOM      3  C   UNL     1       3.387   3.841  17.275  0.00  0.00    +0.000 A 
ATOM      4  C   UNL     1       4.616   4.089  16.658  0.00  0.00    +0.000 A 
ATOM      5  C   UNL     1       5.625   4.742  17.365  0.00  0.00    +0.000 A 
ATOM      6  C   UNL     1       5.424   5.140  18.691  0.00  0.00    +0.000 A 
ATOM      7  C   UNL     1       4.191   4.894  19.300  0.00  0.00    +0.000 A 
ENDROOT
BRANCH   5   8
ATOM      8  S   UNL     1       7.183   5.063  16.573  0.00  0.00    +0.000 S 
ATOM      9  C   UNL     1       6.942   4.507  14.908  0.00  0.00    +0.000 C 
ATOM     10  O   UNL     1       7.366   6.506  16.544  0.00  0.00    +0.000 OA
ATOM     11  O   UNL     1       8.177   4.204  17.183  0.00  0.00    +0.000 OA
ENDBRANCH   5   8
TORSDOF 1
ENDMDL
MODEL 6
REMARK VINA RESULT:      -5.4      1.352      2.324
REMARK  Name = 
REMARK  3 active torsions:
REMARK  status: ('A' for Active; 'I' for Inactive)
REMARK    1  A    between atoms: C_1  and  C_2
REMARK    2  A    between atoms: C_5  and  S_6
REMARK    3  A    between atoms: S_6  and  C_7
REMARK                            x       y       z     vdW  Elec       q    Type
REMARK                         _______ _______ _______ _____ _____    ______ ____
ROOT
ATOM      1  C   UNL     1       1.416   3.905  17.920  0.00  0.00    +0.000 C 
ATOM      2  C   UNL     1       2.779   4.508  17.733  0.00  0.00    +0.000 A 
ATOM      3  C   UNL     1       3.885   3.704  17.419  0.00  0.00    +0.000 A 
ATOM      4  C   UNL     1       5.147   4.277  17.242  0.00  0.00    +0.000 A 
ATOM      5  C   UNL     1       5.303   5.657  17.375  0.00  0.00    +0.000 A 
ATOM      6  C   UNL     1       4.212   6.470  17.696  0.00  0.00    +0.000 A 
ATOM      7  C   UNL     1       2.952   5.891  17.866  0.00  0.00    +0.000 A 
ENDROOT
BRANCH   5   8
ATOM      8  S   UNL     1       6.908   6.384  17.141  0.00  0.00    +0.000 S 
ATOM      9  C   UNL     1       7.795   5.949  18.612  0.00  0.00    +0.000 C 
ATOM     10  O   UNL     1       7.534   5.700  16.019  0.00  0.00    +0.000 OA
ATOM     11  O   UNL     1       6.747   7.822  17.134  0.00  0.00    +0.000 OA
ENDBRANCH   5   8
TORSDOF 1
ENDMDL
MODEL 7
REMARK VINA RESULT:      -5.4      1.692      1.976
REMARK  Name = 
REMARK  3 active torsions:
REMARK  status: ('A' for Active; 'I' for Inactive)
REMARK    1  A    between atoms: C_1  and  C_2
REMARK    2  A    between atoms: C_5  and  S_6
REMARK    3  A    between atoms: S_6  and  C_7
REMARK                            x       y       z     vdW  Elec       q    Type
REMARK                         _______ _______ _______ _____ _____    ______ ____
ROOT
ATOM      1  C   UNL     1       1.458   3.903  18.440  0.00  0.00    +0.000 C 
ATOM      2  C   UNL     1       2.923   4.227  18.365  0.00  0.00    +0.000 A 
ATOM      3  C   UNL     1       3.411   5.138  17.416  0.00  0.00    +0.000 A 
ATOM      4  C   UNL     1       4.775   5.434  17.360  0.00  0.00    +0.000 A 
ATOM      5  C   UNL     1       5.653   4.823  18.256  0.00  0.00    +0.000 A 
ATOM      6  C   UNL     1       5.182   3.906  19.201  0.00  0.00    +0.000 A 
ATOM      7  C   UNL     1       3.816   3.619  19.256  0.00  0.00    +0.000 A 
ENDROOT
BRANCH   5   8
ATOM      8  S   UNL     1       7.386   5.209  18.186  0.00  0.00    +0.000 S 
ATOM      9  C   UNL     1       7.432   6.869  17.567  0.00  0.00    +0.000 C 
ATOM     10  O   UNL     1       7.882   5.225  19.554  0.00  0.00    +0.000 OA
ATOM     11  O   UNL     1       7.992   4.352  17.189  0.00  0.00    +0.000 OA
ENDBRANCH   5   8
TORSDOF 1
ENDMDL
MODEL 8
REMARK VINA RESULT:      -5.4      1.394      2.006
REMARK  Name = 
REMARK  3 active torsions:
REMARK  status: ('A' for Active; 'I' for Inactive)
REMARK    1  A    between atoms: C_1  and  C_2
REMARK    2  A    between atoms: C_5  and  S_6
REMARK    3  A    between atoms: S_6  and  C_7
REMARK                            x       y       z     vdW  Elec       q    Type
REMARK                         _______ _______ _______ _____ _____    ______ ____
ROOT
ATOM      1  C   UNL     1       1.694   3.466  18.904  0.00  0.00    +0.000 C 
ATOM      2  C   UNL     1       3.058   3.989  18.553  0.00  0.00    +0.000 A 
ATOM      3  C   UNL     1       3.844   4.648  19.510  0.00  0.00    +0.000 A 
ATOM      4  C   UNL     1       5.113   5.125  19.173  0.00  0.00    +0.000 A 
ATOM      5  C   UNL     1       5.599   4.940  17.878  0.00  0.00    +0.000 A 
ATOM      6  C   UNL     1       4.823   4.293  16.911  0.00  0.00    +0.000 A 
ATOM      7  C   UNL     1       3.557   3.813  17.257  0.00  0.00    +0.000 A 
ENDROOT
BRANCH   5   8
ATOM      8  S   UNL     1       7.217   5.541  17.455  0.00  0.00    +0.000 S 
ATOM      9  C   UNL     1       7.940   5.963  19.017  0.00  0.00    +0.000 C 
ATOM     10  O   UNL     1       7.964   4.422  16.901  0.00  0.00    +0.000 OA
ATOM     11  O   UNL     1       7.053   6.767  16.703  0.00  0.00    +0.000 OA
ENDBRANCH   5   8
TORSDOF 1
ENDMDL
MODEL 9
REMARK VINA RESULT:      -5.4      1.725      2.102
REMARK  Name = 
REMARK  3 active torsions:
REMARK  status: ('A' for Active; 'I' for Inactive)
REMARK    1  A    between atoms: C_1  and  C_2
REMARK    2  A    between atoms: C_5  and  S_6
REMARK    3  A    between atoms: S_6  and  C_7
REMARK                            x       y       z     vdW  Elec       q    Type
REMARK                         _______ _______ _______ _____ _____    ______ ____
ROOT
ATOM      1  C   UNL     1       1.496   3.642  18.275  0.00  0.00    +0.000 C 
ATOM      2  C   UNL     1       2.945   4.037  18.276  0.00  0.00    +0.000 A 
ATOM      3  C   UNL     1       3.844   3.472  19.193  0.00  0.00    +0.000 A 
ATOM      4  C   UNL     1       5.190   3.844  19.182  0.00  0.00    +0.000 A 
ATOM      5  C   UNL     1       5.641   4.779  18.249  0.00  0.00    +0.000 A 
ATOM      6  C   UNL     1       4.755   5.357  17.335  0.00  0.00    +0.000 A 
ATOM      7  C   UNL     1       3.411   4.976  17.349  0.00  0.00    +0.000 A 
ENDROOT
BRANCH   5   8
ATOM      8  S   UNL     1       7.356   5.243  18.232  0.00  0.00    +0.000 S 
ATOM      9  C   UNL     1       7.356   6.864  17.515  0.00  0.00    +0.000 C 
ATOM     10  O   UNL     1       7.786   5.364  19.617  0.00  0.00    +0.000 OA
ATOM     11  O   UNL     1       8.046   4.358  17.317  0.00  0.00    +0.000 OA
ENDBRANCH   5   8
TORSDOF 1
ENDMDL
