MODEL 1
REMARK VINA RESULT:      -8.6      0.000      0.000
REMARK  Name = 
REMARK  8 active torsions:
REMARK  status: ('A' for Active; 'I' for Inactive)
REMARK    1  A    between atoms: C_1  and  O_2
REMARK    2  A    between atoms: O_2  and  C_3
REMARK    3  A    between atoms: C_5  and  C_6
REMARK    4  A    between atoms: N_8  and  C_9
REMARK    5  A    between atoms: N_15  and  C_16
REMARK    6  A    between atoms: C_26  and  O_27
REMARK    7  A    between atoms: O_27  and  C_28
REMARK    8  A    between atoms: C_28  and  C_29
REMARK                            x       y       z     vdW  Elec       q    Type
REMARK                         _______ _______ _______ _____ _____    ______ ____
ROOT
ATOM      1  C   UNL     1       0.826  10.039  19.584  0.00  0.00    +0.000 A 
ATOM      2  N   UNL     1       1.173  11.210  19.075  0.00  0.00    +0.000 NA
ATOM      3  N   UNL     1       0.418  12.062  19.835  0.00  0.00    +0.000 N 
ATOM      4  N   UNL     1      -0.387  11.373  20.610  0.00  0.00    +0.000 N 
ATOM      5  N   UNL     1      -0.118  10.036  20.511  0.00  0.00    +0.000 NA
ENDROOT
BRANCH   4   6
ATOM      6  C   UNL     1      -1.565  11.840  21.319  0.00  0.00    +0.000 A 
ATOM      7  C   UNL     1      -1.608  11.707  22.705  0.00  0.00    +0.000 A 
ATOM      8  C   UNL     1      -2.742  12.148  23.385  0.00  0.00    +0.000 A 
ATOM      9  C   UNL     1      -3.797  12.725  22.677  0.00  0.00    +0.000 A 
ATOM     10 CL   UNL     1      -5.194  13.249  23.526  0.00  0.00    +0.000 Cl
ATOM     11  C   UNL     1      -3.724  12.883  21.289  0.00  0.00    +0.000 A 
ATOM     12  C   UNL     1      -2.590  12.448  20.599  0.00  0.00    +0.000 A 
ENDBRANCH   4   6
BRANCH   1  15
ATOM     13  C   UNL     1       2.252   6.561  19.845  0.00  0.00    +0.000 A 
ATOM     14  C   UNL     1       1.728   7.809  20.204  0.00  0.00    +0.000 A 
ATOM     15  C   UNL     1       1.562   8.825  19.252  0.00  0.00    +0.000 A 
ATOM     16  C   UNL     1       2.030   8.612  17.955  0.00  0.00    +0.000 A 
ATOM     17  C   UNL     1       2.642   7.410  17.617  0.00  0.00    +0.000 A 
ATOM     18  C   UNL     1       2.791   6.383  18.560  0.00  0.00    +0.000 A 
BRANCH  13  20
ATOM     19  C   UNL     1       1.186   4.561  20.545  0.00  0.00    +0.000 C 
ATOM     20  O   UNL     1       2.249   5.507  20.722  0.00  0.00    +0.000 OA
ENDBRANCH  13  20
BRANCH  18  21
ATOM     21  O   UNL     1       3.438   5.202  18.268  0.00  0.00    +0.000 OA
BRANCH  21  22
ATOM     22  C   UNL     1       4.450   5.317  17.255  0.00  0.00    +0.000 C 
BRANCH  22  23
ATOM     23  C   UNL     1       5.752   5.911  17.727  0.00  0.00    +0.000 A 
ATOM     24  C   UNL     1       6.321   7.041  17.138  0.00  0.00    +0.000 A 
ATOM     25  C   UNL     1       7.546   7.528  17.596  0.00  0.00    +0.000 A 
ATOM     26  C   UNL     1       8.206   6.897  18.652  0.00  0.00    +0.000 A 
ATOM     27  C   UNL     1       7.634   5.787  19.268  0.00  0.00    +0.000 A 
ATOM     28  C   UNL     1       6.410   5.301  18.813  0.00  0.00    +0.000 A 
ENDBRANCH  22  23
ENDBRANCH  21  22
ENDBRANCH  18  21
ENDBRANCH   1  15
BRANCH   3  29
ATOM     29  C   UNL     1       0.686  13.496  19.840  0.00  0.00    +0.000 A 
ATOM     30  C   UNL     1       0.033  14.290  18.898  0.00  0.00    +0.000 A 
ATOM     31  C   UNL     1       0.280  15.663  18.894  0.00  0.00    +0.000 A 
ATOM     32  C   UNL     1       1.180  16.213  19.809  0.00  0.00    +0.000 A 
ATOM     33  C   UNL     1       1.851  15.398  20.723  0.00  0.00    +0.000 A 
ATOM     34  C   UNL     1       1.615  14.025  20.735  0.00  0.00    +0.000 A 
ENDBRANCH   3  29
TORSDOF 7
ENDMDL
MODEL 2
REMARK VINA RESULT:      -8.6      0.205      1.447
REMARK  Name = 
REMARK  8 active torsions:
REMARK  status: ('A' for Active; 'I' for Inactive)
REMARK    1  A    between atoms: C_1  and  O_2
REMARK    2  A    between atoms: O_2  and  C_3
REMARK    3  A    between atoms: C_5  and  C_6
REMARK    4  A    between atoms: N_8  and  C_9
REMARK    5  A    between atoms: N_15  and  C_16
REMARK    6  A    between atoms: C_26  and  O_27
REMARK    7  A    between atoms: O_27  and  C_28
REMARK    8  A    between atoms: C_28  and  C_29
REMARK                            x       y       z     vdW  Elec       q    Type
REMARK                         _______ _______ _______ _____ _____    ______ ____
ROOT
ATOM      1  C   UNL     1       0.888  10.012  19.694  0.00  0.00    +0.000 A 
ATOM      2  N   UNL     1       1.255  11.189  19.214  0.00  0.00    +0.000 NA
ATOM      3  N   UNL     1       0.511  12.035  19.992  0.00  0.00    +0.000 N 
ATOM      4  N   UNL     1      -0.308  11.341  20.746  0.00  0.00    +0.000 N 
ATOM      5  N   UNL     1      -0.060  10.002  20.616  0.00  0.00    +0.000 NA
ENDROOT
BRANCH   4   6
ATOM      6  C   UNL     1      -1.481  11.810  21.462  0.00  0.00    +0.000 A 
ATOM      7  C   UNL     1      -2.489  12.453  20.745  0.00  0.00    +0.000 A 
ATOM      8  C   UNL     1      -3.611  12.911  21.433  0.00  0.00    +0.000 A 
ATOM      9  C   UNL     1      -3.716  12.705  22.809  0.00  0.00    +0.000 A 
ATOM     10 CL   UNL     1      -5.097  13.288  23.645  0.00  0.00    +0.000 Cl
ATOM     11  C   UNL     1      -2.712  12.027  23.508  0.00  0.00    +0.000 A 
ATOM     12  C   UNL     1      -1.585  11.561  22.828  0.00  0.00    +0.000 A 
ENDBRANCH   4   6
BRANCH   1  15
ATOM     13  C   UNL     1       2.248   6.503  19.871  0.00  0.00    +0.000 A 
ATOM     14  C   UNL     1       1.743   7.750  20.260  0.00  0.00    +0.000 A 
ATOM     15  C   UNL     1       1.604   8.794  19.335  0.00  0.00    +0.000 A 
ATOM     16  C   UNL     1       2.082   8.609  18.036  0.00  0.00    +0.000 A 
ATOM     17  C   UNL     1       2.676   7.406  17.672  0.00  0.00    +0.000 A 
ATOM     18  C   UNL     1       2.797   6.351  18.587  0.00  0.00    +0.000 A 
BRANCH  13  20
ATOM     19  C   UNL     1       1.140   4.504  20.505  0.00  0.00    +0.000 C 
ATOM     20  O   UNL     1       2.217   5.425  20.719  0.00  0.00    +0.000 OA
ENDBRANCH  13  20
BRANCH  18  21
ATOM     21  O   UNL     1       3.426   5.167  18.269  0.00  0.00    +0.000 OA
BRANCH  21  22
ATOM     22  C   UNL     1       4.443   5.289  17.263  0.00  0.00    +0.000 C 
BRANCH  22  23
ATOM     23  C   UNL     1       5.762   5.824  17.758  0.00  0.00    +0.000 A 
ATOM     24  C   UNL     1       6.452   5.251  18.828  0.00  0.00    +0.000 A 
ATOM     25  C   UNL     1       7.654   5.809  19.264  0.00  0.00    +0.000 A 
ATOM     26  C   UNL     1       8.180   6.936  18.630  0.00  0.00    +0.000 A 
ATOM     27  C   UNL     1       7.517   7.498  17.544  0.00  0.00    +0.000 A 
ATOM     28  C   UNL     1       6.318   6.941  17.105  0.00  0.00    +0.000 A 
ENDBRANCH  22  23
ENDBRANCH  21  22
ENDBRANCH  18  21
ENDBRANCH   1  15
BRANCH   3  29
ATOM     29  C   UNL     1       0.802  13.464  20.032  0.00  0.00    +0.000 A 
ATOM     30  C   UNL     1       1.434  13.974  21.165  0.00  0.00    +0.000 A 
ATOM     31  C   UNL     1       1.720  15.339  21.214  0.00  0.00    +0.000 A 
ATOM     32  C   UNL     1       1.356  16.166  20.151  0.00  0.00    +0.000 A 
ATOM     33  C   UNL     1       0.693  15.644  19.038  0.00  0.00    +0.000 A 
ATOM     34  C   UNL     1       0.400  14.284  18.979  0.00  0.00    +0.000 A 
ENDBRANCH   3  29
TORSDOF 7
ENDMDL
MODEL 3
REMARK VINA RESULT:      -8.3      1.551      3.459
REMARK  Name = 
REMARK  8 active torsions:
REMARK  status: ('A' for Active; 'I' for Inactive)
REMARK    1  A    between atoms: C_1  and  O_2
REMARK    2  A    between atoms: O_2  and  C_3
REMARK    3  A    between atoms: C_5  and  C_6
REMARK    4  A    between atoms: N_8  and  C_9
REMARK    5  A    between atoms: N_15  and  C_16
REMARK    6  A    between atoms: C_26  and  O_27
REMARK    7  A    between atoms: O_27  and  C_28
REMARK    8  A    between atoms: C_28  and  C_29
REMARK                            x       y       z     vdW  Elec       q    Type
REMARK                         _______ _______ _______ _____ _____    ______ ____
ROOT
ATOM      1  C   UNL     1       1.012  10.247  19.797  0.00  0.00    +0.000 A 
ATOM      2  N   UNL     1       0.010  10.245  20.663  0.00  0.00    +0.000 NA
ATOM      3  N   UNL     1      -0.412  11.545  20.581  0.00  0.00    +0.000 N 
ATOM      4  N   UNL     1       0.407  12.231  19.819  0.00  0.00    +0.000 N 
ATOM      5  N   UNL     1       1.332  11.405  19.244  0.00  0.00    +0.000 NA
ENDROOT
BRANCH   4   6
ATOM      6  C   UNL     1       0.541  13.674  19.721  0.00  0.00    +0.000 A 
ATOM      7  C   UNL     1       1.415  14.325  20.590  0.00  0.00    +0.000 A 
ATOM      8  C   UNL     1       1.538  15.711  20.501  0.00  0.00    +0.000 A 
ATOM      9  C   UNL     1       0.805  16.414  19.545  0.00  0.00    +0.000 A 
ATOM     10 CL   UNL     1       0.954  18.122  19.458  0.00  0.00    +0.000 Cl
ATOM     11  C   UNL     1      -0.042  15.742  18.658  0.00  0.00    +0.000 A 
ATOM     12  C   UNL     1      -0.170  14.353  18.735  0.00  0.00    +0.000 A 
ENDBRANCH   4   6
BRANCH   1  15
ATOM     13  C   UNL     1       2.210   6.675  19.800  0.00  0.00    +0.000 A 
ATOM     14  C   UNL     1       1.806   7.938  20.250  0.00  0.00    +0.000 A 
ATOM     15  C   UNL     1       1.630   9.003  19.356  0.00  0.00    +0.000 A 
ATOM     16  C   UNL     1       1.970   8.816  18.015  0.00  0.00    +0.000 A 
ATOM     17  C   UNL     1       2.466   7.592  17.580  0.00  0.00    +0.000 A 
ATOM     18  C   UNL     1       2.623   6.518  18.466  0.00  0.00    +0.000 A 
BRANCH  13  20
ATOM     19  C   UNL     1       1.085   4.706  20.496  0.00  0.00    +0.000 C 
ATOM     20  O   UNL     1       2.208   5.586  20.634  0.00  0.00    +0.000 OA
ENDBRANCH  13  20
BRANCH  18  21
ATOM     21  O   UNL     1       3.160   5.311  18.075  0.00  0.00    +0.000 OA
BRANCH  21  22
ATOM     22  C   UNL     1       4.204   5.418  17.094  0.00  0.00    +0.000 C 
BRANCH  22  23
ATOM     23  C   UNL     1       5.530   5.891  17.631  0.00  0.00    +0.000 A 
ATOM     24  C   UNL     1       6.252   6.930  17.042  0.00  0.00    +0.000 A 
ATOM     25  C   UNL     1       7.491   7.304  17.564  0.00  0.00    +0.000 A 
ATOM     26  C   UNL     1       8.012   6.652  18.683  0.00  0.00    +0.000 A 
ATOM     27  C   UNL     1       7.287   5.635  19.298  0.00  0.00    +0.000 A 
ATOM     28  C   UNL     1       6.049   5.262  18.779  0.00  0.00    +0.000 A 
ENDBRANCH  22  23
ENDBRANCH  21  22
ENDBRANCH  18  21
ENDBRANCH   1  15
BRANCH   3  29
ATOM     29  C   UNL     1      -1.696  11.950  21.141  0.00  0.00    +0.000 A 
ATOM     30  C   UNL     1      -2.702  12.346  20.261  0.00  0.00    +0.000 A 
ATOM     31  C   UNL     1      -3.935  12.734  20.784  0.00  0.00    +0.000 A 
ATOM     32  C   UNL     1      -4.136  12.738  22.166  0.00  0.00    +0.000 A 
ATOM     33  C   UNL     1      -3.107  12.371  23.035  0.00  0.00    +0.000 A 
ATOM     34  C   UNL     1      -1.870  11.984  22.524  0.00  0.00    +0.000 A 
ENDBRANCH   3  29
TORSDOF 7
ENDMDL
MODEL 4
REMARK VINA RESULT:      -8.3      1.181      1.832
REMARK  Name = 
REMARK  8 active torsions:
REMARK  status: ('A' for Active; 'I' for Inactive)
REMARK    1  A    between atoms: C_1  and  O_2
REMARK    2  A    between atoms: O_2  and  C_3
REMARK    3  A    between atoms: C_5  and  C_6
REMARK    4  A    between atoms: N_8  and  C_9
REMARK    5  A    between atoms: N_15  and  C_16
REMARK    6  A    between atoms: C_26  and  O_27
REMARK    7  A    between atoms: O_27  and  C_28
REMARK    8  A    between atoms: C_28  and  C_29
REMARK                            x       y       z     vdW  Elec       q    Type
REMARK                         _______ _______ _______ _____ _____    ______ ____
ROOT
ATOM      1  C   UNL     1       1.124   9.607  19.616  0.00  0.00    +0.000 A 
ATOM      2  N   UNL     1       1.536  10.748  19.086  0.00  0.00    +0.000 NA
ATOM      3  N   UNL     1       0.813  11.654  19.814  0.00  0.00    +0.000 N 
ATOM      4  N   UNL     1      -0.037  11.023  20.591  0.00  0.00    +0.000 N 
ATOM      5  N   UNL     1       0.167   9.673  20.526  0.00  0.00    +0.000 NA
ENDROOT
BRANCH   4   6
ATOM      6  C   UNL     1      -1.201  11.565  21.269  0.00  0.00    +0.000 A 
ATOM      7  C   UNL     1      -1.291  11.434  22.653  0.00  0.00    +0.000 A 
ATOM      8  C   UNL     1      -2.412  11.946  23.303  0.00  0.00    +0.000 A 
ATOM      9  C   UNL     1      -3.408  12.590  22.569  0.00  0.00    +0.000 A 
ATOM     10 CL   UNL     1      -4.790  13.202  23.381  0.00  0.00    +0.000 Cl
ATOM     11  C   UNL     1      -3.288  12.743  21.184  0.00  0.00    +0.000 A 
ATOM     12  C   UNL     1      -2.166  12.237  20.523  0.00  0.00    +0.000 A 
ENDBRANCH   4   6
BRANCH   1  15
ATOM     13  C   UNL     1       2.311   6.046  19.943  0.00  0.00    +0.000 A 
ATOM     14  C   UNL     1       1.842   7.323  20.276  0.00  0.00    +0.000 A 
ATOM     15  C   UNL     1       1.803   8.351  19.324  0.00  0.00    +0.000 A 
ATOM     16  C   UNL     1       2.344   8.115  18.059  0.00  0.00    +0.000 A 
ATOM     17  C   UNL     1       2.901   6.878  17.753  0.00  0.00    +0.000 A 
ATOM     18  C   UNL     1       2.923   5.840  18.695  0.00  0.00    +0.000 A 
BRANCH  13  20
ATOM     19  C   UNL     1       1.060   4.132  20.572  0.00  0.00    +0.000 C 
ATOM     20  O   UNL     1       2.183   4.991  20.809  0.00  0.00    +0.000 OA
ENDBRANCH  13  20
BRANCH  18  21
ATOM     21  O   UNL     1       3.514   4.622  18.438  0.00  0.00    +0.000 OA
BRANCH  21  22
ATOM     22  C   UNL     1       4.949   4.641  18.483  0.00  0.00    +0.000 C 
BRANCH  22  23
ATOM     23  C   UNL     1       5.624   4.614  17.136  0.00  0.00    +0.000 A 
ATOM     24  C   UNL     1       6.943   5.028  16.947  0.00  0.00    +0.000 A 
ATOM     25  C   UNL     1       7.505   5.012  15.669  0.00  0.00    +0.000 A 
ATOM     26  C   UNL     1       6.759   4.571  14.575  0.00  0.00    +0.000 A 
ATOM     27  C   UNL     1       5.452   4.127  14.756  0.00  0.00    +0.000 A 
ATOM     28  C   UNL     1       4.890   4.141  16.030  0.00  0.00    +0.000 A 
ENDBRANCH  22  23
ENDBRANCH  21  22
ENDBRANCH  18  21
ENDBRANCH   1  15
BRANCH   3  29
ATOM     29  C   UNL     1       1.151  13.073  19.790  0.00  0.00    +0.000 A 
ATOM     30  C   UNL     1       1.994  13.564  20.787  0.00  0.00    +0.000 A 
ATOM     31  C   UNL     1       2.326  14.919  20.774  0.00  0.00    +0.000 A 
ATOM     32  C   UNL     1       1.802  15.756  19.787  0.00  0.00    +0.000 A 
ATOM     33  C   UNL     1       0.933  15.254  18.817  0.00  0.00    +0.000 A 
ATOM     34  C   UNL     1       0.591  13.903  18.821  0.00  0.00    +0.000 A 
ENDBRANCH   3  29
TORSDOF 7
ENDMDL
MODEL 5
REMARK VINA RESULT:      -8.3      1.560      3.663
REMARK  Name = 
REMARK  8 active torsions:
REMARK  status: ('A' for Active; 'I' for Inactive)
REMARK    1  A    between atoms: C_1  and  O_2
REMARK    2  A    between atoms: O_2  and  C_3
REMARK    3  A    between atoms: C_5  and  C_6
REMARK    4  A    between atoms: N_8  and  C_9
REMARK    5  A    between atoms: N_15  and  C_16
REMARK    6  A    between atoms: C_26  and  O_27
REMARK    7  A    between atoms: O_27  and  C_28
REMARK    8  A    between atoms: C_28  and  C_29
REMARK                            x       y       z     vdW  Elec       q    Type
REMARK                         _______ _______ _______ _____ _____    ______ ____
ROOT
ATOM      1  C   UNL     1       1.121  10.177  19.782  0.00  0.00    +0.000 A 
ATOM      2  N   UNL     1       0.173  10.195  20.706  0.00  0.00    +0.000 NA
ATOM      3  N   UNL     1      -0.247  11.496  20.628  0.00  0.00    +0.000 N 
ATOM      4  N   UNL     1       0.528  12.166  19.808  0.00  0.00    +0.000 N 
ATOM      5  N   UNL     1       1.413  11.325  19.193  0.00  0.00    +0.000 NA
ENDROOT
BRANCH   4   6
ATOM      6  C   UNL     1       0.663  13.606  19.680  0.00  0.00    +0.000 A 
ATOM      7  C   UNL     1       1.678  14.249  20.386  0.00  0.00    +0.000 A 
ATOM      8  C   UNL     1       1.802  15.632  20.269  0.00  0.00    +0.000 A 
ATOM      9  C   UNL     1       0.930  16.341  19.443  0.00  0.00    +0.000 A 
ATOM     10 CL   UNL     1       1.086  18.046  19.321  0.00  0.00    +0.000 Cl
ATOM     11  C   UNL     1      -0.061  15.677  18.713  0.00  0.00    +0.000 A 
ATOM     12  C   UNL     1      -0.192  14.290  18.820  0.00  0.00    +0.000 A 
ENDBRANCH   4   6
BRANCH   1  15
ATOM     13  C   UNL     1       2.279   6.592  19.763  0.00  0.00    +0.000 A 
ATOM     14  C   UNL     1       1.908   7.863  20.220  0.00  0.00    +0.000 A 
ATOM     15  C   UNL     1       1.706   8.923  19.325  0.00  0.00    +0.000 A 
ATOM     16  C   UNL     1       1.986   8.722  17.972  0.00  0.00    +0.000 A 
ATOM     17  C   UNL     1       2.449   7.490  17.526  0.00  0.00    +0.000 A 
ATOM     18  C   UNL     1       2.632   6.420  18.414  0.00  0.00    +0.000 A 
BRANCH  13  20
ATOM     19  C   UNL     1       1.175   4.628  20.505  0.00  0.00    +0.000 C 
ATOM     20  O   UNL     1       2.301   5.510  20.605  0.00  0.00    +0.000 OA
ENDBRANCH  13  20
BRANCH  18  21
ATOM     21  O   UNL     1       3.138   5.204  18.010  0.00  0.00    +0.000 OA
BRANCH  21  22
ATOM     22  C   UNL     1       4.218   5.297  17.067  0.00  0.00    +0.000 C 
BRANCH  22  23
ATOM     23  C   UNL     1       5.534   5.737  17.655  0.00  0.00    +0.000 A 
ATOM     24  C   UNL     1       6.092   5.137  18.785  0.00  0.00    +0.000 A 
ATOM     25  C   UNL     1       7.298   5.609  19.304  0.00  0.00    +0.000 A 
ATOM     26  C   UNL     1       7.961   6.675  18.693  0.00  0.00    +0.000 A 
ATOM     27  C   UNL     1       7.430   7.262  17.549  0.00  0.00    +0.000 A 
ATOM     28  C   UNL     1       6.227   6.791  17.027  0.00  0.00    +0.000 A 
ENDBRANCH  22  23
ENDBRANCH  21  22
ENDBRANCH  18  21
ENDBRANCH   1  15
BRANCH   3  29
ATOM     29  C   UNL     1      -1.494  11.917  21.257  0.00  0.00    +0.000 A 
ATOM     30  C   UNL     1      -1.595  11.824  22.645  0.00  0.00    +0.000 A 
ATOM     31  C   UNL     1      -2.782  12.226  23.258  0.00  0.00    +0.000 A 
ATOM     32  C   UNL     1      -3.845  12.691  22.481  0.00  0.00    +0.000 A 
ATOM     33  C   UNL     1      -3.739  12.745  21.090  0.00  0.00    +0.000 A 
ATOM     34  C   UNL     1      -2.560  12.344  20.466  0.00  0.00    +0.000 A 
ENDBRANCH   3  29
TORSDOF 7
ENDMDL
MODEL 6
REMARK VINA RESULT:      -8.3      1.074      1.770
REMARK  Name = 
REMARK  8 active torsions:
REMARK  status: ('A' for Active; 'I' for Inactive)
REMARK    1  A    between atoms: C_1  and  O_2
REMARK    2  A    between atoms: O_2  and  C_3
REMARK    3  A    between atoms: C_5  and  C_6
REMARK    4  A    between atoms: N_8  and  C_9
REMARK    5  A    between atoms: N_15  and  C_16
REMARK    6  A    between atoms: C_26  and  O_27
REMARK    7  A    between atoms: O_27  and  C_28
REMARK    8  A    between atoms: C_28  and  C_29
REMARK                            x       y       z     vdW  Elec       q    Type
REMARK                         _______ _______ _______ _____ _____    ______ ____
ROOT
ATOM      1  C   UNL     1       0.971   9.914  19.624  0.00  0.00    +0.000 A 
ATOM      2  N   UNL     1       1.323  11.068  19.079  0.00  0.00    +0.000 NA
ATOM      3  N   UNL     1       0.570  11.946  19.811  0.00  0.00    +0.000 N 
ATOM      4  N   UNL     1      -0.238  11.285  20.606  0.00  0.00    +0.000 N 
ATOM      5  N   UNL     1       0.026   9.945  20.549  0.00  0.00    +0.000 NA
ENDROOT
BRANCH   4   6
ATOM      6  C   UNL     1      -1.415  11.779  21.298  0.00  0.00    +0.000 A 
ATOM      7  C   UNL     1      -2.452  12.328  20.546  0.00  0.00    +0.000 A 
ATOM      8  C   UNL     1      -3.578  12.810  21.211  0.00  0.00    +0.000 A 
ATOM      9  C   UNL     1      -3.657  12.721  22.601  0.00  0.00    +0.000 A 
ATOM     10 CL   UNL     1      -5.043  13.332  23.407  0.00  0.00    +0.000 Cl
ATOM     11  C   UNL     1      -2.622  12.136  23.339  0.00  0.00    +0.000 A 
ATOM     12  C   UNL     1      -1.491  11.646  22.682  0.00  0.00    +0.000 A 
ENDBRANCH   4   6
BRANCH   1  15
ATOM     13  C   UNL     1       2.281   6.396  19.934  0.00  0.00    +0.000 A 
ATOM     14  C   UNL     1       1.759   7.650  20.272  0.00  0.00    +0.000 A 
ATOM     15  C   UNL     1       1.701   8.688  19.331  0.00  0.00    +0.000 A 
ATOM     16  C   UNL     1       2.274   8.486  18.074  0.00  0.00    +0.000 A 
ATOM     17  C   UNL     1       2.882   7.275  17.766  0.00  0.00    +0.000 A 
ATOM     18  C   UNL     1       2.924   6.227  18.696  0.00  0.00    +0.000 A 
BRANCH  13  20
ATOM     19  C   UNL     1       1.107   4.414  20.501  0.00  0.00    +0.000 C 
ATOM     20  O   UNL     1       2.175   5.326  20.786  0.00  0.00    +0.000 OA
ENDBRANCH  13  20
BRANCH  18  21
ATOM     21  O   UNL     1       3.564   5.035  18.437  0.00  0.00    +0.000 OA
BRANCH  21  22
ATOM     22  C   UNL     1       4.998   5.123  18.430  0.00  0.00    +0.000 C 
BRANCH  22  23
ATOM     23  C   UNL     1       5.638   4.906  17.083  0.00  0.00    +0.000 A 
ATOM     24  C   UNL     1       6.987   5.170  16.840  0.00  0.00    +0.000 A 
ATOM     25  C   UNL     1       7.517   4.981  15.563  0.00  0.00    +0.000 A 
ATOM     26  C   UNL     1       6.708   4.518  14.524  0.00  0.00    +0.000 A 
ATOM     27  C   UNL     1       5.369   4.223  14.762  0.00  0.00    +0.000 A 
ATOM     28  C   UNL     1       4.838   4.409  16.036  0.00  0.00    +0.000 A 
ENDBRANCH  22  23
ENDBRANCH  21  22
ENDBRANCH  18  21
ENDBRANCH   1  15
BRANCH   3  29
ATOM     29  C   UNL     1       0.844  13.378  19.771  0.00  0.00    +0.000 A 
ATOM     30  C   UNL     1       0.165  14.152  18.831  0.00  0.00    +0.000 A 
ATOM     31  C   UNL     1       0.418  15.523  18.784  0.00  0.00    +0.000 A 
ATOM     32  C   UNL     1       1.349  16.091  19.656  0.00  0.00    +0.000 A 
ATOM     33  C   UNL     1       2.045  15.296  20.568  0.00  0.00    +0.000 A 
ATOM     34  C   UNL     1       1.804  13.925  20.622  0.00  0.00    +0.000 A 
ENDBRANCH   3  29
TORSDOF 7
ENDMDL
MODEL 7
REMARK VINA RESULT:      -8.2      2.233      2.926
REMARK  Name = 
REMARK  8 active torsions:
REMARK  status: ('A' for Active; 'I' for Inactive)
REMARK    1  A    between atoms: C_1  and  O_2
REMARK    2  A    between atoms: O_2  and  C_3
REMARK    3  A    between atoms: C_5  and  C_6
REMARK    4  A    between atoms: N_8  and  C_9
REMARK    5  A    between atoms: N_15  and  C_16
REMARK    6  A    between atoms: C_26  and  O_27
REMARK    7  A    between atoms: O_27  and  C_28
REMARK    8  A    between atoms: C_28  and  C_29
REMARK                            x       y       z     vdW  Elec       q    Type
REMARK                         _______ _______ _______ _____ _____    ______ ____
ROOT
ATOM      1  C   UNL     1       1.070   9.620  18.595  0.00  0.00    +0.000 A 
ATOM      2  N   UNL     1       1.518  10.855  18.756  0.00  0.00    +0.000 NA
ATOM      3  N   UNL     1       0.344  11.556  18.821  0.00  0.00    +0.000 N 
ATOM      4  N   UNL     1      -0.666  10.756  18.569  0.00  0.00    +0.000 N 
ATOM      5  N   UNL     1      -0.237   9.463  18.461  0.00  0.00    +0.000 NA
ENDROOT
BRANCH   4   6
ATOM      6  C   UNL     1      -2.026  11.118  18.210  0.00  0.00    +0.000 A 
ATOM      7  C   UNL     1      -2.837  11.714  19.174  0.00  0.00    +0.000 A 
ATOM      8  C   UNL     1      -4.144  12.053  18.831  0.00  0.00    +0.000 A 
ATOM      9  C   UNL     1      -4.611  11.810  17.539  0.00  0.00    +0.000 A 
ATOM     10 CL   UNL     1      -6.228  12.218  17.137  0.00  0.00    +0.000 Cl
ATOM     11  C   UNL     1      -3.774  11.241  16.573  0.00  0.00    +0.000 A 
ATOM     12  C   UNL     1      -2.460  10.901  16.905  0.00  0.00    +0.000 A 
ENDBRANCH   4   6
BRANCH   1  15
ATOM     13  C   UNL     1       2.550   6.382  19.826  0.00  0.00    +0.000 A 
ATOM     14  C   UNL     1       1.844   7.591  19.799  0.00  0.00    +0.000 A 
ATOM     15  C   UNL     1       1.960   8.473  18.715  0.00  0.00    +0.000 A 
ATOM     16  C   UNL     1       2.880   8.179  17.707  0.00  0.00    +0.000 A 
ATOM     17  C   UNL     1       3.656   7.029  17.778  0.00  0.00    +0.000 A 
ATOM     18  C   UNL     1       3.528   6.133  18.848  0.00  0.00    +0.000 A 
BRANCH  13  20
ATOM     19  C   UNL     1       1.225   4.535  20.505  0.00  0.00    +0.000 C 
ATOM     20  O   UNL     1       2.306   5.435  20.787  0.00  0.00    +0.000 OA
ENDBRANCH  13  20
BRANCH  18  21
ATOM     21  O   UNL     1       4.320   5.012  18.972  0.00  0.00    +0.000 OA
BRANCH  21  22
ATOM     22  C   UNL     1       4.228   4.099  17.867  0.00  0.00    +0.000 C 
BRANCH  22  23
ATOM     23  C   UNL     1       5.252   4.315  16.782  0.00  0.00    +0.000 A 
ATOM     24  C   UNL     1       6.584   4.630  17.057  0.00  0.00    +0.000 A 
ATOM     25  C   UNL     1       7.480   4.851  16.011  0.00  0.00    +0.000 A 
ATOM     26  C   UNL     1       7.057   4.748  14.685  0.00  0.00    +0.000 A 
ATOM     27  C   UNL     1       5.739   4.404  14.398  0.00  0.00    +0.000 A 
ATOM     28  C   UNL     1       4.843   4.181  15.441  0.00  0.00    +0.000 A 
ENDBRANCH  22  23
ENDBRANCH  21  22
ENDBRANCH  18  21
ENDBRANCH   1  15
BRANCH   3  29
ATOM     29  C   UNL     1       0.322  12.935  19.295  0.00  0.00    +0.000 A 
ATOM     30  C   UNL     1       0.539  13.168  20.653  0.00  0.00    +0.000 A 
ATOM     31  C   UNL     1       0.522  14.483  21.117  0.00  0.00    +0.000 A 
ATOM     32  C   UNL     1       0.273  15.533  20.231  0.00  0.00    +0.000 A 
ATOM     33  C   UNL     1       0.024  15.279  18.881  0.00  0.00    +0.000 A 
ATOM     34  C   UNL     1       0.035  13.970  18.406  0.00  0.00    +0.000 A 
ENDBRANCH   3  29
TORSDOF 7
ENDMDL
MODEL 8
REMARK VINA RESULT:      -8.1      2.200      2.856
REMARK  Name = 
REMARK  8 active torsions:
REMARK  status: ('A' for Active; 'I' for Inactive)
REMARK    1  A    between atoms: C_1  and  O_2
REMARK    2  A    between atoms: O_2  and  C_3
REMARK    3  A    between atoms: C_5  and  C_6
REMARK    4  A    between atoms: N_8  and  C_9
REMARK    5  A    between atoms: N_15  and  C_16
REMARK    6  A    between atoms: C_26  and  O_27
REMARK    7  A    between atoms: O_27  and  C_28
REMARK    8  A    between atoms: C_28  and  C_29
REMARK                            x       y       z     vdW  Elec       q    Type
REMARK                         _______ _______ _______ _____ _____    ______ ____
ROOT
ATOM      1  C   UNL     1       0.970   9.686  18.664  0.00  0.00    +0.000 A 
ATOM      2  N   UNL     1       1.425  10.917  18.833  0.00  0.00    +0.000 NA
ATOM      3  N   UNL     1       0.254  11.624  18.896  0.00  0.00    +0.000 N 
ATOM      4  N   UNL     1      -0.759  10.832  18.637  0.00  0.00    +0.000 N 
ATOM      5  N   UNL     1      -0.337   9.536  18.525  0.00  0.00    +0.000 NA
ENDROOT
BRANCH   4   6
ATOM      6  C   UNL     1      -2.115  11.202  18.274  0.00  0.00    +0.000 A 
ATOM      7  C   UNL     1      -2.571  10.902  16.992  0.00  0.00    +0.000 A 
ATOM      8  C   UNL     1      -3.870  11.265  16.641  0.00  0.00    +0.000 A 
ATOM      9  C   UNL     1      -4.691  11.900  17.573  0.00  0.00    +0.000 A 
ATOM     10 CL   UNL     1      -6.282  12.355  17.122  0.00  0.00    +0.000 Cl
ATOM     11  C   UNL     1      -4.230  12.164  18.867  0.00  0.00    +0.000 A 
ATOM     12  C   UNL     1      -2.931  11.801  19.231  0.00  0.00    +0.000 A 
ENDBRANCH   4   6
BRANCH   1  15
ATOM     13  C   UNL     1       2.428   6.434  19.886  0.00  0.00    +0.000 A 
ATOM     14  C   UNL     1       1.728   7.647  19.862  0.00  0.00    +0.000 A 
ATOM     15  C   UNL     1       1.854   8.533  18.783  0.00  0.00    +0.000 A 
ATOM     16  C   UNL     1       2.776   8.238  17.777  0.00  0.00    +0.000 A 
ATOM     17  C   UNL     1       3.546   7.083  17.846  0.00  0.00    +0.000 A 
ATOM     18  C   UNL     1       3.408   6.183  18.912  0.00  0.00    +0.000 A 
BRANCH  13  20
ATOM     19  C   UNL     1       1.169   4.519  20.501  0.00  0.00    +0.000 C 
ATOM     20  O   UNL     1       2.174   5.483  20.842  0.00  0.00    +0.000 OA
ENDBRANCH  13  20
BRANCH  18  21
ATOM     21  O   UNL     1       4.193   5.057  19.033  0.00  0.00    +0.000 OA
BRANCH  21  22
ATOM     22  C   UNL     1       4.114   4.158  17.916  0.00  0.00    +0.000 C 
BRANCH  22  23
ATOM     23  C   UNL     1       5.187   4.347  16.875  0.00  0.00    +0.000 A 
ATOM     24  C   UNL     1       6.514   4.625  17.205  0.00  0.00    +0.000 A 
ATOM     25  C   UNL     1       7.459   4.822  16.197  0.00  0.00    +0.000 A 
ATOM     26  C   UNL     1       7.087   4.733  14.854  0.00  0.00    +0.000 A 
ATOM     27  C   UNL     1       5.773   4.426  14.513  0.00  0.00    +0.000 A 
ATOM     28  C   UNL     1       4.829   4.227  15.518  0.00  0.00    +0.000 A 
ENDBRANCH  22  23
ENDBRANCH  21  22
ENDBRANCH  18  21
ENDBRANCH   1  15
BRANCH   3  29
ATOM     29  C   UNL     1       0.239  13.002  19.376  0.00  0.00    +0.000 A 
ATOM     30  C   UNL     1       0.152  14.026  18.434  0.00  0.00    +0.000 A 
ATOM     31  C   UNL     1       0.135  15.347  18.881  0.00  0.00    +0.000 A 
ATOM     32  C   UNL     1       0.222  15.622  20.246  0.00  0.00    +0.000 A 
ATOM     33  C   UNL     1       0.342  14.586  21.174  0.00  0.00    +0.000 A 
ATOM     34  C   UNL     1       0.364  13.263  20.740  0.00  0.00    +0.000 A 
ENDBRANCH   3  29
TORSDOF 7
ENDMDL
MODEL 9
REMARK VINA RESULT:      -8.1      0.982      1.435
REMARK  Name = 
REMARK  8 active torsions:
REMARK  status: ('A' for Active; 'I' for Inactive)
REMARK    1  A    between atoms: C_1  and  O_2
REMARK    2  A    between atoms: O_2  and  C_3
REMARK    3  A    between atoms: C_5  and  C_6
REMARK    4  A    between atoms: N_8  and  C_9
REMARK    5  A    between atoms: N_15  and  C_16
REMARK    6  A    between atoms: C_26  and  O_27
REMARK    7  A    between atoms: O_27  and  C_28
REMARK    8  A    between atoms: C_28  and  C_29
REMARK                            x       y       z     vdW  Elec       q    Type
REMARK                         _______ _______ _______ _____ _____    ______ ____
ROOT
ATOM      1  C   UNL     1       0.706  10.140  19.774  0.00  0.00    +0.000 A 
ATOM      2  N   UNL     1       0.996  11.295  19.197  0.00  0.00    +0.000 NA
ATOM      3  N   UNL     1       0.197  12.152  19.906  0.00  0.00    +0.000 N 
ATOM      4  N   UNL     1      -0.575  11.470  20.719  0.00  0.00    +0.000 N 
ATOM      5  N   UNL     1      -0.240  10.145  20.699  0.00  0.00    +0.000 NA
ENDROOT
BRANCH   4   6
ATOM      6  C   UNL     1      -1.777  11.920  21.399  0.00  0.00    +0.000 A 
ATOM      7  C   UNL     1      -1.831  11.835  22.789  0.00  0.00    +0.000 A 
ATOM      8  C   UNL     1      -2.988  12.259  23.440  0.00  0.00    +0.000 A 
ATOM      9  C   UNL     1      -4.055  12.771  22.701  0.00  0.00    +0.000 A 
ATOM     10 CL   UNL     1      -5.479  13.274  23.516  0.00  0.00    +0.000 Cl
ATOM     11  C   UNL     1      -3.972  12.881  21.310  0.00  0.00    +0.000 A 
ATOM     12  C   UNL     1      -2.816  12.463  20.647  0.00  0.00    +0.000 A 
ENDBRANCH   4   6
BRANCH   1  15
ATOM     13  C   UNL     1       2.140   6.675  20.134  0.00  0.00    +0.000 A 
ATOM     14  C   UNL     1       1.549   7.904  20.451  0.00  0.00    +0.000 A 
ATOM     15  C   UNL     1       1.501   8.947  19.515  0.00  0.00    +0.000 A 
ATOM     16  C   UNL     1       2.151   8.780  18.290  0.00  0.00    +0.000 A 
ATOM     17  C   UNL     1       2.825   7.597  18.008  0.00  0.00    +0.000 A 
ATOM     18  C   UNL     1       2.857   6.543  18.933  0.00  0.00    +0.000 A 
BRANCH  13  20
ATOM     19  C   UNL     1       1.137   4.563  20.533  0.00  0.00    +0.000 C 
ATOM     20  O   UNL     1       2.031   5.594  20.971  0.00  0.00    +0.000 OA
ENDBRANCH  13  20
BRANCH  18  21
ATOM     21  O   UNL     1       3.559   5.380  18.702  0.00  0.00    +0.000 OA
BRANCH  21  22
ATOM     22  C   UNL     1       3.475   4.897  17.352  0.00  0.00    +0.000 C 
BRANCH  22  23
ATOM     23  C   UNL     1       4.784   4.868  16.608  0.00  0.00    +0.000 A 
ATOM     24  C   UNL     1       4.995   4.063  15.487  0.00  0.00    +0.000 A 
ATOM     25  C   UNL     1       6.240   4.053  14.857  0.00  0.00    +0.000 A 
ATOM     26  C   UNL     1       7.279   4.854  15.335  0.00  0.00    +0.000 A 
ATOM     27  C   UNL     1       7.072   5.683  16.433  0.00  0.00    +0.000 A 
ATOM     28  C   UNL     1       5.829   5.696  17.062  0.00  0.00    +0.000 A 
ENDBRANCH  22  23
ENDBRANCH  21  22
ENDBRANCH  18  21
ENDBRANCH   1  15
BRANCH   3  29
ATOM     29  C   UNL     1       0.394  13.595  19.826  0.00  0.00    +0.000 A 
ATOM     30  C   UNL     1      -0.207  14.284  18.773  0.00  0.00    +0.000 A 
ATOM     31  C   UNL     1      -0.028  15.665  18.687  0.00  0.00    +0.000 A 
ATOM     32  C   UNL     1       0.757  16.326  19.634  0.00  0.00    +0.000 A 
ATOM     33  C   UNL     1       1.380  15.616  20.662  0.00  0.00    +0.000 A 
ATOM     34  C   UNL     1       1.210  14.236  20.757  0.00  0.00    +0.000 A 
ENDBRANCH   3  29
TORSDOF 7
ENDMDL
