MODEL 1
REMARK VINA RESULT:      -8.3      0.000      0.000
REMARK  Name = 
REMARK  4 active torsions:
REMARK  status: ('A' for Active; 'I' for Inactive)
REMARK    1  A    between atoms: C_1  and  C_2
REMARK    2  A    between atoms: C_2  and  C_3
REMARK    3  A    between atoms: C_3  and  C_4
REMARK    4  A    between atoms: C_14  and  C_15
REMARK                            x       y       z     vdW  Elec       q    Type
REMARK                         _______ _______ _______ _____ _____    ______ ____
ROOT
ATOM      1  C   UNL     1       5.347   3.029  12.046  0.00  0.00    +0.000 C 
ATOM      2  O   UNL     1       4.364   3.710  12.323  0.00  0.00    +0.000 OA
ATOM      3  N   UNL     1       6.592   3.143  12.619  0.00  0.00    +0.000 N 
ATOM      4  C   UNL     1       6.845   4.084  13.590  0.00  0.00    +0.000 A 
ATOM      5  N   UNL     1       7.975   4.789  13.512  0.00  0.00    +0.000 NA
ATOM      6  N   UNL     1       7.860   5.679  14.509  0.00  0.00    +0.000 N 
ATOM      7  C   UNL     1       6.800   5.448  15.338  0.00  0.00    +0.000 A 
ATOM      8  C   UNL     1       6.408   6.052  16.531  0.00  0.00    +0.000 A 
ATOM      9  C   UNL     1       5.319   5.487  17.227  0.00  0.00    +0.000 A 
ATOM     10 CL   UNL     1       5.054   6.187  18.795  0.00  0.00    +0.000 Cl
ATOM     11  C   UNL     1       4.575   4.391  16.722  0.00  0.00    +0.000 A 
ATOM     12  C   UNL     1       4.970   3.884  15.452  0.00  0.00    +0.000 A 
ATOM     13  C   UNL     1       6.100   4.390  14.773  0.00  0.00    +0.000 A 
ATOM     14  H   UNL     1       7.397   2.936  12.046  0.00  0.00    +0.000 HD
ATOM     15  H   UNL     1       8.568   6.398  14.597  0.00  0.00    +0.000 HD
ENDROOT
BRANCH  11  16
ATOM     16  C   UNL     1       3.467   3.710  17.462  0.00  0.00    +0.000 A 
ATOM     17  C   UNL     1       3.585   2.403  17.977  0.00  0.00    +0.000 A 
ATOM     18  C   UNL     1       2.504   1.742  18.574  0.00  0.00    +0.000 A 
ATOM     19  C   UNL     1       1.297   2.403  18.729  0.00  0.00    +0.000 A 
ATOM     20  F   UNL     1       0.263   1.772  19.301  0.00  0.00    +0.000 F 
ATOM     21  C   UNL     1       1.152   3.711  18.299  0.00  0.00    +0.000 A 
ATOM     22  C   UNL     1       2.224   4.353  17.662  0.00  0.00    +0.000 A 
ENDBRANCH  11  16
BRANCH   1  23
ATOM     23  C   UNL     1       5.273   1.927  11.011  0.00  0.00    +0.000 C 
BRANCH  23  25
ATOM     24  C   UNL     1       6.099  -0.446  11.323  0.00  0.00    +0.000 C 
ATOM     25  C   UNL     1       6.489   1.011  11.095  0.00  0.00    +0.000 C 
ENDBRANCH  23  25
ENDBRANCH   1  23
TORSDOF 3
ENDMDL
MODEL 2
REMARK VINA RESULT:      -8.3      0.160      1.013
REMARK  Name = 
REMARK  4 active torsions:
REMARK  status: ('A' for Active; 'I' for Inactive)
REMARK    1  A    between atoms: C_1  and  C_2
REMARK    2  A    between atoms: C_2  and  C_3
REMARK    3  A    between atoms: C_3  and  C_4
REMARK    4  A    between atoms: C_14  and  C_15
REMARK                            x       y       z     vdW  Elec       q    Type
REMARK                         _______ _______ _______ _____ _____    ______ ____
ROOT
ATOM      1  C   UNL     1       5.376   3.098  12.104  0.00  0.00    +0.000 C 
ATOM      2  O   UNL     1       4.379   3.766  12.362  0.00  0.00    +0.000 OA
ATOM      3  N   UNL     1       6.604   3.221  12.711  0.00  0.00    +0.000 N 
ATOM      4  C   UNL     1       6.822   4.154  13.698  0.00  0.00    +0.000 A 
ATOM      5  N   UNL     1       7.945   4.872  13.656  0.00  0.00    +0.000 NA
ATOM      6  N   UNL     1       7.794   5.750  14.660  0.00  0.00    +0.000 N 
ATOM      7  C   UNL     1       6.716   5.499  15.458  0.00  0.00    +0.000 A 
ATOM      8  C   UNL     1       6.285   6.086  16.646  0.00  0.00    +0.000 A 
ATOM      9  C   UNL     1       5.186   5.502  17.307  0.00  0.00    +0.000 A 
ATOM     10 CL   UNL     1       4.871   6.183  18.875  0.00  0.00    +0.000 Cl
ATOM     11  C   UNL     1       4.467   4.404  16.772  0.00  0.00    +0.000 A 
ATOM     12  C   UNL     1       4.901   3.914  15.508  0.00  0.00    +0.000 A 
ATOM     13  C   UNL     1       6.043   4.439  14.864  0.00  0.00    +0.000 A 
ATOM     14  H   UNL     1       7.427   3.028  12.158  0.00  0.00    +0.000 HD
ATOM     15  H   UNL     1       8.491   6.476  14.773  0.00  0.00    +0.000 HD
ENDROOT
BRANCH  11  16
ATOM     16  C   UNL     1       3.348   3.703  17.476  0.00  0.00    +0.000 A 
ATOM     17  C   UNL     1       2.072   4.278  17.640  0.00  0.00    +0.000 A 
ATOM     18  C   UNL     1       1.068   3.654  18.393  0.00  0.00    +0.000 A 
ATOM     19  C   UNL     1       1.302   2.404  18.943  0.00  0.00    +0.000 A 
ATOM     20  F   UNL     1       0.342   1.806  19.661  0.00  0.00    +0.000 F 
ATOM     21  C   UNL     1       2.517   1.769  18.753  0.00  0.00    +0.000 A 
ATOM     22  C   UNL     1       3.532   2.418  18.036  0.00  0.00    +0.000 A 
ENDBRANCH  11  16
BRANCH   1  23
ATOM     23  C   UNL     1       5.342   2.008  11.057  0.00  0.00    +0.000 C 
BRANCH  23  25
ATOM     24  C   UNL     1       6.162  -0.373  11.327  0.00  0.00    +0.000 C 
ATOM     25  C   UNL     1       6.556   1.093  11.175  0.00  0.00    +0.000 C 
ENDBRANCH  23  25
ENDBRANCH   1  23
TORSDOF 3
ENDMDL
MODEL 3
REMARK VINA RESULT:      -7.5      0.995      1.483
REMARK  Name = 
REMARK  4 active torsions:
REMARK  status: ('A' for Active; 'I' for Inactive)
REMARK    1  A    between atoms: C_1  and  C_2
REMARK    2  A    between atoms: C_2  and  C_3
REMARK    3  A    between atoms: C_3  and  C_4
REMARK    4  A    between atoms: C_14  and  C_15
REMARK                            x       y       z     vdW  Elec       q    Type
REMARK                         _______ _______ _______ _____ _____    ______ ____
ROOT
ATOM      1  C   UNL     1       5.001   3.602  12.209  0.00  0.00    +0.000 C 
ATOM      2  O   UNL     1       4.139   4.357  12.650  0.00  0.00    +0.000 OA
ATOM      3  N   UNL     1       6.280   3.472  12.696  0.00  0.00    +0.000 N 
ATOM      4  C   UNL     1       6.717   4.223  13.762  0.00  0.00    +0.000 A 
ATOM      5  N   UNL     1       7.927   4.779  13.693  0.00  0.00    +0.000 NA
ATOM      6  N   UNL     1       7.994   5.525  14.807  0.00  0.00    +0.000 N 
ATOM      7  C   UNL     1       6.963   5.316  15.676  0.00  0.00    +0.000 A 
ATOM      8  C   UNL     1       6.727   5.788  16.966  0.00  0.00    +0.000 A 
ATOM      9  C   UNL     1       5.613   5.274  17.660  0.00  0.00    +0.000 A 
ATOM     10 CL   UNL     1       5.538   5.770  19.324  0.00  0.00    +0.000 Cl
ATOM     11  C   UNL     1       4.696   4.368  17.071  0.00  0.00    +0.000 A 
ATOM     12  C   UNL     1       4.943   4.001  15.719  0.00  0.00    +0.000 A 
ATOM     13  C   UNL     1       6.091   4.449  15.028  0.00  0.00    +0.000 A 
ATOM     14  H   UNL     1       7.015   3.247  12.040  0.00  0.00    +0.000 HD
ATOM     15  H   UNL     1       8.799   6.126  14.936  0.00  0.00    +0.000 HD
ENDROOT
BRANCH  11  16
ATOM     16  C   UNL     1       3.549   3.736  17.796  0.00  0.00    +0.000 A 
ATOM     17  C   UNL     1       3.559   2.389  18.210  0.00  0.00    +0.000 A 
ATOM     18  C   UNL     1       2.436   1.785  18.793  0.00  0.00    +0.000 A 
ATOM     19  C   UNL     1       1.300   2.539  19.034  0.00  0.00    +0.000 A 
ATOM     20  F   UNL     1       0.228   1.963  19.593  0.00  0.00    +0.000 F 
ATOM     21  C   UNL     1       1.267   3.884  18.706  0.00  0.00    +0.000 A 
ATOM     22  C   UNL     1       2.377   4.472  18.083  0.00  0.00    +0.000 A 
ENDBRANCH  11  16
BRANCH   1  23
ATOM     23  C   UNL     1       4.715   2.680  11.045  0.00  0.00    +0.000 C 
BRANCH  23  25
ATOM     24  C   UNL     1       3.133   3.991   9.563  0.00  0.00    +0.000 C 
ATOM     25  C   UNL     1       3.279   2.841  10.555  0.00  0.00    +0.000 C 
ENDBRANCH  23  25
ENDBRANCH   1  23
TORSDOF 3
ENDMDL
MODEL 4
REMARK VINA RESULT:      -7.4      1.023      1.801
REMARK  Name = 
REMARK  4 active torsions:
REMARK  status: ('A' for Active; 'I' for Inactive)
REMARK    1  A    between atoms: C_1  and  C_2
REMARK    2  A    between atoms: C_2  and  C_3
REMARK    3  A    between atoms: C_3  and  C_4
REMARK    4  A    between atoms: C_14  and  C_15
REMARK                            x       y       z     vdW  Elec       q    Type
REMARK                         _______ _______ _______ _____ _____    ______ ____
ROOT
ATOM      1  C   UNL     1       4.991   3.593  12.218  0.00  0.00    +0.000 C 
ATOM      2  O   UNL     1       4.130   4.351  12.657  0.00  0.00    +0.000 OA
ATOM      3  N   UNL     1       6.270   3.462  12.706  0.00  0.00    +0.000 N 
ATOM      4  C   UNL     1       6.708   4.215  13.770  0.00  0.00    +0.000 A 
ATOM      5  N   UNL     1       7.919   4.770  13.700  0.00  0.00    +0.000 NA
ATOM      6  N   UNL     1       7.987   5.518  14.812  0.00  0.00    +0.000 N 
ATOM      7  C   UNL     1       6.955   5.313  15.681  0.00  0.00    +0.000 A 
ATOM      8  C   UNL     1       6.719   5.789  16.969  0.00  0.00    +0.000 A 
ATOM      9  C   UNL     1       5.604   5.278  17.665  0.00  0.00    +0.000 A 
ATOM     10 CL   UNL     1       5.530   5.779  19.328  0.00  0.00    +0.000 Cl
ATOM     11  C   UNL     1       4.686   4.372  17.078  0.00  0.00    +0.000 A 
ATOM     12  C   UNL     1       4.933   4.001  15.727  0.00  0.00    +0.000 A 
ATOM     13  C   UNL     1       6.082   4.446  15.036  0.00  0.00    +0.000 A 
ATOM     14  H   UNL     1       7.004   3.234  12.051  0.00  0.00    +0.000 HD
ATOM     15  H   UNL     1       8.792   6.118  14.940  0.00  0.00    +0.000 HD
ENDROOT
BRANCH  11  16
ATOM     16  C   UNL     1       3.538   3.745  17.805  0.00  0.00    +0.000 A 
ATOM     17  C   UNL     1       2.249   4.315  17.829  0.00  0.00    +0.000 A 
ATOM     18  C   UNL     1       1.213   3.771  18.600  0.00  0.00    +0.000 A 
ATOM     19  C   UNL     1       1.429   2.603  19.312  0.00  0.00    +0.000 A 
ATOM     20  F   UNL     1       0.438   2.081  20.047  0.00  0.00    +0.000 F 
ATOM     21  C   UNL     1       2.659   1.969  19.265  0.00  0.00    +0.000 A 
ATOM     22  C   UNL     1       3.705   2.542  18.528  0.00  0.00    +0.000 A 
ENDBRANCH  11  16
BRANCH   1  23
ATOM     23  C   UNL     1       4.704   2.668  11.056  0.00  0.00    +0.000 C 
BRANCH  23  25
ATOM     24  C   UNL     1       3.119   3.988   9.586  0.00  0.00    +0.000 C 
ATOM     25  C   UNL     1       3.268   2.829  10.567  0.00  0.00    +0.000 C 
ENDBRANCH  23  25
ENDBRANCH   1  23
TORSDOF 3
ENDMDL
MODEL 5
REMARK VINA RESULT:      -7.3      6.635      9.490
REMARK  Name = 
REMARK  4 active torsions:
REMARK  status: ('A' for Active; 'I' for Inactive)
REMARK    1  A    between atoms: C_1  and  C_2
REMARK    2  A    between atoms: C_2  and  C_3
REMARK    3  A    between atoms: C_3  and  C_4
REMARK    4  A    between atoms: C_14  and  C_15
REMARK                            x       y       z     vdW  Elec       q    Type
REMARK                         _______ _______ _______ _____ _____    ______ ____
ROOT
ATOM      1  C   UNL     1       0.042  10.309  22.031  0.00  0.00    +0.000 C 
ATOM      2  O   UNL     1       1.175   9.961  22.351  0.00  0.00    +0.000 OA
ATOM      3  N   UNL     1      -0.416  10.468  20.744  0.00  0.00    +0.000 N 
ATOM      4  C   UNL     1       0.405  10.246  19.663  0.00  0.00    +0.000 A 
ATOM      5  N   UNL     1       0.382  11.123  18.658  0.00  0.00    +0.000 NA
ATOM      6  N   UNL     1       1.360  10.693  17.844  0.00  0.00    +0.000 N 
ATOM      7  C   UNL     1       1.872   9.476  18.188  0.00  0.00    +0.000 A 
ATOM      8  C   UNL     1       2.791   8.643  17.553  0.00  0.00    +0.000 A 
ATOM      9  C   UNL     1       3.016   7.368  18.108  0.00  0.00    +0.000 A 
ATOM     10 CL   UNL     1       4.016   6.343  17.122  0.00  0.00    +0.000 Cl
ATOM     11  C   UNL     1       2.408   6.941  19.315  0.00  0.00    +0.000 A 
ATOM     12  C   UNL     1       1.554   7.876  19.963  0.00  0.00    +0.000 A 
ATOM     13  C   UNL     1       1.260   9.132  19.387  0.00  0.00    +0.000 A 
ATOM     14  H   UNL     1      -1.113  11.178  20.574  0.00  0.00    +0.000 HD
ATOM     15  H   UNL     1       1.601  11.260  17.041  0.00  0.00    +0.000 HD
ENDROOT
BRANCH  11  16
ATOM     16  C   UNL     1       2.555   5.569  19.896  0.00  0.00    +0.000 A 
ATOM     17  C   UNL     1       3.703   4.776  19.694  0.00  0.00    +0.000 A 
ATOM     18  C   UNL     1       3.780   3.455  20.156  0.00  0.00    +0.000 A 
ATOM     19  C   UNL     1       2.733   2.923  20.891  0.00  0.00    +0.000 A 
ATOM     20  F   UNL     1       2.808   1.661  21.334  0.00  0.00    +0.000 F 
ATOM     21  C   UNL     1       1.613   3.687  21.172  0.00  0.00    +0.000 A 
ATOM     22  C   UNL     1       1.522   4.993  20.669  0.00  0.00    +0.000 A 
ENDBRANCH  11  16
BRANCH   1  23
ATOM     23  C   UNL     1      -1.017  10.590  23.074  0.00  0.00    +0.000 C 
BRANCH  23  25
ATOM     24  C   UNL     1      -2.949  12.190  23.423  0.00  0.00    +0.000 C 
ATOM     25  C   UNL     1      -1.491  12.038  23.001  0.00  0.00    +0.000 C 
ENDBRANCH  23  25
ENDBRANCH   1  23
TORSDOF 3
ENDMDL
MODEL 6
REMARK VINA RESULT:      -7.3      6.515      9.375
REMARK  Name = 
REMARK  4 active torsions:
REMARK  status: ('A' for Active; 'I' for Inactive)
REMARK    1  A    between atoms: C_1  and  C_2
REMARK    2  A    between atoms: C_2  and  C_3
REMARK    3  A    between atoms: C_3  and  C_4
REMARK    4  A    between atoms: C_14  and  C_15
REMARK                            x       y       z     vdW  Elec       q    Type
REMARK                         _______ _______ _______ _____ _____    ______ ____
ROOT
ATOM      1  C   UNL     1       0.252  10.218  22.047  0.00  0.00    +0.000 C 
ATOM      2  O   UNL     1       1.359   9.797  22.371  0.00  0.00    +0.000 OA
ATOM      3  N   UNL     1      -0.194  10.397  20.758  0.00  0.00    +0.000 N 
ATOM      4  C   UNL     1       0.611  10.113  19.680  0.00  0.00    +0.000 A 
ATOM      5  N   UNL     1       0.648  10.982  18.669  0.00  0.00    +0.000 NA
ATOM      6  N   UNL     1       1.595  10.483  17.859  0.00  0.00    +0.000 N 
ATOM      7  C   UNL     1       2.024   9.236  18.213  0.00  0.00    +0.000 A 
ATOM      8  C   UNL     1       2.886   8.340  17.584  0.00  0.00    +0.000 A 
ATOM      9  C   UNL     1       3.025   7.056  18.149  0.00  0.00    +0.000 A 
ATOM     10 CL   UNL     1       3.955   5.960  17.171  0.00  0.00    +0.000 Cl
ATOM     11  C   UNL     1       2.389   6.679  19.358  0.00  0.00    +0.000 A 
ATOM     12  C   UNL     1       1.599   7.674  19.998  0.00  0.00    +0.000 A 
ATOM     13  C   UNL     1       1.390   8.943  19.413  0.00  0.00    +0.000 A 
ATOM     14  H   UNL     1      -0.842  11.152  20.583  0.00  0.00    +0.000 HD
ATOM     15  H   UNL     1       1.873  11.027  17.052  0.00  0.00    +0.000 HD
ENDROOT
BRANCH  11  16
ATOM     16  C   UNL     1       2.444   5.305  19.949  0.00  0.00    +0.000 A 
ATOM     17  C   UNL     1       1.364   4.735  20.653  0.00  0.00    +0.000 A 
ATOM     18  C   UNL     1       1.470   3.492  21.290  0.00  0.00    +0.000 A 
ATOM     19  C   UNL     1       2.641   2.761  21.178  0.00  0.00    +0.000 A 
ATOM     20  F   UNL     1       2.741   1.571  21.785  0.00  0.00    +0.000 F 
ATOM     21  C   UNL     1       3.705   3.250  20.440  0.00  0.00    +0.000 A 
ATOM     22  C   UNL     1       3.610   4.514  19.842  0.00  0.00    +0.000 A 
ENDBRANCH  11  16
BRANCH   1  23
ATOM     23  C   UNL     1      -0.787  10.575  23.087  0.00  0.00    +0.000 C 
BRANCH  23  25
ATOM     24  C   UNL     1      -1.216  13.071  23.100  0.00  0.00    +0.000 C 
ATOM     25  C   UNL     1      -1.685  11.708  22.600  0.00  0.00    +0.000 C 
ENDBRANCH  23  25
ENDBRANCH   1  23
TORSDOF 3
ENDMDL
MODEL 7
REMARK VINA RESULT:      -7.2      8.077     10.170
REMARK  Name = 
REMARK  4 active torsions:
REMARK  status: ('A' for Active; 'I' for Inactive)
REMARK    1  A    between atoms: C_1  and  C_2
REMARK    2  A    between atoms: C_2  and  C_3
REMARK    3  A    between atoms: C_3  and  C_4
REMARK    4  A    between atoms: C_14  and  C_15
REMARK                            x       y       z     vdW  Elec       q    Type
REMARK                         _______ _______ _______ _____ _____    ______ ____
ROOT
ATOM      1  C   UNL     1      -3.103  10.811  17.215  0.00  0.00    +0.000 C 
ATOM      2  O   UNL     1      -3.103   9.686  17.706  0.00  0.00    +0.000 OA
ATOM      3  N   UNL     1      -2.639  11.953  17.823  0.00  0.00    +0.000 N 
ATOM      4  C   UNL     1      -2.123  11.923  19.097  0.00  0.00    +0.000 A 
ATOM      5  N   UNL     1      -2.488  12.877  19.954  0.00  0.00    +0.000 NA
ATOM      6  N   UNL     1      -1.922  12.497  21.110  0.00  0.00    +0.000 N 
ATOM      7  C   UNL     1      -1.054  11.451  20.983  0.00  0.00    +0.000 A 
ATOM      8  C   UNL     1      -0.191  10.846  21.894  0.00  0.00    +0.000 A 
ATOM      9  C   UNL     1       0.687   9.855  21.411  0.00  0.00    +0.000 A 
ATOM     10 CL   UNL     1       1.855   9.324  22.584  0.00  0.00    +0.000 Cl
ATOM     11  C   UNL     1       0.666   9.405  20.067  0.00  0.00    +0.000 A 
ATOM     12  C   UNL     1      -0.306   9.996  19.212  0.00  0.00    +0.000 A 
ATOM     13  C   UNL     1      -1.146  11.040  19.659  0.00  0.00    +0.000 A 
ATOM     14  H   UNL     1      -3.095  12.827  17.600  0.00  0.00    +0.000 HD
ATOM     15  H   UNL     1      -2.135  13.025  21.947  0.00  0.00    +0.000 HD
ENDROOT
BRANCH  11  16
ATOM     16  C   UNL     1       1.631   8.415  19.493  0.00  0.00    +0.000 A 
ATOM     17  C   UNL     1       2.287   8.617  18.262  0.00  0.00    +0.000 A 
ATOM     18  C   UNL     1       3.105   7.634  17.689  0.00  0.00    +0.000 A 
ATOM     19  C   UNL     1       3.336   6.451  18.372  0.00  0.00    +0.000 A 
ATOM     20  F   UNL     1       4.119   5.512  17.825  0.00  0.00    +0.000 F 
ATOM     21  C   UNL     1       2.767   6.235  19.615  0.00  0.00    +0.000 A 
ATOM     22  C   UNL     1       1.914   7.203  20.163  0.00  0.00    +0.000 A 
ENDBRANCH  11  16
BRANCH   1  23
ATOM     23  C   UNL     1      -3.618  11.055  15.813  0.00  0.00    +0.000 C 
BRANCH  23  25
ATOM     24  C   UNL     1      -3.804  10.017  13.511  0.00  0.00    +0.000 C 
ATOM     25  C   UNL     1      -3.039  10.042  14.831  0.00  0.00    +0.000 C 
ENDBRANCH  23  25
ENDBRANCH   1  23
TORSDOF 3
ENDMDL
MODEL 8
REMARK VINA RESULT:      -7.1      6.559      8.584
REMARK  Name = 
REMARK  4 active torsions:
REMARK  status: ('A' for Active; 'I' for Inactive)
REMARK    1  A    between atoms: C_1  and  C_2
REMARK    2  A    between atoms: C_2  and  C_3
REMARK    3  A    between atoms: C_3  and  C_4
REMARK    4  A    between atoms: C_14  and  C_15
REMARK                            x       y       z     vdW  Elec       q    Type
REMARK                         _______ _______ _______ _____ _____    ______ ____
ROOT
ATOM      1  C   UNL     1       1.956   4.814  20.696  0.00  0.00    +0.000 C 
ATOM      2  O   UNL     1       0.805   5.119  20.395  0.00  0.00    +0.000 OA
ATOM      3  N   UNL     1       3.097   5.414  20.218  0.00  0.00    +0.000 N 
ATOM      4  C   UNL     1       3.033   6.448  19.314  0.00  0.00    +0.000 A 
ATOM      5  N   UNL     1       3.869   6.435  18.274  0.00  0.00    +0.000 NA
ATOM      6  N   UNL     1       3.473   7.487  17.540  0.00  0.00    +0.000 N 
ATOM      7  C   UNL     1       2.554   8.281  18.161  0.00  0.00    +0.000 A 
ATOM      8  C   UNL     1       1.992   9.504  17.801  0.00  0.00    +0.000 A 
ATOM      9  C   UNL     1       1.154  10.144  18.738  0.00  0.00    +0.000 A 
ATOM     10 CL   UNL     1       0.683  11.750  18.270  0.00  0.00    +0.000 Cl
ATOM     11  C   UNL     1       0.808   9.556  19.980  0.00  0.00    +0.000 A 
ATOM     12  C   UNL     1       1.340   8.263  20.243  0.00  0.00    +0.000 A 
ATOM     13  C   UNL     1       2.236   7.636  19.350  0.00  0.00    +0.000 A 
ATOM     14  H   UNL     1       3.923   4.842  20.111  0.00  0.00    +0.000 HD
ATOM     15  H   UNL     1       3.907   7.633  16.637  0.00  0.00    +0.000 HD
ENDROOT
BRANCH  11  16
ATOM     16  C   UNL     1      -0.011  10.232  21.035  0.00  0.00    +0.000 A 
ATOM     17  C   UNL     1      -0.077   9.766  22.364  0.00  0.00    +0.000 A 
ATOM     18  C   UNL     1      -0.929  10.347  23.311  0.00  0.00    +0.000 A 
ATOM     19  C   UNL     1      -1.687  11.454  22.964  0.00  0.00    +0.000 A 
ATOM     20  F   UNL     1      -2.501  12.011  23.871  0.00  0.00    +0.000 F 
ATOM     21  C   UNL     1      -1.605  11.989  21.690  0.00  0.00    +0.000 A 
ATOM     22  C   UNL     1      -0.784  11.376  20.733  0.00  0.00    +0.000 A 
ENDBRANCH  11  16
BRANCH   1  23
ATOM     23  C   UNL     1       2.241   3.708  21.688  0.00  0.00    +0.000 C 
BRANCH  23  25
ATOM     24  C   UNL     1       1.889   2.050  19.807  0.00  0.00    +0.000 C 
ATOM     25  C   UNL     1       1.582   2.401  21.259  0.00  0.00    +0.000 C 
ENDBRANCH  23  25
ENDBRANCH   1  23
TORSDOF 3
ENDMDL
MODEL 9
REMARK VINA RESULT:      -7.1      8.092     10.156
REMARK  Name = 
REMARK  4 active torsions:
REMARK  status: ('A' for Active; 'I' for Inactive)
REMARK    1  A    between atoms: C_1  and  C_2
REMARK    2  A    between atoms: C_2  and  C_3
REMARK    3  A    between atoms: C_3  and  C_4
REMARK    4  A    between atoms: C_14  and  C_15
REMARK                            x       y       z     vdW  Elec       q    Type
REMARK                         _______ _______ _______ _____ _____    ______ ____
ROOT
ATOM      1  C   UNL     1      -3.171  10.808  17.190  0.00  0.00    +0.000 C 
ATOM      2  O   UNL     1      -3.188   9.696  17.711  0.00  0.00    +0.000 OA
ATOM      3  N   UNL     1      -2.675  11.956  17.762  0.00  0.00    +0.000 N 
ATOM      4  C   UNL     1      -2.142  11.947  19.030  0.00  0.00    +0.000 A 
ATOM      5  N   UNL     1      -2.475  12.931  19.866  0.00  0.00    +0.000 NA
ATOM      6  N   UNL     1      -1.901  12.568  21.024  0.00  0.00    +0.000 N 
ATOM      7  C   UNL     1      -1.058  11.501  20.913  0.00  0.00    +0.000 A 
ATOM      8  C   UNL     1      -0.195  10.901  21.828  0.00  0.00    +0.000 A 
ATOM      9  C   UNL     1       0.655   9.879  21.359  0.00  0.00    +0.000 A 
ATOM     10 CL   UNL     1       1.827   9.354  22.530  0.00  0.00    +0.000 Cl
ATOM     11  C   UNL     1       0.606   9.395  20.028  0.00  0.00    +0.000 A 
ATOM     12  C   UNL     1      -0.364   9.985  19.171  0.00  0.00    +0.000 A 
ATOM     13  C   UNL     1      -1.176  11.058  19.601  0.00  0.00    +0.000 A 
ATOM     14  H   UNL     1      -3.115  12.833  17.522  0.00  0.00    +0.000 HD
ATOM     15  H   UNL     1      -2.091  13.122  21.850  0.00  0.00    +0.000 HD
ENDROOT
BRANCH  11  16
ATOM     16  C   UNL     1       1.542   8.370  19.467  0.00  0.00    +0.000 A 
ATOM     17  C   UNL     1       1.842   7.166  20.136  0.00  0.00    +0.000 A 
ATOM     18  C   UNL     1       2.800   6.267  19.648  0.00  0.00    +0.000 A 
ATOM     19  C   UNL     1       3.430   6.525  18.442  0.00  0.00    +0.000 A 
ATOM     20  F   UNL     1       4.344   5.665  17.974  0.00  0.00    +0.000 F 
ATOM     21  C   UNL     1       3.119   7.662  17.716  0.00  0.00    +0.000 A 
ATOM     22  C   UNL     1       2.192   8.580  18.230  0.00  0.00    +0.000 A 
ENDBRANCH  11  16
BRANCH   1  23
ATOM     23  C   UNL     1      -3.700  11.027  15.790  0.00  0.00    +0.000 C 
BRANCH  23  25
ATOM     24  C   UNL     1      -3.751  10.011  13.470  0.00  0.00    +0.000 C 
ATOM     25  C   UNL     1      -2.987  10.127  14.786  0.00  0.00    +0.000 C 
ENDBRANCH  23  25
ENDBRANCH   1  23
TORSDOF 3
ENDMDL
