MODEL 1
REMARK VINA RESULT:      -8.2      0.000      0.000
REMARK  Name = 
REMARK  10 active torsions:
REMARK  status: ('A' for Active; 'I' for Inactive)
REMARK    1  A    between atoms: C_1  and  C_2
REMARK    2  A    between atoms: C_2  and  O_3
REMARK    3  A    between atoms: O_3  and  P_4
REMARK    4  A    between atoms: P_4  and  O_6
REMARK    5  A    between atoms: P_4  and  O_9
REMARK    6  A    between atoms: O_6  and  C_7
REMARK    7  A    between atoms: C_7  and  C_8
REMARK    8  A    between atoms: O_9  and  C_10
REMARK    9  A    between atoms: C_16  and  C_17
REMARK   10  A    between atoms: N_19  and  C_20
REMARK                            x       y       z     vdW  Elec       q    Type
REMARK                         _______ _______ _______ _____ _____    ______ ____
ROOT
ATOM      1  C   UNL     1       4.474   4.546  18.657  0.00  0.00    +0.000 A 
ATOM      2  C   UNL     1       4.503   3.214  19.060  0.00  0.00    +0.000 A 
ATOM      3  C   UNL     1       3.323   2.462  19.067  0.00  0.00    +0.000 A 
ATOM      4  C   UNL     1       2.106   3.068  18.771  0.00  0.00    +0.000 A 
ATOM      5 CL   UNL     1       0.675   2.123  18.696  0.00  0.00    +0.000 Cl
ATOM      6  C   UNL     1       2.049   4.440  18.553  0.00  0.00    +0.000 A 
ATOM      7  C   UNL     1       3.233   5.198  18.525  0.00  0.00    +0.000 A 
ENDROOT
BRANCH   7   8
ATOM      8  C   UNL     1       3.077   6.677  18.418  0.00  0.00    +0.000 C 
ATOM      9  O   UNL     1       3.689   7.257  17.530  0.00  0.00    +0.000 OA
ATOM     10  N   UNL     1       2.157   7.255  19.286  0.00  0.00    +0.000 N 
ATOM     11  H   UNL     1       1.793   6.652  20.014  0.00  0.00    +0.000 HD
BRANCH  10  12
ATOM     12  C   UNL     1       1.717   8.593  19.304  0.00  0.00    +0.000 A 
ATOM     13  C   UNL     1       1.888   9.478  18.238  0.00  0.00    +0.000 A 
ATOM     14  C   UNL     1       1.453  10.804  18.337  0.00  0.00    +0.000 A 
ATOM     15  C   UNL     1       0.830  11.257  19.498  0.00  0.00    +0.000 A 
ATOM     16 CL   UNL     1       0.339  12.912  19.558  0.00  0.00    +0.000 Cl
ATOM     17  C   UNL     1       0.630  10.371  20.561  0.00  0.00    +0.000 A 
ATOM     18 CL   UNL     1      -0.155  10.849  22.026  0.00  0.00    +0.000 Cl
ATOM     19  C   UNL     1       1.071   9.046  20.460  0.00  0.00    +0.000 A 
ENDBRANCH  10  12
ENDBRANCH   7   8
BRANCH   1  20
ATOM     20  O   UNL     1       5.609   5.249  18.361  0.00  0.00    +0.000 OA
BRANCH  20  21
ATOM     21  P   UNL     1       6.663   5.009  17.010  0.00  0.00    +0.000 P 
ATOM     22  O   UNL     1       7.674   4.354  17.959  0.00  0.00    +0.000 OA
BRANCH  21  23
ATOM     23  O   UNL     1       7.717   4.767  15.660  0.00  0.00    +0.000 OA
BRANCH  23  25
ATOM     24  C   UNL     1       6.099   3.891  14.127  0.00  0.00    +0.000 C 
ATOM     25  C   UNL     1       7.115   4.983  14.388  0.00  0.00    +0.000 C 
ENDBRANCH  23  25
ENDBRANCH  21  23
BRANCH  21  26
ATOM     26  O   UNL     1       7.000   6.632  16.927  0.00  0.00    +0.000 OA
BRANCH  26  27
ATOM     27  C   UNL     1       7.719   7.239  17.996  0.00  0.00    +0.000 C 
ATOM     28  C   UNL     1       7.973   8.703  17.683  0.00  0.00    +0.000 C 
ENDBRANCH  26  27
ENDBRANCH  21  26
ENDBRANCH  20  21
ENDBRANCH   1  20
TORSDOF 8
ENDMDL
MODEL 2
REMARK VINA RESULT:      -7.9      0.914      1.561
REMARK  Name = 
REMARK  10 active torsions:
REMARK  status: ('A' for Active; 'I' for Inactive)
REMARK    1  A    between atoms: C_1  and  C_2
REMARK    2  A    between atoms: C_2  and  O_3
REMARK    3  A    between atoms: O_3  and  P_4
REMARK    4  A    between atoms: P_4  and  O_6
REMARK    5  A    between atoms: P_4  and  O_9
REMARK    6  A    between atoms: O_6  and  C_7
REMARK    7  A    between atoms: C_7  and  C_8
REMARK    8  A    between atoms: O_9  and  C_10
REMARK    9  A    between atoms: C_16  and  C_17
REMARK   10  A    between atoms: N_19  and  C_20
REMARK                            x       y       z     vdW  Elec       q    Type
REMARK                         _______ _______ _______ _____ _____    ______ ____
ROOT
ATOM      1  C   UNL     1       4.247   4.829  18.770  0.00  0.00    +0.000 A 
ATOM      2  C   UNL     1       4.436   3.454  18.872  0.00  0.00    +0.000 A 
ATOM      3  C   UNL     1       3.333   2.594  18.829  0.00  0.00    +0.000 A 
ATOM      4  C   UNL     1       2.043   3.113  18.788  0.00  0.00    +0.000 A 
ATOM      5 CL   UNL     1       0.698   2.055  18.648  0.00  0.00    +0.000 Cl
ATOM      6  C   UNL     1       1.844   4.486  18.877  0.00  0.00    +0.000 A 
ATOM      7  C   UNL     1       2.948   5.357  18.900  0.00  0.00    +0.000 A 
ENDROOT
BRANCH   7   8
ATOM      8  C   UNL     1       2.655   6.801  19.130  0.00  0.00    +0.000 C 
ATOM      9  O   UNL     1       2.970   7.598  18.255  0.00  0.00    +0.000 OA
ATOM     10  N   UNL     1       1.949   7.101  20.289  0.00  0.00    +0.000 N 
ATOM     11  H   UNL     1       1.833   6.340  20.949  0.00  0.00    +0.000 HD
BRANCH  10  12
ATOM     12  C   UNL     1       1.425   8.350  20.677  0.00  0.00    +0.000 A 
ATOM     13  C   UNL     1       1.168   8.703  22.002  0.00  0.00    +0.000 A 
ATOM     14  C   UNL     1       0.618   9.951  22.313  0.00  0.00    +0.000 A 
ATOM     15  C   UNL     1       0.331  10.867  21.302  0.00  0.00    +0.000 A 
ATOM     16 CL   UNL     1      -0.368  12.379  21.757  0.00  0.00    +0.000 Cl
ATOM     17  C   UNL     1       0.610  10.532  19.973  0.00  0.00    +0.000 A 
ATOM     18 CL   UNL     1       0.305  11.621  18.664  0.00  0.00    +0.000 Cl
ATOM     19  C   UNL     1       1.156   9.280  19.666  0.00  0.00    +0.000 A 
ENDBRANCH  10  12
ENDBRANCH   7   8
BRANCH   1  20
ATOM     20  O   UNL     1       5.276   5.697  18.526  0.00  0.00    +0.000 OA
BRANCH  20  21
ATOM     21  P   UNL     1       6.311   5.723  17.139  0.00  0.00    +0.000 P 
ATOM     22  O   UNL     1       7.326   4.883  17.923  0.00  0.00    +0.000 OA
BRANCH  21  23
ATOM     23  O   UNL     1       7.346   5.749  15.753  0.00  0.00    +0.000 OA
BRANCH  23  25
ATOM     24  C   UNL     1       5.556   4.387  14.933  0.00  0.00    +0.000 C 
ATOM     25  C   UNL     1       6.988   4.832  14.725  0.00  0.00    +0.000 C 
ENDBRANCH  23  25
ENDBRANCH  21  23
BRANCH  21  26
ATOM     26  O   UNL     1       6.664   7.327  17.379  0.00  0.00    +0.000 OA
BRANCH  26  27
ATOM     27  C   UNL     1       7.908   7.673  17.981  0.00  0.00    +0.000 C 
ATOM     28  C   UNL     1       8.133   9.171  17.879  0.00  0.00    +0.000 C 
ENDBRANCH  26  27
ENDBRANCH  21  26
ENDBRANCH  20  21
ENDBRANCH   1  20
TORSDOF 8
ENDMDL
MODEL 3
REMARK VINA RESULT:      -7.7      1.280      2.497
REMARK  Name = 
REMARK  10 active torsions:
REMARK  status: ('A' for Active; 'I' for Inactive)
REMARK    1  A    between atoms: C_1  and  C_2
REMARK    2  A    between atoms: C_2  and  O_3
REMARK    3  A    between atoms: O_3  and  P_4
REMARK    4  A    between atoms: P_4  and  O_6
REMARK    5  A    between atoms: P_4  and  O_9
REMARK    6  A    between atoms: O_6  and  C_7
REMARK    7  A    between atoms: C_7  and  C_8
REMARK    8  A    between atoms: O_9  and  C_10
REMARK    9  A    between atoms: C_16  and  C_17
REMARK   10  A    between atoms: N_19  and  C_20
REMARK                            x       y       z     vdW  Elec       q    Type
REMARK                         _______ _______ _______ _____ _____    ______ ____
ROOT
ATOM      1  C   UNL     1       3.974   4.086  18.549  0.00  0.00    +0.000 A 
ATOM      2  C   UNL     1       4.567   3.068  19.290  0.00  0.00    +0.000 A 
ATOM      3  C   UNL     1       3.878   2.495  20.364  0.00  0.00    +0.000 A 
ATOM      4  C   UNL     1       2.647   3.009  20.758  0.00  0.00    +0.000 A 
ATOM      5 CL   UNL     1       1.766   2.248  22.021  0.00  0.00    +0.000 Cl
ATOM      6  C   UNL     1       2.139   4.146  20.141  0.00  0.00    +0.000 A 
ATOM      7  C   UNL     1       2.816   4.715  19.047  0.00  0.00    +0.000 A 
ENDROOT
BRANCH   7   8
ATOM      8  C   UNL     1       2.279   6.005  18.526  0.00  0.00    +0.000 C 
ATOM      9  O   UNL     1       1.638   5.982  17.483  0.00  0.00    +0.000 OA
ATOM     10  N   UNL     1       2.472   7.116  19.339  0.00  0.00    +0.000 N 
ATOM     11  H   UNL     1       3.091   6.985  20.131  0.00  0.00    +0.000 HD
BRANCH  10  12
ATOM     12  C   UNL     1       1.953   8.412  19.159  0.00  0.00    +0.000 A 
ATOM     13  C   UNL     1       2.231   9.209  18.048  0.00  0.00    +0.000 A 
ATOM     14  C   UNL     1       1.705  10.502  17.949  0.00  0.00    +0.000 A 
ATOM     15  C   UNL     1       0.883  11.008  18.955  0.00  0.00    +0.000 A 
ATOM     16 CL   UNL     1       0.288  12.619  18.776  0.00  0.00    +0.000 Cl
ATOM     17  C   UNL     1       0.577  10.207  20.059  0.00  0.00    +0.000 A 
ATOM     18 CL   UNL     1      -0.452  10.753  21.338  0.00  0.00    +0.000 Cl
ATOM     19  C   UNL     1       1.110   8.916  20.157  0.00  0.00    +0.000 A 
ENDBRANCH  10  12
ENDBRANCH   7   8
BRANCH   1  20
ATOM     20  O   UNL     1       4.459   4.493  17.337  0.00  0.00    +0.000 OA
BRANCH  20  21
ATOM     21  P   UNL     1       5.788   5.563  17.052  0.00  0.00    +0.000 P 
ATOM     22  O   UNL     1       4.885   6.384  16.124  0.00  0.00    +0.000 OA
BRANCH  21  23
ATOM     23  O   UNL     1       7.117   6.633  16.767  0.00  0.00    +0.000 OA
BRANCH  23  25
ATOM     24  C   UNL     1       7.730   6.001  18.994  0.00  0.00    +0.000 C 
ATOM     25  C   UNL     1       7.778   7.090  17.942  0.00  0.00    +0.000 C 
ENDBRANCH  23  25
ENDBRANCH  21  23
BRANCH  21  26
ATOM     26  O   UNL     1       6.571   4.419  16.139  0.00  0.00    +0.000 OA
BRANCH  26  27
ATOM     27  C   UNL     1       6.954   4.748  14.807  0.00  0.00    +0.000 C 
ATOM     28  C   UNL     1       6.129   3.944  13.818  0.00  0.00    +0.000 C 
ENDBRANCH  26  27
ENDBRANCH  21  26
ENDBRANCH  20  21
ENDBRANCH   1  20
TORSDOF 8
ENDMDL
MODEL 4
REMARK VINA RESULT:      -7.5      1.453      2.592
REMARK  Name = 
REMARK  10 active torsions:
REMARK  status: ('A' for Active; 'I' for Inactive)
REMARK    1  A    between atoms: C_1  and  C_2
REMARK    2  A    between atoms: C_2  and  O_3
REMARK    3  A    between atoms: O_3  and  P_4
REMARK    4  A    between atoms: P_4  and  O_6
REMARK    5  A    between atoms: P_4  and  O_9
REMARK    6  A    between atoms: O_6  and  C_7
REMARK    7  A    between atoms: C_7  and  C_8
REMARK    8  A    between atoms: O_9  and  C_10
REMARK    9  A    between atoms: C_16  and  C_17
REMARK   10  A    between atoms: N_19  and  C_20
REMARK                            x       y       z     vdW  Elec       q    Type
REMARK                         _______ _______ _______ _____ _____    ______ ____
ROOT
ATOM      1  C   UNL     1       3.690   4.529  18.694  0.00  0.00    +0.000 A 
ATOM      2  C   UNL     1       4.263   3.355  19.173  0.00  0.00    +0.000 A 
ATOM      3  C   UNL     1       3.672   2.676  20.244  0.00  0.00    +0.000 A 
ATOM      4  C   UNL     1       2.573   3.225  20.897  0.00  0.00    +0.000 A 
ATOM      5 CL   UNL     1       1.798   2.347  22.153  0.00  0.00    +0.000 Cl
ATOM      6  C   UNL     1       2.114   4.488  20.543  0.00  0.00    +0.000 A 
ATOM      7  C   UNL     1       2.691   5.167  19.454  0.00  0.00    +0.000 A 
ENDROOT
BRANCH   7   8
ATOM      8  C   UNL     1       2.234   6.568  19.223  0.00  0.00    +0.000 C 
ATOM      9  O   UNL     1       2.111   6.948  18.065  0.00  0.00    +0.000 OA
ATOM     10  N   UNL     1       1.887   7.290  20.359  0.00  0.00    +0.000 N 
ATOM     11  H   UNL     1       2.123   6.862  21.247  0.00  0.00    +0.000 HD
BRANCH  10  12
ATOM     12  C   UNL     1       1.301   8.569  20.417  0.00  0.00    +0.000 A 
ATOM     13  C   UNL     1       1.387   9.507  19.389  0.00  0.00    +0.000 A 
ATOM     14  C   UNL     1       0.805  10.772  19.528  0.00  0.00    +0.000 A 
ATOM     15  C   UNL     1       0.119  11.109  20.693  0.00  0.00    +0.000 A 
ATOM     16 CL   UNL     1      -0.554  12.695  20.804  0.00  0.00    +0.000 Cl
ATOM     17  C   UNL     1       0.004  10.165  21.719  0.00  0.00    +0.000 A 
ATOM     18 CL   UNL     1      -0.850  10.496  23.186  0.00  0.00    +0.000 Cl
ATOM     19  C   UNL     1       0.592   8.902  21.578  0.00  0.00    +0.000 A 
ENDBRANCH  10  12
ENDBRANCH   7   8
BRANCH   1  20
ATOM     20  O   UNL     1       4.044   5.086  17.496  0.00  0.00    +0.000 OA
BRANCH  20  21
ATOM     21  P   UNL     1       5.538   5.868  17.110  0.00  0.00    +0.000 P 
ATOM     22  O   UNL     1       4.743   6.939  16.353  0.00  0.00    +0.000 OA
BRANCH  21  23
ATOM     23  O   UNL     1       7.031   6.652  16.724  0.00  0.00    +0.000 OA
BRANCH  23  25
ATOM     24  C   UNL     1       7.618   5.955  18.939  0.00  0.00    +0.000 C 
ATOM     25  C   UNL     1       7.839   6.983  17.849  0.00  0.00    +0.000 C 
ENDBRANCH  23  25
ENDBRANCH  21  23
BRANCH  21  26
ATOM     26  O   UNL     1       5.943   4.665  16.041  0.00  0.00    +0.000 OA
BRANCH  26  27
ATOM     27  C   UNL     1       6.671   5.008  14.865  0.00  0.00    +0.000 C 
ATOM     28  C   UNL     1       6.499   3.924  13.816  0.00  0.00    +0.000 C 
ENDBRANCH  26  27
ENDBRANCH  21  26
ENDBRANCH  20  21
ENDBRANCH   1  20
TORSDOF 8
ENDMDL
MODEL 5
REMARK VINA RESULT:      -7.5      1.388      1.643
REMARK  Name = 
REMARK  10 active torsions:
REMARK  status: ('A' for Active; 'I' for Inactive)
REMARK    1  A    between atoms: C_1  and  C_2
REMARK    2  A    between atoms: C_2  and  O_3
REMARK    3  A    between atoms: O_3  and  P_4
REMARK    4  A    between atoms: P_4  and  O_6
REMARK    5  A    between atoms: P_4  and  O_9
REMARK    6  A    between atoms: O_6  and  C_7
REMARK    7  A    between atoms: C_7  and  C_8
REMARK    8  A    between atoms: O_9  and  C_10
REMARK    9  A    between atoms: C_16  and  C_17
REMARK   10  A    between atoms: N_19  and  C_20
REMARK                            x       y       z     vdW  Elec       q    Type
REMARK                         _______ _______ _______ _____ _____    ______ ____
ROOT
ATOM      1  C   UNL     1       4.221   5.455  18.795  0.00  0.00    +0.000 A 
ATOM      2  C   UNL     1       4.789   4.265  19.242  0.00  0.00    +0.000 A 
ATOM      3  C   UNL     1       3.990   3.301  19.865  0.00  0.00    +0.000 A 
ATOM      4  C   UNL     1       2.651   3.570  20.131  0.00  0.00    +0.000 A 
ATOM      5 CL   UNL     1       1.653   2.352  20.816  0.00  0.00    +0.000 Cl
ATOM      6  C   UNL     1       2.127   4.828  19.857  0.00  0.00    +0.000 A 
ATOM      7  C   UNL     1       2.920   5.795  19.212  0.00  0.00    +0.000 A 
ENDROOT
BRANCH   7   8
ATOM      8  C   UNL     1       2.331   7.158  19.074  0.00  0.00    +0.000 C 
ATOM      9  O   UNL     1       2.207   7.619  17.946  0.00  0.00    +0.000 OA
ATOM     10  N   UNL     1       1.876   7.746  20.248  0.00  0.00    +0.000 N 
ATOM     11  H   UNL     1       2.125   7.271  21.108  0.00  0.00    +0.000 HD
BRANCH  10  12
ATOM     12  C   UNL     1       1.161   8.951  20.384  0.00  0.00    +0.000 A 
ATOM     13  C   UNL     1       1.117   9.940  19.400  0.00  0.00    +0.000 A 
ATOM     14  C   UNL     1       0.410  11.128  19.616  0.00  0.00    +0.000 A 
ATOM     15  C   UNL     1      -0.272  11.336  20.813  0.00  0.00    +0.000 A 
ATOM     16 CL   UNL     1      -1.104  12.835  21.019  0.00  0.00    +0.000 Cl
ATOM     17  C   UNL     1      -0.256  10.340  21.794  0.00  0.00    +0.000 A 
ATOM     18 CL   UNL     1      -1.095  10.511  23.297  0.00  0.00    +0.000 Cl
ATOM     19  C   UNL     1       0.457   9.154  21.577  0.00  0.00    +0.000 A 
ENDBRANCH  10  12
ENDBRANCH   7   8
BRANCH   1  20
ATOM     20  O   UNL     1       4.871   6.306  17.943  0.00  0.00    +0.000 OA
BRANCH  20  21
ATOM     21  P   UNL     1       5.490   5.936  16.371  0.00  0.00    +0.000 P 
ATOM     22  O   UNL     1       4.715   4.613  16.414  0.00  0.00    +0.000 OA
BRANCH  21  23
ATOM     23  O   UNL     1       6.108   5.565  14.798  0.00  0.00    +0.000 OA
BRANCH  23  25
ATOM     24  C   UNL     1       6.127   3.788  13.194  0.00  0.00    +0.000 C 
ATOM     25  C   UNL     1       6.477   4.204  14.607  0.00  0.00    +0.000 C 
ENDBRANCH  23  25
ENDBRANCH  21  23
BRANCH  21  26
ATOM     26  O   UNL     1       7.010   5.671  16.982  0.00  0.00    +0.000 OA
BRANCH  26  27
ATOM     27  C   UNL     1       7.551   6.611  17.906  0.00  0.00    +0.000 C 
ATOM     28  C   UNL     1       8.014   5.894  19.162  0.00  0.00    +0.000 C 
ENDBRANCH  26  27
ENDBRANCH  21  26
ENDBRANCH  20  21
ENDBRANCH   1  20
TORSDOF 8
ENDMDL
MODEL 6
REMARK VINA RESULT:      -7.4      1.570      3.035
REMARK  Name = 
REMARK  10 active torsions:
REMARK  status: ('A' for Active; 'I' for Inactive)
REMARK    1  A    between atoms: C_1  and  C_2
REMARK    2  A    between atoms: C_2  and  O_3
REMARK    3  A    between atoms: O_3  and  P_4
REMARK    4  A    between atoms: P_4  and  O_6
REMARK    5  A    between atoms: P_4  and  O_9
REMARK    6  A    between atoms: O_6  and  C_7
REMARK    7  A    between atoms: C_7  and  C_8
REMARK    8  A    between atoms: O_9  and  C_10
REMARK    9  A    between atoms: C_16  and  C_17
REMARK   10  A    between atoms: N_19  and  C_20
REMARK                            x       y       z     vdW  Elec       q    Type
REMARK                         _______ _______ _______ _____ _____    ______ ____
ROOT
ATOM      1  C   UNL     1       3.556   4.982  18.804  0.00  0.00    +0.000 A 
ATOM      2  C   UNL     1       4.073   3.714  19.054  0.00  0.00    +0.000 A 
ATOM      3  C   UNL     1       3.488   2.902  20.031  0.00  0.00    +0.000 A 
ATOM      4  C   UNL     1       2.458   3.397  20.825  0.00  0.00    +0.000 A 
ATOM      5 CL   UNL     1       1.686   2.369  21.964  0.00  0.00    +0.000 Cl
ATOM      6  C   UNL     1       2.067   4.725  20.707  0.00  0.00    +0.000 A 
ATOM      7  C   UNL     1       2.637   5.541  19.712  0.00  0.00    +0.000 A 
ENDROOT
BRANCH   7   8
ATOM      8  C   UNL     1       2.262   6.984  19.736  0.00  0.00    +0.000 C 
ATOM      9  O   UNL     1       2.502   7.657  18.741  0.00  0.00    +0.000 OA
ATOM     10  N   UNL     1       1.573   7.415  20.864  0.00  0.00    +0.000 N 
ATOM     11  H   UNL     1       1.524   6.756  21.634  0.00  0.00    +0.000 HD
BRANCH  10  12
ATOM     12  C   UNL     1       0.986   8.676  21.082  0.00  0.00    +0.000 A 
ATOM     13  C   UNL     1       0.607   9.146  22.340  0.00  0.00    +0.000 A 
ATOM     14  C   UNL     1      -0.000  10.399  22.480  0.00  0.00    +0.000 A 
ATOM     15  C   UNL     1      -0.225  11.202  21.363  0.00  0.00    +0.000 A 
ATOM     16 CL   UNL     1      -0.999  12.726  21.607  0.00  0.00    +0.000 Cl
ATOM     17  C   UNL     1       0.175  10.751  20.102  0.00  0.00    +0.000 A 
ATOM     18 CL   UNL     1      -0.047  11.696  18.670  0.00  0.00    +0.000 Cl
ATOM     19  C   UNL     1       0.778   9.494  19.965  0.00  0.00    +0.000 A 
ENDBRANCH  10  12
ENDBRANCH   7   8
BRANCH   1  20
ATOM     20  O   UNL     1       3.891   5.707  17.694  0.00  0.00    +0.000 OA
BRANCH  20  21
ATOM     21  P   UNL     1       5.460   6.299  17.269  0.00  0.00    +0.000 P 
ATOM     22  O   UNL     1       4.826   7.022  16.074  0.00  0.00    +0.000 OA
BRANCH  21  23
ATOM     23  O   UNL     1       7.028   6.892  16.843  0.00  0.00    +0.000 OA
BRANCH  23  25
ATOM     24  C   UNL     1       8.074   8.792  17.858  0.00  0.00    +0.000 C 
ATOM     25  C   UNL     1       7.831   7.300  17.946  0.00  0.00    +0.000 C 
ENDBRANCH  23  25
ENDBRANCH  21  23
BRANCH  21  26
ATOM     26  O   UNL     1       5.943   4.791  16.770  0.00  0.00    +0.000 OA
BRANCH  26  27
ATOM     27  C   UNL     1       5.387   4.253  15.574  0.00  0.00    +0.000 C 
ATOM     28  C   UNL     1       6.429   4.263  14.470  0.00  0.00    +0.000 C 
ENDBRANCH  26  27
ENDBRANCH  21  26
ENDBRANCH  20  21
ENDBRANCH   1  20
TORSDOF 8
ENDMDL
MODEL 7
REMARK VINA RESULT:      -7.4      1.511      2.126
REMARK  Name = 
REMARK  10 active torsions:
REMARK  status: ('A' for Active; 'I' for Inactive)
REMARK    1  A    between atoms: C_1  and  C_2
REMARK    2  A    between atoms: C_2  and  O_3
REMARK    3  A    between atoms: O_3  and  P_4
REMARK    4  A    between atoms: P_4  and  O_6
REMARK    5  A    between atoms: P_4  and  O_9
REMARK    6  A    between atoms: O_6  and  C_7
REMARK    7  A    between atoms: C_7  and  C_8
REMARK    8  A    between atoms: O_9  and  C_10
REMARK    9  A    between atoms: C_16  and  C_17
REMARK   10  A    between atoms: N_19  and  C_20
REMARK                            x       y       z     vdW  Elec       q    Type
REMARK                         _______ _______ _______ _____ _____    ______ ____
ROOT
ATOM      1  C   UNL     1       4.105   5.493  19.079  0.00  0.00    +0.000 A 
ATOM      2  C   UNL     1       4.672   4.258  19.377  0.00  0.00    +0.000 A 
ATOM      3  C   UNL     1       3.887   3.247  19.940  0.00  0.00    +0.000 A 
ATOM      4  C   UNL     1       2.568   3.506  20.300  0.00  0.00    +0.000 A 
ATOM      5 CL   UNL     1       1.583   2.239  20.910  0.00  0.00    +0.000 Cl
ATOM      6  C   UNL     1       2.054   4.792  20.178  0.00  0.00    +0.000 A 
ATOM      7  C   UNL     1       2.832   5.808  19.593  0.00  0.00    +0.000 A 
ENDROOT
BRANCH   7   8
ATOM      8  C   UNL     1       2.261   7.185  19.621  0.00  0.00    +0.000 C 
ATOM      9  O   UNL     1       2.181   7.795  18.562  0.00  0.00    +0.000 OA
ATOM     10  N   UNL     1       1.772   7.616  20.848  0.00  0.00    +0.000 N 
ATOM     11  H   UNL     1       1.986   7.026  21.644  0.00  0.00    +0.000 HD
BRANCH  10  12
ATOM     12  C   UNL     1       1.064   8.803  21.122  0.00  0.00    +0.000 A 
ATOM     13  C   UNL     1       0.506   9.101  22.366  0.00  0.00    +0.000 A 
ATOM     14  C   UNL     1      -0.212  10.287  22.558  0.00  0.00    +0.000 A 
ATOM     15  C   UNL     1      -0.369  11.194  21.512  0.00  0.00    +0.000 A 
ATOM     16 CL   UNL     1      -1.286  12.625  21.816  0.00  0.00    +0.000 Cl
ATOM     17  C   UNL     1       0.209  10.916  20.270  0.00  0.00    +0.000 A 
ATOM     18 CL   UNL     1       0.079  11.999  18.928  0.00  0.00    +0.000 Cl
ATOM     19  C   UNL     1       0.922   9.726  20.079  0.00  0.00    +0.000 A 
ENDBRANCH  10  12
ENDBRANCH   7   8
BRANCH   1  20
ATOM     20  O   UNL     1       4.727   6.417  18.284  0.00  0.00    +0.000 OA
BRANCH  20  21
ATOM     21  P   UNL     1       5.303   6.183  16.670  0.00  0.00    +0.000 P 
ATOM     22  O   UNL     1       4.373   4.970  16.549  0.00  0.00    +0.000 OA
BRANCH  21  23
ATOM     23  O   UNL     1       5.879   5.949  15.055  0.00  0.00    +0.000 OA
BRANCH  23  25
ATOM     24  C   UNL     1       6.246   3.967  13.764  0.00  0.00    +0.000 C 
ATOM     25  C   UNL     1       6.757   4.842  14.890  0.00  0.00    +0.000 C 
ENDBRANCH  23  25
ENDBRANCH  21  23
BRANCH  21  26
ATOM     26  O   UNL     1       6.777   5.658  17.225  0.00  0.00    +0.000 OA
BRANCH  26  27
ATOM     27  C   UNL     1       7.493   6.474  18.147  0.00  0.00    +0.000 C 
ATOM     28  C   UNL     1       7.739   7.845  17.542  0.00  0.00    +0.000 C 
ENDBRANCH  26  27
ENDBRANCH  21  26
ENDBRANCH  20  21
ENDBRANCH   1  20
TORSDOF 8
ENDMDL
MODEL 8
REMARK VINA RESULT:      -7.4      1.287      2.527
REMARK  Name = 
REMARK  10 active torsions:
REMARK  status: ('A' for Active; 'I' for Inactive)
REMARK    1  A    between atoms: C_1  and  C_2
REMARK    2  A    between atoms: C_2  and  O_3
REMARK    3  A    between atoms: O_3  and  P_4
REMARK    4  A    between atoms: P_4  and  O_6
REMARK    5  A    between atoms: P_4  and  O_9
REMARK    6  A    between atoms: O_6  and  C_7
REMARK    7  A    between atoms: C_7  and  C_8
REMARK    8  A    between atoms: O_9  and  C_10
REMARK    9  A    between atoms: C_16  and  C_17
REMARK   10  A    between atoms: N_19  and  C_20
REMARK                            x       y       z     vdW  Elec       q    Type
REMARK                         _______ _______ _______ _____ _____    ______ ____
ROOT
ATOM      1  C   UNL     1       3.577   4.988  17.400  0.00  0.00    +0.000 A 
ATOM      2  C   UNL     1       3.780   3.637  17.133  0.00  0.00    +0.000 A 
ATOM      3  C   UNL     1       2.816   2.698  17.513  0.00  0.00    +0.000 A 
ATOM      4  C   UNL     1       1.703   3.098  18.248  0.00  0.00    +0.000 A 
ATOM      5 CL   UNL     1       0.480   1.957  18.637  0.00  0.00    +0.000 Cl
ATOM      6  C   UNL     1       1.592   4.415  18.679  0.00  0.00    +0.000 A 
ATOM      7  C   UNL     1       2.548   5.368  18.283  0.00  0.00    +0.000 A 
ENDROOT
BRANCH   7   8
ATOM      8  C   UNL     1       2.432   6.724  18.893  0.00  0.00    +0.000 C 
ATOM      9  O   UNL     1       2.981   6.917  19.971  0.00  0.00    +0.000 OA
ATOM     10  N   UNL     1       1.787   7.684  18.123  0.00  0.00    +0.000 N 
ATOM     11  H   UNL     1       1.318   7.345  17.291  0.00  0.00    +0.000 HD
BRANCH  10  12
ATOM     12  C   UNL     1       1.663   9.061  18.394  0.00  0.00    +0.000 A 
ATOM     13  C   UNL     1       2.394  10.048  17.733  0.00  0.00    +0.000 A 
ATOM     14  C   UNL     1       2.243  11.396  18.075  0.00  0.00    +0.000 A 
ATOM     15  C   UNL     1       1.348  11.774  19.075  0.00  0.00    +0.000 A 
ATOM     16 CL   UNL     1       1.229  13.453  19.460  0.00  0.00    +0.000 Cl
ATOM     17  C   UNL     1       0.591  10.794  19.724  0.00  0.00    +0.000 A 
ATOM     18 CL   UNL     1      -0.556  11.182  20.959  0.00  0.00    +0.000 Cl
ATOM     19  C   UNL     1       0.749   9.445  19.382  0.00  0.00    +0.000 A 
ENDBRANCH  10  12
ENDBRANCH   7   8
BRANCH   1  20
ATOM     20  O   UNL     1       4.327   5.974  16.820  0.00  0.00    +0.000 OA
BRANCH  20  21
ATOM     21  P   UNL     1       6.026   6.238  17.009  0.00  0.00    +0.000 P 
ATOM     22  O   UNL     1       5.754   7.747  17.049  0.00  0.00    +0.000 OA
BRANCH  21  23
ATOM     23  O   UNL     1       7.725   6.503  17.199  0.00  0.00    +0.000 OA
BRANCH  23  25
ATOM     24  C   UNL     1       7.661   5.715  19.459  0.00  0.00    +0.000 C 
ATOM     25  C   UNL     1       8.137   6.810  18.527  0.00  0.00    +0.000 C 
ENDBRANCH  23  25
ENDBRANCH  21  23
BRANCH  21  26
ATOM     26  O   UNL     1       6.315   5.801  15.434  0.00  0.00    +0.000 OA
BRANCH  26  27
ATOM     27  C   UNL     1       6.758   4.475  15.160  0.00  0.00    +0.000 C 
ATOM     28  C   UNL     1       6.080   3.952  13.906  0.00  0.00    +0.000 C 
ENDBRANCH  26  27
ENDBRANCH  21  26
ENDBRANCH  20  21
ENDBRANCH   1  20
TORSDOF 8
ENDMDL
MODEL 9
REMARK VINA RESULT:      -7.4      1.084      1.158
REMARK  Name = 
REMARK  10 active torsions:
REMARK  status: ('A' for Active; 'I' for Inactive)
REMARK    1  A    between atoms: C_1  and  C_2
REMARK    2  A    between atoms: C_2  and  O_3
REMARK    3  A    between atoms: O_3  and  P_4
REMARK    4  A    between atoms: P_4  and  O_6
REMARK    5  A    between atoms: P_4  and  O_9
REMARK    6  A    between atoms: O_6  and  C_7
REMARK    7  A    between atoms: C_7  and  C_8
REMARK    8  A    between atoms: O_9  and  C_10
REMARK    9  A    between atoms: C_16  and  C_17
REMARK   10  A    between atoms: N_19  and  C_20
REMARK                            x       y       z     vdW  Elec       q    Type
REMARK                         _______ _______ _______ _____ _____    ______ ____
ROOT
ATOM      1  C   UNL     1       3.602   4.949  17.584  0.00  0.00    +0.000 A 
ATOM      2  C   UNL     1       3.808   3.597  17.327  0.00  0.00    +0.000 A 
ATOM      3  C   UNL     1       2.820   2.665  17.661  0.00  0.00    +0.000 A 
ATOM      4  C   UNL     1       1.678   3.072  18.343  0.00  0.00    +0.000 A 
ATOM      5 CL   UNL     1       0.429   1.941  18.674  0.00  0.00    +0.000 Cl
ATOM      6  C   UNL     1       1.556   4.390  18.768  0.00  0.00    +0.000 A 
ATOM      7  C   UNL     1       2.536   5.337  18.417  0.00  0.00    +0.000 A 
ENDROOT
BRANCH   7   8
ATOM      8  C   UNL     1       2.401   6.693  19.022  0.00  0.00    +0.000 C 
ATOM      9  O   UNL     1       2.870   6.874  20.139  0.00  0.00    +0.000 OA
ATOM     10  N   UNL     1       1.836   7.668  18.208  0.00  0.00    +0.000 N 
ATOM     11  H   UNL     1       1.425   7.341  17.341  0.00  0.00    +0.000 HD
BRANCH  10  12
ATOM     12  C   UNL     1       1.719   9.046  18.473  0.00  0.00    +0.000 A 
ATOM     13  C   UNL     1       2.368  10.035  17.732  0.00  0.00    +0.000 A 
ATOM     14  C   UNL     1       2.231  11.385  18.071  0.00  0.00    +0.000 A 
ATOM     15  C   UNL     1       1.434  11.764  19.150  0.00  0.00    +0.000 A 
ATOM     16 CL   UNL     1       1.329  13.446  19.525  0.00  0.00    +0.000 Cl
ATOM     17  C   UNL     1       0.759  10.783  19.882  0.00  0.00    +0.000 A 
ATOM     18 CL   UNL     1      -0.268  11.172  21.219  0.00  0.00    +0.000 Cl
ATOM     19  C   UNL     1       0.902   9.432  19.542  0.00  0.00    +0.000 A 
ENDBRANCH  10  12
ENDBRANCH   7   8
BRANCH   1  20
ATOM     20  O   UNL     1       4.386   5.929  17.040  0.00  0.00    +0.000 OA
BRANCH  20  21
ATOM     21  P   UNL     1       5.888   5.721  16.207  0.00  0.00    +0.000 P 
ATOM     22  O   UNL     1       6.308   4.714  17.285  0.00  0.00    +0.000 OA
BRANCH  21  23
ATOM     23  O   UNL     1       7.389   5.511  15.374  0.00  0.00    +0.000 OA
BRANCH  23  25
ATOM     24  C   UNL     1       5.959   4.134  14.035  0.00  0.00    +0.000 C 
ATOM     25  C   UNL     1       7.286   4.860  14.112  0.00  0.00    +0.000 C 
ENDBRANCH  23  25
ENDBRANCH  21  23
BRANCH  21  26
ATOM     26  O   UNL     1       6.405   7.228  16.670  0.00  0.00    +0.000 OA
BRANCH  26  27
ATOM     27  C   UNL     1       7.543   7.332  17.521  0.00  0.00    +0.000 C 
ATOM     28  C   UNL     1       7.888   8.793  17.747  0.00  0.00    +0.000 C 
ENDBRANCH  26  27
ENDBRANCH  21  26
ENDBRANCH  20  21
ENDBRANCH   1  20
TORSDOF 8
ENDMDL
