MODEL 1
REMARK VINA RESULT:      -7.1      0.000      0.000
REMARK  Name = 
REMARK  2 active torsions:
REMARK  status: ('A' for Active; 'I' for Inactive)
REMARK    1  A    between atoms: C_1  and  N_2
REMARK    2  A    between atoms: C_7  and  C_8
REMARK                            x       y       z     vdW  Elec       q    Type
REMARK                         _______ _______ _______ _____ _____    ______ ____
ROOT
ATOM      1  C   UNL     1       6.855   5.153  15.569  0.00  0.00    +0.000 C 
ATOM      2  N   UNL     1       6.397   5.300  16.948  0.00  0.00    +0.000 N 
ATOM      3  C   UNL     1       7.160   4.694  17.941  0.00  0.00    +0.000 C 
ATOM      4  O   UNL     1       8.214   4.087  17.701  0.00  0.00    +0.000 OA
ATOM      5  C   UNL     1       6.685   4.849  19.367  0.00  0.00    +0.000 C 
ATOM      6  N   UNL     1       5.464   4.072  19.530  0.00  0.00    +0.000 NA
ATOM      7  C   UNL     1       4.364   4.518  19.029  0.00  0.00    +0.000 C 
ATOM      8  C   UNL     1       4.298   5.795  18.242  0.00  0.00    +0.000 A 
ATOM      9  C   UNL     1       3.195   6.641  18.472  0.00  0.00    +0.000 A 
ATOM     10  C   UNL     1       2.941   7.706  17.613  0.00  0.00    +0.000 A 
ATOM     11 CL   UNL     1       1.523   8.654  17.822  0.00  0.00    +0.000 Cl
ATOM     12  C   UNL     1       3.801   7.974  16.557  0.00  0.00    +0.000 A 
ATOM     13  C   UNL     1       4.930   7.172  16.361  0.00  0.00    +0.000 A 
ATOM     14  C   UNL     1       5.212   6.074  17.200  0.00  0.00    +0.000 A 
ENDROOT
BRANCH   7  15
ATOM     15  C   UNL     1       3.098   3.723  19.280  0.00  0.00    +0.000 A 
ATOM     16  C   UNL     1       2.180   4.127  20.277  0.00  0.00    +0.000 A 
ATOM     17 CL   UNL     1       2.419   5.458  21.364  0.00  0.00    +0.000 Cl
ATOM     18  C   UNL     1       0.948   3.471  20.428  0.00  0.00    +0.000 A 
ATOM     19  C   UNL     1       0.587   2.434  19.578  0.00  0.00    +0.000 A 
ATOM     20  C   UNL     1       1.494   1.989  18.626  0.00  0.00    +0.000 A 
ATOM     21  C   UNL     1       2.758   2.588  18.510  0.00  0.00    +0.000 A 
ATOM     22 CL   UNL     1       3.851   1.777  17.435  0.00  0.00    +0.000 Cl
ENDBRANCH   7  15
TORSDOF 1
ENDMDL
MODEL 2
REMARK VINA RESULT:      -6.9      0.317      1.993
REMARK  Name = 
REMARK  2 active torsions:
REMARK  status: ('A' for Active; 'I' for Inactive)
REMARK    1  A    between atoms: C_1  and  N_2
REMARK    2  A    between atoms: C_7  and  C_8
REMARK                            x       y       z     vdW  Elec       q    Type
REMARK                         _______ _______ _______ _____ _____    ______ ____
ROOT
ATOM      1  C   UNL     1       6.859   4.986  15.549  0.00  0.00    +0.000 C 
ATOM      2  N   UNL     1       6.439   5.239  16.924  0.00  0.00    +0.000 N 
ATOM      3  C   UNL     1       7.229   4.708  17.939  0.00  0.00    +0.000 C 
ATOM      4  O   UNL     1       8.277   4.084  17.717  0.00  0.00    +0.000 OA
ATOM      5  C   UNL     1       6.794   4.973  19.362  0.00  0.00    +0.000 C 
ATOM      6  N   UNL     1       5.578   4.212  19.617  0.00  0.00    +0.000 NA
ATOM      7  C   UNL     1       4.465   4.620  19.114  0.00  0.00    +0.000 C 
ATOM      8  C   UNL     1       4.377   5.834  18.234  0.00  0.00    +0.000 A 
ATOM      9  C   UNL     1       3.280   6.697  18.429  0.00  0.00    +0.000 A 
ATOM     10  C   UNL     1       3.002   7.694  17.499  0.00  0.00    +0.000 A 
ATOM     11 CL   UNL     1       1.589   8.658  17.675  0.00  0.00    +0.000 Cl
ATOM     12  C   UNL     1       3.832   7.879  16.403  0.00  0.00    +0.000 A 
ATOM     13  C   UNL     1       4.955   7.063  16.237  0.00  0.00    +0.000 A 
ATOM     14  C   UNL     1       5.261   6.032  17.149  0.00  0.00    +0.000 A 
ENDROOT
BRANCH   7  15
ATOM     15  C   UNL     1       3.207   3.848  19.460  0.00  0.00    +0.000 A 
ATOM     16  C   UNL     1       2.891   2.647  18.783  0.00  0.00    +0.000 A 
ATOM     17 CL   UNL     1       3.798   1.986  17.461  0.00  0.00    +0.000 Cl
ATOM     18  C   UNL     1       1.798   1.862  19.184  0.00  0.00    +0.000 A 
ATOM     19  C   UNL     1       1.024   2.228  20.278  0.00  0.00    +0.000 A 
ATOM     20  C   UNL     1       1.287   3.429  20.924  0.00  0.00    +0.000 A 
ATOM     21  C   UNL     1       2.331   4.259  20.490  0.00  0.00    +0.000 A 
ATOM     22 CL   UNL     1       2.386   5.817  21.251  0.00  0.00    +0.000 Cl
ENDBRANCH   7  15
TORSDOF 1
ENDMDL
MODEL 3
REMARK VINA RESULT:      -6.8      2.467      5.191
REMARK  Name = 
REMARK  2 active torsions:
REMARK  status: ('A' for Active; 'I' for Inactive)
REMARK    1  A    between atoms: C_1  and  N_2
REMARK    2  A    between atoms: C_7  and  C_8
REMARK                            x       y       z     vdW  Elec       q    Type
REMARK                         _______ _______ _______ _____ _____    ______ ____
ROOT
ATOM      1  C   UNL     1       3.000   2.514  21.125  0.00  0.00    +0.000 C 
ATOM      2  N   UNL     1       3.071   3.140  19.807  0.00  0.00    +0.000 N 
ATOM      3  C   UNL     1       3.374   2.316  18.727  0.00  0.00    +0.000 C 
ATOM      4  O   UNL     1       3.535   1.092  18.840  0.00  0.00    +0.000 OA
ATOM      5  C   UNL     1       3.446   2.966  17.365  0.00  0.00    +0.000 C 
ATOM      6  N   UNL     1       4.627   3.816  17.324  0.00  0.00    +0.000 NA
ATOM      7  C   UNL     1       4.613   4.942  17.949  0.00  0.00    +0.000 C 
ATOM      8  C   UNL     1       3.433   5.397  18.759  0.00  0.00    +0.000 A 
ATOM      9  C   UNL     1       3.068   6.754  18.666  0.00  0.00    +0.000 A 
ATOM     10  C   UNL     1       2.153   7.295  19.564  0.00  0.00    +0.000 A 
ATOM     11 CL   UNL     1       1.811   8.980  19.527  0.00  0.00    +0.000 Cl
ATOM     12  C   UNL     1       1.556   6.490  20.523  0.00  0.00    +0.000 A 
ATOM     13  C   UNL     1       1.870   5.129  20.581  0.00  0.00    +0.000 A 
ATOM     14  C   UNL     1       2.804   4.548  19.699  0.00  0.00    +0.000 A 
ENDROOT
BRANCH   7  15
ATOM     15  C   UNL     1       5.831   5.836  17.826  0.00  0.00    +0.000 A 
ATOM     16  C   UNL     1       5.946   6.752  16.754  0.00  0.00    +0.000 A 
ATOM     17 CL   UNL     1       4.818   6.892  15.445  0.00  0.00    +0.000 Cl
ATOM     18  C   UNL     1       7.007   7.670  16.704  0.00  0.00    +0.000 A 
ATOM     19  C   UNL     1       7.947   7.725  17.725  0.00  0.00    +0.000 A 
ATOM     20  C   UNL     1       7.880   6.802  18.760  0.00  0.00    +0.000 A 
ATOM     21  C   UNL     1       6.867   5.832  18.787  0.00  0.00    +0.000 A 
ATOM     22 CL   UNL     1       7.052   4.620  20.014  0.00  0.00    +0.000 Cl
ENDBRANCH   7  15
TORSDOF 1
ENDMDL
MODEL 4
REMARK VINA RESULT:      -6.8      2.538      4.905
REMARK  Name = 
REMARK  2 active torsions:
REMARK  status: ('A' for Active; 'I' for Inactive)
REMARK    1  A    between atoms: C_1  and  N_2
REMARK    2  A    between atoms: C_7  and  C_8
REMARK                            x       y       z     vdW  Elec       q    Type
REMARK                         _______ _______ _______ _____ _____    ______ ____
ROOT
ATOM      1  C   UNL     1       2.195   3.555  21.606  0.00  0.00    +0.000 C 
ATOM      2  N   UNL     1       2.187   3.683  20.152  0.00  0.00    +0.000 N 
ATOM      3  C   UNL     1       2.019   2.517  19.411  0.00  0.00    +0.000 C 
ATOM      4  O   UNL     1       1.835   1.409  19.936  0.00  0.00    +0.000 OA
ATOM      5  C   UNL     1       2.008   2.652  17.906  0.00  0.00    +0.000 C 
ATOM      6  N   UNL     1       3.355   2.992  17.468  0.00  0.00    +0.000 NA
ATOM      7  C   UNL     1       3.792   4.189  17.653  0.00  0.00    +0.000 C 
ATOM      8  C   UNL     1       2.979   5.244  18.346  0.00  0.00    +0.000 A 
ATOM      9  C   UNL     1       3.015   6.546  17.810  0.00  0.00    +0.000 A 
ATOM     10  C   UNL     1       2.492   7.614  18.533  0.00  0.00    +0.000 A 
ATOM     11 CL   UNL     1       2.655   9.216  17.931  0.00  0.00    +0.000 Cl
ATOM     12  C   UNL     1       1.885   7.397  19.762  0.00  0.00    +0.000 A 
ATOM     13  C   UNL     1       1.794   6.098  20.271  0.00  0.00    +0.000 A 
ATOM     14  C   UNL     1       2.326   4.992  19.576  0.00  0.00    +0.000 A 
ENDROOT
BRANCH   7  15
ATOM     15  C   UNL     1       5.169   4.531  17.119  0.00  0.00    +0.000 A 
ATOM     16  C   UNL     1       6.191   4.972  17.993  0.00  0.00    +0.000 A 
ATOM     17 CL   UNL     1       5.985   5.269  19.689  0.00  0.00    +0.000 Cl
ATOM     18  C   UNL     1       7.501   5.168  17.526  0.00  0.00    +0.000 A 
ATOM     19  C   UNL     1       7.831   4.896  16.205  0.00  0.00    +0.000 A 
ATOM     20  C   UNL     1       6.833   4.510  15.320  0.00  0.00    +0.000 A 
ATOM     21  C   UNL     1       5.506   4.380  15.755  0.00  0.00    +0.000 A 
ATOM     22 CL   UNL     1       4.348   4.114  14.491  0.00  0.00    +0.000 Cl
ENDBRANCH   7  15
TORSDOF 1
ENDMDL
MODEL 5
REMARK VINA RESULT:      -6.8      2.505      5.212
REMARK  Name = 
REMARK  2 active torsions:
REMARK  status: ('A' for Active; 'I' for Inactive)
REMARK    1  A    between atoms: C_1  and  N_2
REMARK    2  A    between atoms: C_7  and  C_8
REMARK                            x       y       z     vdW  Elec       q    Type
REMARK                         _______ _______ _______ _____ _____    ______ ____
ROOT
ATOM      1  C   UNL     1       2.250   3.589  21.536  0.00  0.00    +0.000 C 
ATOM      2  N   UNL     1       2.240   3.755  20.085  0.00  0.00    +0.000 N 
ATOM      3  C   UNL     1       2.110   2.605  19.313  0.00  0.00    +0.000 C 
ATOM      4  O   UNL     1       1.961   1.478  19.807  0.00  0.00    +0.000 OA
ATOM      5  C   UNL     1       2.098   2.780  17.812  0.00  0.00    +0.000 C 
ATOM      6  N   UNL     1       3.433   3.175  17.386  0.00  0.00    +0.000 NA
ATOM      7  C   UNL     1       3.832   4.380  17.605  0.00  0.00    +0.000 C 
ATOM      8  C   UNL     1       2.984   5.389  18.324  0.00  0.00    +0.000 A 
ATOM      9  C   UNL     1       2.979   6.706  17.823  0.00  0.00    +0.000 A 
ATOM     10  C   UNL     1       2.421   7.737  18.573  0.00  0.00    +0.000 A 
ATOM     11 CL   UNL     1       2.534   9.359  18.015  0.00  0.00    +0.000 Cl
ATOM     12  C   UNL     1       1.819   7.467  19.794  0.00  0.00    +0.000 A 
ATOM     13  C   UNL     1       1.769   6.152  20.268  0.00  0.00    +0.000 A 
ATOM     14  C   UNL     1       2.338   5.083  19.545  0.00  0.00    +0.000 A 
ENDROOT
BRANCH   7  15
ATOM     15  C   UNL     1       5.198   4.780  17.083  0.00  0.00    +0.000 A 
ATOM     16  C   UNL     1       5.507   4.658  15.708  0.00  0.00    +0.000 A 
ATOM     17 CL   UNL     1       4.456   3.969  14.513  0.00  0.00    +0.000 Cl
ATOM     18  C   UNL     1       6.722   5.144  15.199  0.00  0.00    +0.000 A 
ATOM     19  C   UNL     1       7.631   5.789  16.027  0.00  0.00    +0.000 A 
ATOM     20  C   UNL     1       7.369   5.875  17.388  0.00  0.00    +0.000 A 
ATOM     21  C   UNL     1       6.191   5.330  17.923  0.00  0.00    +0.000 A 
ATOM     22 CL   UNL     1       6.118   5.318  19.656  0.00  0.00    +0.000 Cl
ENDBRANCH   7  15
TORSDOF 1
ENDMDL
MODEL 6
REMARK VINA RESULT:      -6.6      8.097     10.098
REMARK  Name = 
REMARK  2 active torsions:
REMARK  status: ('A' for Active; 'I' for Inactive)
REMARK    1  A    between atoms: C_1  and  N_2
REMARK    2  A    between atoms: C_7  and  C_8
REMARK                            x       y       z     vdW  Elec       q    Type
REMARK                         _______ _______ _______ _____ _____    ______ ____
ROOT
ATOM      1  C   UNL     1       0.997   9.930  18.499  0.00  0.00    +0.000 C 
ATOM      2  N   UNL     1       0.261  11.188  18.583  0.00  0.00    +0.000 N 
ATOM      3  C   UNL     1       1.007  12.353  18.731  0.00  0.00    +0.000 C 
ATOM      4  O   UNL     1       2.247  12.359  18.745  0.00  0.00    +0.000 OA
ATOM      5  C   UNL     1       0.244  13.654  18.816  0.00  0.00    +0.000 C 
ATOM      6  N   UNL     1      -0.461  13.689  20.089  0.00  0.00    +0.000 NA
ATOM      7  C   UNL     1      -1.516  12.966  20.244  0.00  0.00    +0.000 C 
ATOM      8  C   UNL     1      -2.027  12.050  19.169  0.00  0.00    +0.000 A 
ATOM      9  C   UNL     1      -3.421  12.001  18.969  0.00  0.00    +0.000 A 
ATOM     10  C   UNL     1      -3.978  11.005  18.172  0.00  0.00    +0.000 A 
ATOM     11 CL   UNL     1      -5.687  10.872  18.038  0.00  0.00    +0.000 Cl
ATOM     12  C   UNL     1      -3.161  10.088  17.527  0.00  0.00    +0.000 A 
ATOM     13  C   UNL     1      -1.773  10.170  17.674  0.00  0.00    +0.000 A 
ATOM     14  C   UNL     1      -1.172  11.154  18.486  0.00  0.00    +0.000 A 
ENDROOT
BRANCH   7  15
ATOM     15  C   UNL     1      -2.268  13.081  21.555  0.00  0.00    +0.000 A 
ATOM     16  C   UNL     1      -3.131  14.176  21.796  0.00  0.00    +0.000 A 
ATOM     17 CL   UNL     1      -3.350  15.521  20.723  0.00  0.00    +0.000 Cl
ATOM     18  C   UNL     1      -3.926  14.223  22.952  0.00  0.00    +0.000 A 
ATOM     19  C   UNL     1      -3.912  13.178  23.867  0.00  0.00    +0.000 A 
ATOM     20  C   UNL     1      -3.036  12.118  23.674  0.00  0.00    +0.000 A 
ATOM     21  C   UNL     1      -2.183  12.091  22.560  0.00  0.00    +0.000 A 
ATOM     22 CL   UNL     1      -0.999  10.824  22.581  0.00  0.00    +0.000 Cl
ENDBRANCH   7  15
TORSDOF 1
ENDMDL
MODEL 7
REMARK VINA RESULT:      -6.6      2.203      4.383
REMARK  Name = 
REMARK  2 active torsions:
REMARK  status: ('A' for Active; 'I' for Inactive)
REMARK    1  A    between atoms: C_1  and  N_2
REMARK    2  A    between atoms: C_7  and  C_8
REMARK                            x       y       z     vdW  Elec       q    Type
REMARK                         _______ _______ _______ _____ _____    ______ ____
ROOT
ATOM      1  C   UNL     1       6.787   4.554  18.211  0.00  0.00    +0.000 C 
ATOM      2  N   UNL     1       5.608   5.198  17.639  0.00  0.00    +0.000 N 
ATOM      3  C   UNL     1       5.813   6.355  16.893  0.00  0.00    +0.000 C 
ATOM      4  O   UNL     1       6.941   6.817  16.668  0.00  0.00    +0.000 OA
ATOM      5  C   UNL     1       4.592   7.018  16.300  0.00  0.00    +0.000 C 
ATOM      6  N   UNL     1       3.813   7.597  17.385  0.00  0.00    +0.000 NA
ATOM      7  C   UNL     1       3.122   6.821  18.147  0.00  0.00    +0.000 C 
ATOM      8  C   UNL     1       3.121   5.329  17.984  0.00  0.00    +0.000 A 
ATOM      9  C   UNL     1       1.887   4.663  18.123  0.00  0.00    +0.000 A 
ATOM     10  C   UNL     1       1.850   3.276  18.231  0.00  0.00    +0.000 A 
ATOM     11 CL   UNL     1       0.356   2.481  18.531  0.00  0.00    +0.000 Cl
ATOM     12  C   UNL     1       3.021   2.536  18.150  0.00  0.00    +0.000 A 
ATOM     13  C   UNL     1       4.242   3.189  17.952  0.00  0.00    +0.000 A 
ATOM     14  C   UNL     1       4.322   4.594  17.854  0.00  0.00    +0.000 A 
ENDROOT
BRANCH   7  15
ATOM     15  C   UNL     1       2.265   7.462  19.220  0.00  0.00    +0.000 A 
ATOM     16  C   UNL     1       1.700   8.744  19.020  0.00  0.00    +0.000 A 
ATOM     17 CL   UNL     1       1.987   9.749  17.636  0.00  0.00    +0.000 Cl
ATOM     18  C   UNL     1       0.803   9.288  19.954  0.00  0.00    +0.000 A 
ATOM     19  C   UNL     1       0.421   8.564  21.076  0.00  0.00    +0.000 A 
ATOM     20  C   UNL     1       1.001   7.326  21.315  0.00  0.00    +0.000 A 
ATOM     21  C   UNL     1       1.953   6.800  20.428  0.00  0.00    +0.000 A 
ATOM     22 CL   UNL     1       2.745   5.359  20.981  0.00  0.00    +0.000 Cl
ENDBRANCH   7  15
TORSDOF 1
ENDMDL
MODEL 8
REMARK VINA RESULT:      -6.5      2.194      4.457
REMARK  Name = 
REMARK  2 active torsions:
REMARK  status: ('A' for Active; 'I' for Inactive)
REMARK    1  A    between atoms: C_1  and  N_2
REMARK    2  A    between atoms: C_7  and  C_8
REMARK                            x       y       z     vdW  Elec       q    Type
REMARK                         _______ _______ _______ _____ _____    ______ ____
ROOT
ATOM      1  C   UNL     1       6.823   4.632  18.397  0.00  0.00    +0.000 C 
ATOM      2  N   UNL     1       5.652   5.240  17.774  0.00  0.00    +0.000 N 
ATOM      3  C   UNL     1       5.857   6.393  17.021  0.00  0.00    +0.000 C 
ATOM      4  O   UNL     1       6.982   6.879  16.832  0.00  0.00    +0.000 OA
ATOM      5  C   UNL     1       4.644   7.020  16.375  0.00  0.00    +0.000 C 
ATOM      6  N   UNL     1       3.812   7.594  17.424  0.00  0.00    +0.000 NA
ATOM      7  C   UNL     1       3.111   6.811  18.169  0.00  0.00    +0.000 C 
ATOM      8  C   UNL     1       3.151   5.317  18.026  0.00  0.00    +0.000 A 
ATOM      9  C   UNL     1       1.928   4.624  18.128  0.00  0.00    +0.000 A 
ATOM     10  C   UNL     1       1.919   3.238  18.253  0.00  0.00    +0.000 A 
ATOM     11 CL   UNL     1       0.434   2.411  18.508  0.00  0.00    +0.000 Cl
ATOM     12  C   UNL     1       3.109   2.525  18.224  0.00  0.00    +0.000 A 
ATOM     13  C   UNL     1       4.321   3.204  18.062  0.00  0.00    +0.000 A 
ATOM     14  C   UNL     1       4.373   4.609  17.949  0.00  0.00    +0.000 A 
ENDROOT
BRANCH   7  15
ATOM     15  C   UNL     1       2.200   7.444  19.202  0.00  0.00    +0.000 A 
ATOM     16  C   UNL     1       1.992   6.822  20.455  0.00  0.00    +0.000 A 
ATOM     17 CL   UNL     1       2.632   5.278  20.915  0.00  0.00    +0.000 Cl
ATOM     18  C   UNL     1       1.253   7.465  21.462  0.00  0.00    +0.000 A 
ATOM     19  C   UNL     1       0.741   8.741  21.263  0.00  0.00    +0.000 A 
ATOM     20  C   UNL     1       0.892   9.347  20.023  0.00  0.00    +0.000 A 
ATOM     21  C   UNL     1       1.567   8.688  18.984  0.00  0.00    +0.000 A 
ATOM     22 CL   UNL     1       1.474   9.477  17.442  0.00  0.00    +0.000 Cl
ENDBRANCH   7  15
TORSDOF 1
ENDMDL
MODEL 9
REMARK VINA RESULT:      -6.5      0.891      2.054
REMARK  Name = 
REMARK  2 active torsions:
REMARK  status: ('A' for Active; 'I' for Inactive)
REMARK    1  A    between atoms: C_1  and  N_2
REMARK    2  A    between atoms: C_7  and  C_8
REMARK                            x       y       z     vdW  Elec       q    Type
REMARK                         _______ _______ _______ _____ _____    ______ ____
ROOT
ATOM      1  C   UNL     1       5.994   6.026  15.512  0.00  0.00    +0.000 C 
ATOM      2  N   UNL     1       5.733   5.865  16.939  0.00  0.00    +0.000 N 
ATOM      3  C   UNL     1       6.628   5.085  17.666  0.00  0.00    +0.000 C 
ATOM      4  O   UNL     1       7.639   4.575  17.159  0.00  0.00    +0.000 OA
ATOM      5  C   UNL     1       6.357   4.920  19.143  0.00  0.00    +0.000 C 
ATOM      6  N   UNL     1       5.171   4.090  19.301  0.00  0.00    +0.000 NA
ATOM      7  C   UNL     1       4.012   4.597  19.063  0.00  0.00    +0.000 C 
ATOM      8  C   UNL     1       3.836   6.010  18.584  0.00  0.00    +0.000 A 
ATOM      9  C   UNL     1       2.776   6.754  19.138  0.00  0.00    +0.000 A 
ATOM     10  C   UNL     1       2.404   7.969  18.570  0.00  0.00    +0.000 A 
ATOM     11 CL   UNL     1       1.028   8.808  19.169  0.00  0.00    +0.000 Cl
ATOM     12  C   UNL     1       3.107   8.480  17.488  0.00  0.00    +0.000 A 
ATOM     13  C   UNL     1       4.198   7.773  16.973  0.00  0.00    +0.000 A 
ATOM     14  C   UNL     1       4.595   6.531  17.510  0.00  0.00    +0.000 A 
ENDROOT
BRANCH   7  15
ATOM     15  C   UNL     1       2.794   3.729  19.308  0.00  0.00    +0.000 A 
ATOM     16  C   UNL     1       2.210   2.993  18.250  0.00  0.00    +0.000 A 
ATOM     17 CL   UNL     1       2.717   3.066  16.593  0.00  0.00    +0.000 Cl
ATOM     18  C   UNL     1       1.163   2.090  18.495  0.00  0.00    +0.000 A 
ATOM     19  C   UNL     1       0.702   1.871  19.787  0.00  0.00    +0.000 A 
ATOM     20  C   UNL     1       1.228   2.620  20.832  0.00  0.00    +0.000 A 
ATOM     21  C   UNL     1       2.225   3.577  20.592  0.00  0.00    +0.000 A 
ATOM     22 CL   UNL     1       2.613   4.580  21.953  0.00  0.00    +0.000 Cl
ENDBRANCH   7  15
TORSDOF 1
ENDMDL
