MODEL 1
REMARK VINA RESULT:      -7.6      0.000      0.000
REMARK  Name = 
REMARK  6 active torsions:
REMARK  status: ('A' for Active; 'I' for Inactive)
REMARK    1  A    between atoms: C_1  and  C_2
REMARK    2  A    between atoms: C_2  and  C_3
REMARK    3  A    between atoms: C_6  and  C_8
REMARK    4  A    between atoms: C_15  and  O_16
REMARK    5  A    between atoms: C_15  and  C_17
REMARK    6  A    between atoms: C_20  and  C_21
REMARK                            x       y       z     vdW  Elec       q    Type
REMARK                         _______ _______ _______ _____ _____    ______ ____
ROOT
ATOM      1  C   UNL     1       7.203   6.578  18.326  0.00  0.00    +0.000 C 
ATOM      2  N   UNL     1       5.945   6.868  18.333  0.00  0.00    +0.000 NA
ATOM      3  N   UNL     1       5.263   5.694  18.118  0.00  0.00    +0.000 N 
ATOM      4  C   UNL     1       3.871   5.645  18.079  0.00  0.00    +0.000 C 
ATOM      5  O   UNL     1       3.253   4.636  17.762  0.00  0.00    +0.000 OA
ATOM      6  C   UNL     1       6.167   4.620  17.663  0.00  0.00    +0.000 C 
ATOM      7  C   UNL     1       7.538   5.135  18.120  0.00  0.00    +0.000 C 
ENDROOT
BRANCH   4   8
ATOM      8  C   UNL     1       3.106   6.910  18.390  0.00  0.00    +0.000 A 
ATOM      9  C   UNL     1       2.500   7.044  19.648  0.00  0.00    +0.000 A 
ATOM     10  C   UNL     1       1.691   8.155  19.935  0.00  0.00    +0.000 A 
ATOM     11  C   UNL     1       1.484   9.136  18.966  0.00  0.00    +0.000 A 
ATOM     12 BR   UNL     1       0.351  10.605  19.323  0.00  0.00    +0.000 Br
ATOM     13  C   UNL     1       2.114   9.043  17.730  0.00  0.00    +0.000 A 
ATOM     14  C   UNL     1       2.945   7.953  17.460  0.00  0.00    +0.000 A 
ENDBRANCH   4   8
BRANCH   6  15
ATOM     15  C   UNL     1       6.163   4.401  16.146  0.00  0.00    +0.000 A 
ATOM     16  C   UNL     1       7.133   5.005  15.323  0.00  0.00    +0.000 A 
ATOM     17  C   UNL     1       7.175   4.758  13.950  0.00  0.00    +0.000 A 
ATOM     18  C   UNL     1       6.255   3.893  13.357  0.00  0.00    +0.000 A 
ATOM     19  C   UNL     1       6.294   3.628  11.881  0.00  0.00    +0.000 C 
ATOM     20  C   UNL     1       5.285   3.279  14.162  0.00  0.00    +0.000 A 
ATOM     21  C   UNL     1       5.248   3.529  15.539  0.00  0.00    +0.000 A 
ENDBRANCH   6  15
BRANCH   1  23
ATOM     22  C   UNL     1       7.913   8.859  17.702  0.00  0.00    +0.000 C 
ATOM     23  C   UNL     1       8.244   7.632  18.530  0.00  0.00    +0.000 C 
ENDBRANCH   1  23
BRANCH   6  24
ATOM     24  O   UNL     1       5.876   3.422  18.372  0.00  0.00    +0.000 OA
ATOM     25  H   UNL     1       4.910   3.312  18.279  0.00  0.00    +0.000 HD
ENDBRANCH   6  24
TORSDOF 4
ENDMDL
MODEL 2
REMARK VINA RESULT:      -7.5      0.582      1.182
REMARK  Name = 
REMARK  6 active torsions:
REMARK  status: ('A' for Active; 'I' for Inactive)
REMARK    1  A    between atoms: C_1  and  C_2
REMARK    2  A    between atoms: C_2  and  C_3
REMARK    3  A    between atoms: C_6  and  C_8
REMARK    4  A    between atoms: C_15  and  O_16
REMARK    5  A    between atoms: C_15  and  C_17
REMARK    6  A    between atoms: C_20  and  C_21
REMARK                            x       y       z     vdW  Elec       q    Type
REMARK                         _______ _______ _______ _____ _____    ______ ____
ROOT
ATOM      1  C   UNL     1       7.099   7.445  17.696  0.00  0.00    +0.000 C 
ATOM      2  N   UNL     1       5.826   7.446  17.907  0.00  0.00    +0.000 NA
ATOM      3  N   UNL     1       5.433   6.130  17.979  0.00  0.00    +0.000 N 
ATOM      4  C   UNL     1       4.108   5.767  18.215  0.00  0.00    +0.000 C 
ATOM      5  O   UNL     1       3.720   4.607  18.155  0.00  0.00    +0.000 OA
ATOM      6  C   UNL     1       6.493   5.222  17.500  0.00  0.00    +0.000 C 
ATOM      7  C   UNL     1       7.747   6.100  17.615  0.00  0.00    +0.000 C 
ENDROOT
BRANCH   4   8
ATOM      8  C   UNL     1       3.111   6.865  18.503  0.00  0.00    +0.000 A 
ATOM      9  C   UNL     1       2.846   7.818  17.508  0.00  0.00    +0.000 A 
ATOM     10  C   UNL     1       2.009   8.913  17.775  0.00  0.00    +0.000 A 
ATOM     11  C   UNL     1       1.436   9.061  19.038  0.00  0.00    +0.000 A 
ATOM     12 BR   UNL     1       0.356  10.563  19.424  0.00  0.00    +0.000 Br
ATOM     13  C   UNL     1       1.651   8.102  20.021  0.00  0.00    +0.000 A 
ATOM     14  C   UNL     1       2.457   6.996  19.741  0.00  0.00    +0.000 A 
ENDBRANCH   4   8
BRANCH   6  15
ATOM     15  C   UNL     1       6.307   4.753  16.053  0.00  0.00    +0.000 A 
ATOM     16  C   UNL     1       7.212   5.135  15.044  0.00  0.00    +0.000 A 
ATOM     17  C   UNL     1       7.086   4.659  13.738  0.00  0.00    +0.000 A 
ATOM     18  C   UNL     1       6.057   3.779  13.400  0.00  0.00    +0.000 A 
ATOM     19  C   UNL     1       5.915   3.269  11.997  0.00  0.00    +0.000 C 
ATOM     20  C   UNL     1       5.149   3.385  14.393  0.00  0.00    +0.000 A 
ATOM     21  C   UNL     1       5.281   3.864  15.703  0.00  0.00    +0.000 A 
ENDBRANCH   6  15
BRANCH   1  23
ATOM     22  C   UNL     1       8.723   8.952  18.787  0.00  0.00    +0.000 C 
ATOM     23  C   UNL     1       7.864   8.723  17.558  0.00  0.00    +0.000 C 
ENDBRANCH   1  23
BRANCH   6  24
ATOM     24  O   UNL     1       6.624   4.128  18.399  0.00  0.00    +0.000 OA
ATOM     25  H   UNL     1       6.633   4.540  19.284  0.00  0.00    +0.000 HD
ENDBRANCH   6  24
TORSDOF 4
ENDMDL
MODEL 3
REMARK VINA RESULT:      -7.0      4.458      8.305
REMARK  Name = 
REMARK  6 active torsions:
REMARK  status: ('A' for Active; 'I' for Inactive)
REMARK    1  A    between atoms: C_1  and  C_2
REMARK    2  A    between atoms: C_2  and  C_3
REMARK    3  A    between atoms: C_6  and  C_8
REMARK    4  A    between atoms: C_15  and  O_16
REMARK    5  A    between atoms: C_15  and  C_17
REMARK    6  A    between atoms: C_20  and  C_21
REMARK                            x       y       z     vdW  Elec       q    Type
REMARK                         _______ _______ _______ _____ _____    ______ ____
ROOT
ATOM      1  C   UNL     1       0.673   9.814  21.519  0.00  0.00    +0.000 C 
ATOM      2  N   UNL     1       1.166   8.884  20.771  0.00  0.00    +0.000 NA
ATOM      3  N   UNL     1       1.429   9.453  19.548  0.00  0.00    +0.000 N 
ATOM      4  C   UNL     1       1.986   8.723  18.498  0.00  0.00    +0.000 C 
ATOM      5  O   UNL     1       2.107   9.178  17.367  0.00  0.00    +0.000 OA
ATOM      6  C   UNL     1       0.796  10.780  19.421  0.00  0.00    +0.000 C 
ATOM      7  C   UNL     1       0.555  11.164  20.887  0.00  0.00    +0.000 C 
ENDROOT
BRANCH   4   8
ATOM      8  C   UNL     1       2.404   7.297  18.768  0.00  0.00    +0.000 A 
ATOM      9  C   UNL     1       3.165   6.619  17.804  0.00  0.00    +0.000 A 
ATOM     10  C   UNL     1       3.480   5.261  17.969  0.00  0.00    +0.000 A 
ATOM     11  C   UNL     1       3.034   4.575  19.097  0.00  0.00    +0.000 A 
ATOM     12 BR   UNL     1       3.403   2.732  19.300  0.00  0.00    +0.000 Br
ATOM     13  C   UNL     1       2.318   5.241  20.085  0.00  0.00    +0.000 A 
ATOM     14  C   UNL     1       2.035   6.601  19.933  0.00  0.00    +0.000 A 
ENDBRANCH   4   8
BRANCH   6  15
ATOM     15  C   UNL     1      -0.530  10.770  18.653  0.00  0.00    +0.000 A 
ATOM     16  C   UNL     1      -1.501  11.766  18.867  0.00  0.00    +0.000 A 
ATOM     17  C   UNL     1      -2.683  11.800  18.124  0.00  0.00    +0.000 A 
ATOM     18  C   UNL     1      -2.928  10.844  17.138  0.00  0.00    +0.000 A 
ATOM     19  C   UNL     1      -4.198  10.874  16.341  0.00  0.00    +0.000 C 
ATOM     20  C   UNL     1      -1.970   9.846  16.909  0.00  0.00    +0.000 A 
ATOM     21  C   UNL     1      -0.785   9.817  17.655  0.00  0.00    +0.000 A 
ENDBRANCH   6  15
BRANCH   1  23
ATOM     22  C   UNL     1      -0.989  10.321  23.273  0.00  0.00    +0.000 C 
ATOM     23  C   UNL     1       0.266   9.541  22.932  0.00  0.00    +0.000 C 
ENDBRANCH   1  23
BRANCH   6  24
ATOM     24  O   UNL     1       1.726  11.698  18.860  0.00  0.00    +0.000 OA
ATOM     25  H   UNL     1       1.350  11.924  17.988  0.00  0.00    +0.000 HD
ENDBRANCH   6  24
TORSDOF 4
ENDMDL
MODEL 4
REMARK VINA RESULT:      -6.9      3.158      6.891
REMARK  Name = 
REMARK  6 active torsions:
REMARK  status: ('A' for Active; 'I' for Inactive)
REMARK    1  A    between atoms: C_1  and  C_2
REMARK    2  A    between atoms: C_2  and  C_3
REMARK    3  A    between atoms: C_6  and  C_8
REMARK    4  A    between atoms: C_15  and  O_16
REMARK    5  A    between atoms: C_15  and  C_17
REMARK    6  A    between atoms: C_20  and  C_21
REMARK                            x       y       z     vdW  Elec       q    Type
REMARK                         _______ _______ _______ _____ _____    ______ ____
ROOT
ATOM      1  C   UNL     1       3.005   3.464  18.180  0.00  0.00    +0.000 C 
ATOM      2  N   UNL     1       3.811   3.886  17.264  0.00  0.00    +0.000 NA
ATOM      3  N   UNL     1       4.526   4.926  17.809  0.00  0.00    +0.000 N 
ATOM      4  C   UNL     1       5.504   5.608  17.087  0.00  0.00    +0.000 C 
ATOM      5  O   UNL     1       6.058   6.614  17.511  0.00  0.00    +0.000 OA
ATOM      6  C   UNL     1       3.934   5.381  19.081  0.00  0.00    +0.000 C 
ATOM      7  C   UNL     1       3.089   4.169  19.496  0.00  0.00    +0.000 C 
ENDROOT
BRANCH   4   8
ATOM      8  C   UNL     1       5.847   5.105  15.704  0.00  0.00    +0.000 A 
ATOM      9  C   UNL     1       4.833   4.541  14.916  0.00  0.00    +0.000 A 
ATOM     10  C   UNL     1       5.133   3.965  13.672  0.00  0.00    +0.000 A 
ATOM     11  C   UNL     1       6.448   3.948  13.211  0.00  0.00    +0.000 A 
ATOM     12 BR   UNL     1       6.871   3.123  11.564  0.00  0.00    +0.000 Br
ATOM     13  C   UNL     1       7.460   4.542  13.957  0.00  0.00    +0.000 A 
ATOM     14  C   UNL     1       7.151   5.145  15.179  0.00  0.00    +0.000 A 
ENDBRANCH   4   8
BRANCH   6  15
ATOM     15  C   UNL     1       3.047   6.624  18.949  0.00  0.00    +0.000 A 
ATOM     16  C   UNL     1       2.282   7.089  20.036  0.00  0.00    +0.000 A 
ATOM     17  C   UNL     1       1.523   8.257  19.942  0.00  0.00    +0.000 A 
ATOM     18  C   UNL     1       1.511   9.002  18.762  0.00  0.00    +0.000 A 
ATOM     19  C   UNL     1       0.693  10.254  18.656  0.00  0.00    +0.000 C 
ATOM     20  C   UNL     1       2.269   8.555  17.671  0.00  0.00    +0.000 A 
ATOM     21  C   UNL     1       3.030   7.383  17.770  0.00  0.00    +0.000 A 
ENDBRANCH   6  15
BRANCH   1  23
ATOM     22  C   UNL     1       0.870   2.424  18.855  0.00  0.00    +0.000 C 
ATOM     23  C   UNL     1       2.065   2.329  17.925  0.00  0.00    +0.000 C 
ENDBRANCH   1  23
BRANCH   6  24
ATOM     24  O   UNL     1       4.963   5.565  20.045  0.00  0.00    +0.000 OA
ATOM     25  H   UNL     1       4.493   5.600  20.900  0.00  0.00    +0.000 HD
ENDBRANCH   6  24
TORSDOF 4
ENDMDL
MODEL 5
REMARK VINA RESULT:      -6.8      4.364      8.279
REMARK  Name = 
REMARK  6 active torsions:
REMARK  status: ('A' for Active; 'I' for Inactive)
REMARK    1  A    between atoms: C_1  and  C_2
REMARK    2  A    between atoms: C_2  and  C_3
REMARK    3  A    between atoms: C_6  and  C_8
REMARK    4  A    between atoms: C_15  and  O_16
REMARK    5  A    between atoms: C_15  and  C_17
REMARK    6  A    between atoms: C_20  and  C_21
REMARK                            x       y       z     vdW  Elec       q    Type
REMARK                         _______ _______ _______ _____ _____    ______ ____
ROOT
ATOM      1  C   UNL     1       0.608   9.762  21.413  0.00  0.00    +0.000 C 
ATOM      2  N   UNL     1       1.149   8.893  20.627  0.00  0.00    +0.000 NA
ATOM      3  N   UNL     1       1.454   9.548  19.458  0.00  0.00    +0.000 N 
ATOM      4  C   UNL     1       2.068   8.900  18.387  0.00  0.00    +0.000 C 
ATOM      5  O   UNL     1       2.230   9.434  17.296  0.00  0.00    +0.000 OA
ATOM      6  C   UNL     1       0.804  10.871  19.394  0.00  0.00    +0.000 C 
ATOM      7  C   UNL     1       0.494  11.151  20.870  0.00  0.00    +0.000 C 
ENDROOT
BRANCH   4   8
ATOM      8  C   UNL     1       2.499   7.465  18.577  0.00  0.00    +0.000 A 
ATOM      9  C   UNL     1       2.050   6.766  19.708  0.00  0.00    +0.000 A 
ATOM     10  C   UNL     1       2.515   5.469  19.976  0.00  0.00    +0.000 A 
ATOM     11  C   UNL     1       3.432   4.866  19.116  0.00  0.00    +0.000 A 
ATOM     12 BR   UNL     1       4.108   3.143  19.499  0.00  0.00    +0.000 Br
ATOM     13  C   UNL     1       3.853   5.525  17.967  0.00  0.00    +0.000 A 
ATOM     14  C   UNL     1       3.362   6.802  17.686  0.00  0.00    +0.000 A 
ENDBRANCH   4   8
BRANCH   6  15
ATOM     15  C   UNL     1      -0.487  10.894  18.568  0.00  0.00    +0.000 A 
ATOM     16  C   UNL     1      -0.822   9.826  17.714  0.00  0.00    +0.000 A 
ATOM     17  C   UNL     1      -2.026   9.811  17.009  0.00  0.00    +0.000 A 
ATOM     18  C   UNL     1      -2.939  10.857  17.142  0.00  0.00    +0.000 A 
ATOM     19  C   UNL     1      -4.232  10.847  16.383  0.00  0.00    +0.000 C 
ATOM     20  C   UNL     1      -2.624  11.927  17.991  0.00  0.00    +0.000 A 
ATOM     21  C   UNL     1      -1.415  11.938  18.697  0.00  0.00    +0.000 A 
ENDBRANCH   6  15
BRANCH   1  23
ATOM     22  C   UNL     1      -0.937  10.342  23.249  0.00  0.00    +0.000 C 
ATOM     23  C   UNL     1       0.145   9.387  22.785  0.00  0.00    +0.000 C 
ENDBRANCH   1  23
BRANCH   6  24
ATOM     24  O   UNL     1       1.741  11.839  18.938  0.00  0.00    +0.000 OA
ATOM     25  H   UNL     1       2.290  11.361  18.288  0.00  0.00    +0.000 HD
ENDBRANCH   6  24
TORSDOF 4
ENDMDL
MODEL 6
REMARK VINA RESULT:      -6.8      3.135      6.898
REMARK  Name = 
REMARK  6 active torsions:
REMARK  status: ('A' for Active; 'I' for Inactive)
REMARK    1  A    between atoms: C_1  and  C_2
REMARK    2  A    between atoms: C_2  and  C_3
REMARK    3  A    between atoms: C_6  and  C_8
REMARK    4  A    between atoms: C_15  and  O_16
REMARK    5  A    between atoms: C_15  and  C_17
REMARK    6  A    between atoms: C_20  and  C_21
REMARK                            x       y       z     vdW  Elec       q    Type
REMARK                         _______ _______ _______ _____ _____    ______ ____
ROOT
ATOM      1  C   UNL     1       2.854   3.448  18.360  0.00  0.00    +0.000 C 
ATOM      2  N   UNL     1       3.697   3.812  17.453  0.00  0.00    +0.000 NA
ATOM      3  N   UNL     1       4.433   4.845  17.983  0.00  0.00    +0.000 N 
ATOM      4  C   UNL     1       5.451   5.470  17.266  0.00  0.00    +0.000 C 
ATOM      5  O   UNL     1       6.028   6.472  17.672  0.00  0.00    +0.000 OA
ATOM      6  C   UNL     1       3.823   5.362  19.224  0.00  0.00    +0.000 C 
ATOM      7  C   UNL     1       2.927   4.193  19.654  0.00  0.00    +0.000 C 
ENDROOT
BRANCH   4   8
ATOM      8  C   UNL     1       5.813   4.910  15.910  0.00  0.00    +0.000 A 
ATOM      9  C   UNL     1       7.126   5.065  15.440  0.00  0.00    +0.000 A 
ATOM     10  C   UNL     1       7.472   4.655  14.143  0.00  0.00    +0.000 A 
ATOM     11  C   UNL     1       6.508   4.091  13.310  0.00  0.00    +0.000 A 
ATOM     12 BR   UNL     1       6.950   3.590  11.542  0.00  0.00    +0.000 Br
ATOM     13  C   UNL     1       5.213   3.887  13.774  0.00  0.00    +0.000 A 
ATOM     14  C   UNL     1       4.881   4.265  15.078  0.00  0.00    +0.000 A 
ENDBRANCH   4   8
BRANCH   6  15
ATOM     15  C   UNL     1       2.983   6.628  19.027  0.00  0.00    +0.000 A 
ATOM     16  C   UNL     1       2.217   7.163  20.081  0.00  0.00    +0.000 A 
ATOM     17  C   UNL     1       1.501   8.351  19.928  0.00  0.00    +0.000 A 
ATOM     18  C   UNL     1       1.534   9.048  18.720  0.00  0.00    +0.000 A 
ATOM     19  C   UNL     1       0.762  10.323  18.550  0.00  0.00    +0.000 C 
ATOM     20  C   UNL     1       2.294   8.533  17.661  0.00  0.00    +0.000 A 
ATOM     21  C   UNL     1       3.012   7.341  17.819  0.00  0.00    +0.000 A 
ENDBRANCH   6  15
BRANCH   1  23
ATOM     22  C   UNL     1       0.624   2.556  18.935  0.00  0.00    +0.000 C 
ATOM     23  C   UNL     1       1.882   2.337  18.117  0.00  0.00    +0.000 C 
ENDBRANCH   1  23
BRANCH   6  24
ATOM     24  O   UNL     1       4.832   5.544  20.208  0.00  0.00    +0.000 OA
ATOM     25  H   UNL     1       5.670   5.505  19.709  0.00  0.00    +0.000 HD
ENDBRANCH   6  24
TORSDOF 4
ENDMDL
MODEL 7
REMARK VINA RESULT:      -6.8      5.449     10.025
REMARK  Name = 
REMARK  6 active torsions:
REMARK  status: ('A' for Active; 'I' for Inactive)
REMARK    1  A    between atoms: C_1  and  C_2
REMARK    2  A    between atoms: C_2  and  C_3
REMARK    3  A    between atoms: C_6  and  C_8
REMARK    4  A    between atoms: C_15  and  O_16
REMARK    5  A    between atoms: C_15  and  C_17
REMARK    6  A    between atoms: C_20  and  C_21
REMARK                            x       y       z     vdW  Elec       q    Type
REMARK                         _______ _______ _______ _____ _____    ______ ____
ROOT
ATOM      1  C   UNL     1       1.572  13.284  19.510  0.00  0.00    +0.000 C 
ATOM      2  N   UNL     1       1.537  11.998  19.414  0.00  0.00    +0.000 NA
ATOM      3  N   UNL     1       0.256  11.658  19.051  0.00  0.00    +0.000 N 
ATOM      4  C   UNL     1      -0.128  10.334  18.846  0.00  0.00    +0.000 C 
ATOM      5  O   UNL     1      -1.291  10.005  18.649  0.00  0.00    +0.000 OA
ATOM      6  C   UNL     1      -0.668  12.800  19.198  0.00  0.00    +0.000 C 
ATOM      7  C   UNL     1       0.294  13.996  19.198  0.00  0.00    +0.000 C 
ENDROOT
BRANCH   4   8
ATOM      8  C   UNL     1       0.937   9.265  18.926  0.00  0.00    +0.000 A 
ATOM      9  C   UNL     1       1.688   8.969  17.778  0.00  0.00    +0.000 A 
ATOM     10  C   UNL     1       2.610   7.910  17.783  0.00  0.00    +0.000 A 
ATOM     11  C   UNL     1       2.783   7.143  18.933  0.00  0.00    +0.000 A 
ATOM     12 BR   UNL     1       3.979   5.679  18.931  0.00  0.00    +0.000 Br
ATOM     13  C   UNL     1       2.082   7.450  20.093  0.00  0.00    +0.000 A 
ATOM     14  C   UNL     1       1.190   8.526  20.095  0.00  0.00    +0.000 A 
ENDBRANCH   4   8
BRANCH   6  15
ATOM     15  C   UNL     1      -1.487  12.779  20.493  0.00  0.00    +0.000 A 
ATOM     16  C   UNL     1      -2.882  12.966  20.473  0.00  0.00    +0.000 A 
ATOM     17  C   UNL     1      -3.642  12.883  21.640  0.00  0.00    +0.000 A 
ATOM     18  C   UNL     1      -3.034  12.604  22.865  0.00  0.00    +0.000 A 
ATOM     19  C   UNL     1      -3.846  12.519  24.122  0.00  0.00    +0.000 C 
ATOM     20  C   UNL     1      -1.646  12.412  22.902  0.00  0.00    +0.000 A 
ATOM     21  C   UNL     1      -0.887  12.494  21.728  0.00  0.00    +0.000 A 
ENDBRANCH   6  15
BRANCH   1  23
ATOM     22  C   UNL     1       3.305  14.868  18.746  0.00  0.00    +0.000 C 
ATOM     23  C   UNL     1       2.826  14.002  19.895  0.00  0.00    +0.000 C 
ENDBRANCH   1  23
BRANCH   6  24
ATOM     24  O   UNL     1      -1.499  12.889  18.047  0.00  0.00    +0.000 OA
ATOM     25  H   UNL     1      -1.256  12.111  17.510  0.00  0.00    +0.000 HD
ENDBRANCH   6  24
TORSDOF 4
ENDMDL
MODEL 8
REMARK VINA RESULT:      -6.7      5.372     10.015
REMARK  Name = 
REMARK  6 active torsions:
REMARK  status: ('A' for Active; 'I' for Inactive)
REMARK    1  A    between atoms: C_1  and  C_2
REMARK    2  A    between atoms: C_2  and  C_3
REMARK    3  A    between atoms: C_6  and  C_8
REMARK    4  A    between atoms: C_15  and  O_16
REMARK    5  A    between atoms: C_15  and  C_17
REMARK    6  A    between atoms: C_20  and  C_21
REMARK                            x       y       z     vdW  Elec       q    Type
REMARK                         _______ _______ _______ _____ _____    ______ ____
ROOT
ATOM      1  C   UNL     1       1.622  13.237  19.661  0.00  0.00    +0.000 C 
ATOM      2  N   UNL     1       1.596  11.958  19.492  0.00  0.00    +0.000 NA
ATOM      3  N   UNL     1       0.331  11.637  19.062  0.00  0.00    +0.000 N 
ATOM      4  C   UNL     1      -0.039  10.325  18.769  0.00  0.00    +0.000 C 
ATOM      5  O   UNL     1      -1.193  10.006  18.509  0.00  0.00    +0.000 OA
ATOM      6  C   UNL     1      -0.603  12.766  19.238  0.00  0.00    +0.000 C 
ATOM      7  C   UNL     1       0.353  13.962  19.341  0.00  0.00    +0.000 C 
ENDROOT
BRANCH   4   8
ATOM      8  C   UNL     1       1.026   9.256  18.829  0.00  0.00    +0.000 A 
ATOM      9  C   UNL     1       1.791   8.996  17.682  0.00  0.00    +0.000 A 
ATOM     10  C   UNL     1       2.715   7.938  17.665  0.00  0.00    +0.000 A 
ATOM     11  C   UNL     1       2.876   7.137  18.794  0.00  0.00    +0.000 A 
ATOM     12 BR   UNL     1       4.074   5.675  18.761  0.00  0.00    +0.000 Br
ATOM     13  C   UNL     1       2.161   7.408  19.954  0.00  0.00    +0.000 A 
ATOM     14  C   UNL     1       1.267   8.482  19.978  0.00  0.00    +0.000 A 
ENDBRANCH   4   8
BRANCH   6  15
ATOM     15  C   UNL     1      -1.469  12.671  20.498  0.00  0.00    +0.000 A 
ATOM     16  C   UNL     1      -0.898  12.382  21.752  0.00  0.00    +0.000 A 
ATOM     17  C   UNL     1      -1.671  12.357  22.913  0.00  0.00    +0.000 A 
ATOM     18  C   UNL     1      -3.039  12.630  22.861  0.00  0.00    +0.000 A 
ATOM     19  C   UNL     1      -3.874  12.601  24.106  0.00  0.00    +0.000 C 
ATOM     20  C   UNL     1      -3.624  12.924  21.621  0.00  0.00    +0.000 A 
ATOM     21  C   UNL     1      -2.844  12.949  20.458  0.00  0.00    +0.000 A 
ENDBRANCH   6  15
BRANCH   1  23
ATOM     22  C   UNL     1       2.601  14.605  21.468  0.00  0.00    +0.000 C 
ATOM     23  C   UNL     1       2.858  13.934  20.133  0.00  0.00    +0.000 C 
ENDBRANCH   1  23
BRANCH   6  24
ATOM     24  O   UNL     1      -1.390  12.918  18.064  0.00  0.00    +0.000 OA
ATOM     25  H   UNL     1      -2.194  12.394  18.239  0.00  0.00    +0.000 HD
ENDBRANCH   6  24
TORSDOF 4
ENDMDL
MODEL 9
REMARK VINA RESULT:      -6.7      3.131      6.910
REMARK  Name = 
REMARK  6 active torsions:
REMARK  status: ('A' for Active; 'I' for Inactive)
REMARK    1  A    between atoms: C_1  and  C_2
REMARK    2  A    between atoms: C_2  and  C_3
REMARK    3  A    between atoms: C_6  and  C_8
REMARK    4  A    between atoms: C_15  and  O_16
REMARK    5  A    between atoms: C_15  and  C_17
REMARK    6  A    between atoms: C_20  and  C_21
REMARK                            x       y       z     vdW  Elec       q    Type
REMARK                         _______ _______ _______ _____ _____    ______ ____
ROOT
ATOM      1  C   UNL     1       2.481   3.699  18.373  0.00  0.00    +0.000 C 
ATOM      2  N   UNL     1       3.409   4.023  17.537  0.00  0.00    +0.000 NA
ATOM      3  N   UNL     1       4.184   4.978  18.151  0.00  0.00    +0.000 N 
ATOM      4  C   UNL     1       5.294   5.543  17.526  0.00  0.00    +0.000 C 
ATOM      5  O   UNL     1       5.917   6.483  18.005  0.00  0.00    +0.000 OA
ATOM      6  C   UNL     1       3.533   5.502  19.368  0.00  0.00    +0.000 C 
ATOM      7  C   UNL     1       2.522   4.395  19.696  0.00  0.00    +0.000 C 
ENDROOT
BRANCH   4   8
ATOM      8  C   UNL     1       5.703   4.999  16.177  0.00  0.00    +0.000 A 
ATOM      9  C   UNL     1       7.034   5.147  15.761  0.00  0.00    +0.000 A 
ATOM     10  C   UNL     1       7.427   4.752  14.472  0.00  0.00    +0.000 A 
ATOM     11  C   UNL     1       6.491   4.210  13.594  0.00  0.00    +0.000 A 
ATOM     12 BR   UNL     1       6.997   3.730  11.837  0.00  0.00    +0.000 Br
ATOM     13  C   UNL     1       5.177   4.013  14.004  0.00  0.00    +0.000 A 
ATOM     14  C   UNL     1       4.798   4.376  15.299  0.00  0.00    +0.000 A 
ENDBRANCH   4   8
BRANCH   6  15
ATOM     15  C   UNL     1       2.807   6.836  19.163  0.00  0.00    +0.000 A 
ATOM     16  C   UNL     1       2.814   7.482  17.911  0.00  0.00    +0.000 A 
ATOM     17  C   UNL     1       2.102   8.664  17.701  0.00  0.00    +0.000 A 
ATOM     18  C   UNL     1       1.352   9.234  18.731  0.00  0.00    +0.000 A 
ATOM     19  C   UNL     1       0.590  10.505  18.510  0.00  0.00    +0.000 C 
ATOM     20  C   UNL     1       1.331   8.602  19.982  0.00  0.00    +0.000 A 
ATOM     21  C   UNL     1       2.047   7.416  20.189  0.00  0.00    +0.000 A 
ENDBRANCH   6  15
BRANCH   1  23
ATOM     22  C   UNL     1       0.586   2.374  19.239  0.00  0.00    +0.000 C 
ATOM     23  C   UNL     1       1.446   2.676  18.027  0.00  0.00    +0.000 C 
ENDBRANCH   1  23
BRANCH   6  24
ATOM     24  O   UNL     1       4.484   5.573  20.422  0.00  0.00    +0.000 OA
ATOM     25  H   UNL     1       4.449   6.502  20.721  0.00  0.00    +0.000 HD
ENDBRANCH   6  24
TORSDOF 4
ENDMDL
