MODEL 1
REMARK VINA RESULT:      -6.3      0.000      0.000
REMARK  Name = 
REMARK  3 active torsions:
REMARK  status: ('A' for Active; 'I' for Inactive)
REMARK    1  A    between atoms: C_5  and  C_6
REMARK    2  A    between atoms: C_6  and  C_7
REMARK    3  A    between atoms: C_7  and  C_8
REMARK                            x       y       z     vdW  Elec       q    Type
REMARK                         _______ _______ _______ _____ _____    ______ ____
ROOT
ATOM      1  C   UNL     1       3.728   5.609  17.548  0.00  0.00    +0.000 C 
ENDROOT
BRANCH   1   2
ATOM      2  C   UNL     1       2.764   4.928  18.485  0.00  0.00    +0.000 A 
ATOM      3  C   UNL     1       1.887   3.947  18.007  0.00  0.00    +0.000 A 
ATOM      4  C   UNL     1       0.982   3.326  18.869  0.00  0.00    +0.000 A 
ATOM      5  C   UNL     1       0.946   3.681  20.216  0.00  0.00    +0.000 A 
ATOM      6  C   UNL     1       1.814   4.656  20.702  0.00  0.00    +0.000 A 
ATOM      7  C   UNL     1       2.717   5.281  19.841  0.00  0.00    +0.000 A 
ENDBRANCH   1   2
BRANCH   1   8
ATOM      8  C   UNL     1       4.709   4.618  16.918  0.00  0.00    +0.000 C 
BRANCH   8  13
ATOM      9  O   UNL     1       7.422   4.769  18.823  0.00  0.00    +0.000 OA
ATOM     10  C   UNL     1       7.194   4.797  17.637  0.00  0.00    +0.000 C 
ATOM     11  O   UNL     1       7.954   4.330  16.614  0.00  0.00    +0.000 OA
ATOM     12  C   UNL     1       6.963   4.705  15.622  0.00  0.00    +0.000 C 
ATOM     13  C   UNL     1       6.059   5.286  16.713  0.00  0.00    +0.000 C 
ENDBRANCH   8  13
ENDBRANCH   1   8
TORSDOF 3
ENDMDL
MODEL 2
REMARK VINA RESULT:      -6.3      1.190      1.342
REMARK  Name = 
REMARK  3 active torsions:
REMARK  status: ('A' for Active; 'I' for Inactive)
REMARK    1  A    between atoms: C_5  and  C_6
REMARK    2  A    between atoms: C_6  and  C_7
REMARK    3  A    between atoms: C_7  and  C_8
REMARK                            x       y       z     vdW  Elec       q    Type
REMARK                         _______ _______ _______ _____ _____    ______ ____
ROOT
ATOM      1  C   UNL     1       3.070   6.159  17.801  0.00  0.00    +0.000 C 
ENDROOT
BRANCH   1   2
ATOM      2  C   UNL     1       2.312   5.091  18.547  0.00  0.00    +0.000 A 
ATOM      3  C   UNL     1       1.833   3.962  17.872  0.00  0.00    +0.000 A 
ATOM      4  C   UNL     1       1.116   2.979  18.557  0.00  0.00    +0.000 A 
ATOM      5  C   UNL     1       0.871   3.119  19.922  0.00  0.00    +0.000 A 
ATOM      6  C   UNL     1       1.342   4.240  20.603  0.00  0.00    +0.000 A 
ATOM      7  C   UNL     1       2.056   5.224  19.919  0.00  0.00    +0.000 A 
ENDBRANCH   1   2
BRANCH   1   8
ATOM      8  C   UNL     1       4.581   5.924  17.848  0.00  0.00    +0.000 C 
BRANCH   8  13
ATOM      9  O   UNL     1       7.484   6.356  16.299  0.00  0.00    +0.000 OA
ATOM     10  C   UNL     1       6.609   5.524  16.282  0.00  0.00    +0.000 C 
ATOM     11  O   UNL     1       6.711   4.186  16.072  0.00  0.00    +0.000 OA
ATOM     12  C   UNL     1       5.287   3.983  16.265  0.00  0.00    +0.000 C 
ATOM     13  C   UNL     1       5.079   5.485  16.479  0.00  0.00    +0.000 C 
ENDBRANCH   8  13
ENDBRANCH   1   8
TORSDOF 3
ENDMDL
MODEL 3
REMARK VINA RESULT:      -6.3      1.224      1.501
REMARK  Name = 
REMARK  3 active torsions:
REMARK  status: ('A' for Active; 'I' for Inactive)
REMARK    1  A    between atoms: C_5  and  C_6
REMARK    2  A    between atoms: C_6  and  C_7
REMARK    3  A    between atoms: C_7  and  C_8
REMARK                            x       y       z     vdW  Elec       q    Type
REMARK                         _______ _______ _______ _____ _____    ______ ____
ROOT
ATOM      1  C   UNL     1       2.930   6.266  17.957  0.00  0.00    +0.000 C 
ENDROOT
BRANCH   1   2
ATOM      2  C   UNL     1       2.222   5.128  18.645  0.00  0.00    +0.000 A 
ATOM      3  C   UNL     1       1.805   4.009  17.914  0.00  0.00    +0.000 A 
ATOM      4  C   UNL     1       1.134   2.961  18.545  0.00  0.00    +0.000 A 
ATOM      5  C   UNL     1       0.873   3.023  19.912  0.00  0.00    +0.000 A 
ATOM      6  C   UNL     1       1.282   4.133  20.649  0.00  0.00    +0.000 A 
ATOM      7  C   UNL     1       1.950   5.183  20.019  0.00  0.00    +0.000 A 
ENDBRANCH   1   2
BRANCH   1   8
ATOM      8  C   UNL     1       4.234   5.812  17.297  0.00  0.00    +0.000 C 
BRANCH   8  13
ATOM      9  O   UNL     1       5.210   3.471  19.438  0.00  0.00    +0.000 OA
ATOM     10  C   UNL     1       5.743   4.379  18.844  0.00  0.00    +0.000 C 
ATOM     11  O   UNL     1       7.012   4.454  18.368  0.00  0.00    +0.000 OA
ATOM     12  C   UNL     1       6.788   5.769  17.796  0.00  0.00    +0.000 C 
ATOM     13  C   UNL     1       5.351   5.779  18.328  0.00  0.00    +0.000 C 
ENDBRANCH   8  13
ENDBRANCH   1   8
TORSDOF 3
ENDMDL
MODEL 4
REMARK VINA RESULT:      -6.3      0.415      1.397
REMARK  Name = 
REMARK  3 active torsions:
REMARK  status: ('A' for Active; 'I' for Inactive)
REMARK    1  A    between atoms: C_5  and  C_6
REMARK    2  A    between atoms: C_6  and  C_7
REMARK    3  A    between atoms: C_7  and  C_8
REMARK                            x       y       z     vdW  Elec       q    Type
REMARK                         _______ _______ _______ _____ _____    ______ ____
ROOT
ATOM      1  C   UNL     1       3.953   6.137  17.649  0.00  0.00    +0.000 C 
ENDROOT
BRANCH   1   2
ATOM      2  C   UNL     1       2.939   5.373  18.460  0.00  0.00    +0.000 A 
ATOM      3  C   UNL     1       2.738   5.678  19.811  0.00  0.00    +0.000 A 
ATOM      4  C   UNL     1       1.810   4.962  20.569  0.00  0.00    +0.000 A 
ATOM      5  C   UNL     1       1.077   3.932  19.982  0.00  0.00    +0.000 A 
ATOM      6  C   UNL     1       1.270   3.619  18.638  0.00  0.00    +0.000 A 
ATOM      7  C   UNL     1       2.199   4.333  17.880  0.00  0.00    +0.000 A 
ENDBRANCH   1   2
BRANCH   1   8
ATOM      8  C   UNL     1       4.711   5.228  16.679  0.00  0.00    +0.000 C 
BRANCH   8  13
ATOM      9  O   UNL     1       7.267   4.662  18.719  0.00  0.00    +0.000 OA
ATOM     10  C   UNL     1       7.130   4.853  17.534  0.00  0.00    +0.000 C 
ATOM     11  O   UNL     1       7.860   4.356  16.503  0.00  0.00    +0.000 OA
ATOM     12  C   UNL     1       7.027   5.013  15.512  0.00  0.00    +0.000 C 
ATOM     13  C   UNL     1       6.173   5.642  16.617  0.00  0.00    +0.000 C 
ENDBRANCH   8  13
ENDBRANCH   1   8
TORSDOF 3
ENDMDL
MODEL 5
REMARK VINA RESULT:      -6.2      0.682      1.408
REMARK  Name = 
REMARK  3 active torsions:
REMARK  status: ('A' for Active; 'I' for Inactive)
REMARK    1  A    between atoms: C_5  and  C_6
REMARK    2  A    between atoms: C_6  and  C_7
REMARK    3  A    between atoms: C_7  and  C_8
REMARK                            x       y       z     vdW  Elec       q    Type
REMARK                         _______ _______ _______ _____ _____    ______ ____
ROOT
ATOM      1  C   UNL     1       3.448   4.554  17.153  0.00  0.00    +0.000 C 
ENDROOT
BRANCH   1   2
ATOM      2  C   UNL     1       2.585   4.223  18.342  0.00  0.00    +0.000 A 
ATOM      3  C   UNL     1       2.394   5.164  19.361  0.00  0.00    +0.000 A 
ATOM      4  C   UNL     1       1.608   4.855  20.472  0.00  0.00    +0.000 A 
ATOM      5  C   UNL     1       1.008   3.601  20.575  0.00  0.00    +0.000 A 
ATOM      6  C   UNL     1       1.193   2.657  19.567  0.00  0.00    +0.000 A 
ATOM      7  C   UNL     1       1.981   2.963  18.457  0.00  0.00    +0.000 A 
ENDBRANCH   1   2
BRANCH   1   8
ATOM      8  C   UNL     1       4.828   3.899  17.248  0.00  0.00    +0.000 C 
BRANCH   8  13
ATOM      9  O   UNL     1       7.748   4.799  18.543  0.00  0.00    +0.000 OA
ATOM     10  C   UNL     1       7.282   4.717  17.431  0.00  0.00    +0.000 C 
ATOM     11  O   UNL     1       7.908   4.409  16.266  0.00  0.00    +0.000 OA
ATOM     12  C   UNL     1       6.673   4.484  15.508  0.00  0.00    +0.000 C 
ATOM     13  C   UNL     1       5.896   4.871  16.771  0.00  0.00    +0.000 C 
ENDBRANCH   8  13
ENDBRANCH   1   8
TORSDOF 3
ENDMDL
MODEL 6
REMARK VINA RESULT:      -6.2      1.001      1.142
REMARK  Name = 
REMARK  3 active torsions:
REMARK  status: ('A' for Active; 'I' for Inactive)
REMARK    1  A    between atoms: C_5  and  C_6
REMARK    2  A    between atoms: C_6  and  C_7
REMARK    3  A    between atoms: C_7  and  C_8
REMARK                            x       y       z     vdW  Elec       q    Type
REMARK                         _______ _______ _______ _____ _____    ______ ____
ROOT
ATOM      1  C   UNL     1       3.655   4.695  17.269  0.00  0.00    +0.000 C 
ENDROOT
BRANCH   1   2
ATOM      2  C   UNL     1       2.667   4.298  18.335  0.00  0.00    +0.000 A 
ATOM      3  C   UNL     1       1.863   3.164  18.167  0.00  0.00    +0.000 A 
ATOM      4  C   UNL     1       0.935   2.803  19.146  0.00  0.00    +0.000 A 
ATOM      5  C   UNL     1       0.803   3.573  20.299  0.00  0.00    +0.000 A 
ATOM      6  C   UNL     1       1.597   4.705  20.476  0.00  0.00    +0.000 A 
ATOM      7  C   UNL     1       2.523   5.069  19.497  0.00  0.00    +0.000 A 
ENDBRANCH   1   2
BRANCH   1   8
ATOM      8  C   UNL     1       5.032   4.072  17.506  0.00  0.00    +0.000 C 
BRANCH   8  13
ATOM      9  O   UNL     1       8.342   4.118  17.742  0.00  0.00    +0.000 OA
ATOM     10  C   UNL     1       7.474   4.942  17.579  0.00  0.00    +0.000 C 
ATOM     11  O   UNL     1       7.522   6.099  16.870  0.00  0.00    +0.000 OA
ATOM     12  C   UNL     1       6.131   6.404  17.153  0.00  0.00    +0.000 C 
ATOM     13  C   UNL     1       6.002   5.134  18.000  0.00  0.00    +0.000 C 
ENDBRANCH   8  13
ENDBRANCH   1   8
TORSDOF 3
ENDMDL
MODEL 7
REMARK VINA RESULT:      -6.1      1.295      1.847
REMARK  Name = 
REMARK  3 active torsions:
REMARK  status: ('A' for Active; 'I' for Inactive)
REMARK    1  A    between atoms: C_5  and  C_6
REMARK    2  A    between atoms: C_6  and  C_7
REMARK    3  A    between atoms: C_7  and  C_8
REMARK                            x       y       z     vdW  Elec       q    Type
REMARK                         _______ _______ _______ _____ _____    ______ ____
ROOT
ATOM      1  C   UNL     1       3.596   3.676  17.036  0.00  0.00    +0.000 C 
ENDROOT
BRANCH   1   2
ATOM      2  C   UNL     1       2.675   3.818  18.220  0.00  0.00    +0.000 A 
ATOM      3  C   UNL     1       2.812   4.901  19.096  0.00  0.00    +0.000 A 
ATOM      4  C   UNL     1       1.970   5.027  20.203  0.00  0.00    +0.000 A 
ATOM      5  C   UNL     1       0.987   4.069  20.444  0.00  0.00    +0.000 A 
ATOM      6  C   UNL     1       0.844   2.986  19.579  0.00  0.00    +0.000 A 
ATOM      7  C   UNL     1       1.685   2.858  18.473  0.00  0.00    +0.000 A 
ENDBRANCH   1   2
BRANCH   1   8
ATOM      8  C   UNL     1       4.942   4.365  17.274  0.00  0.00    +0.000 C 
BRANCH   8  13
ATOM      9  O   UNL     1       7.431   6.454  16.602  0.00  0.00    +0.000 OA
ATOM     10  C   UNL     1       6.887   5.542  16.027  0.00  0.00    +0.000 C 
ATOM     11  O   UNL     1       7.420   4.647  15.155  0.00  0.00    +0.000 OA
ATOM     12  C   UNL     1       6.162   3.938  15.015  0.00  0.00    +0.000 C 
ATOM     13  C   UNL     1       5.474   4.925  15.964  0.00  0.00    +0.000 C 
ENDBRANCH   8  13
ENDBRANCH   1   8
TORSDOF 3
ENDMDL
MODEL 8
REMARK VINA RESULT:      -6.1      1.314      1.873
REMARK  Name = 
REMARK  3 active torsions:
REMARK  status: ('A' for Active; 'I' for Inactive)
REMARK    1  A    between atoms: C_5  and  C_6
REMARK    2  A    between atoms: C_6  and  C_7
REMARK    3  A    between atoms: C_7  and  C_8
REMARK                            x       y       z     vdW  Elec       q    Type
REMARK                         _______ _______ _______ _____ _____    ______ ____
ROOT
ATOM      1  C   UNL     1       3.240   6.178  17.956  0.00  0.00    +0.000 C 
ENDROOT
BRANCH   1   2
ATOM      2  C   UNL     1       2.397   5.122  18.623  0.00  0.00    +0.000 A 
ATOM      3  C   UNL     1       2.072   5.231  19.980  0.00  0.00    +0.000 A 
ATOM      4  C   UNL     1       1.304   4.246  20.605  0.00  0.00    +0.000 A 
ATOM      5  C   UNL     1       0.858   3.144  19.878  0.00  0.00    +0.000 A 
ATOM      6  C   UNL     1       1.178   3.026  18.527  0.00  0.00    +0.000 A 
ATOM      7  C   UNL     1       1.947   4.008  17.902  0.00  0.00    +0.000 A 
ENDBRANCH   1   2
BRANCH   1   8
ATOM      8  C   UNL     1       4.737   5.887  18.096  0.00  0.00    +0.000 C 
BRANCH   8  13
ATOM      9  O   UNL     1       7.769   7.228  17.977  0.00  0.00    +0.000 OA
ATOM     10  C   UNL     1       7.026   6.696  17.187  0.00  0.00    +0.000 C 
ATOM     11  O   UNL     1       7.336   5.930  16.110  0.00  0.00    +0.000 OA
ATOM     12  C   UNL     1       5.940   5.690  15.797  0.00  0.00    +0.000 C 
ATOM     13  C   UNL     1       5.503   6.569  16.974  0.00  0.00    +0.000 C 
ENDBRANCH   8  13
ENDBRANCH   1   8
TORSDOF 3
ENDMDL
MODEL 9
REMARK VINA RESULT:      -6.1      1.197      1.256
REMARK  Name = 
REMARK  3 active torsions:
REMARK  status: ('A' for Active; 'I' for Inactive)
REMARK    1  A    between atoms: C_5  and  C_6
REMARK    2  A    between atoms: C_6  and  C_7
REMARK    3  A    between atoms: C_7  and  C_8
REMARK                            x       y       z     vdW  Elec       q    Type
REMARK                         _______ _______ _______ _____ _____    ______ ____
ROOT
ATOM      1  C   UNL     1       4.227   4.001  17.512  0.00  0.00    +0.000 C 
ENDROOT
BRANCH   1   2
ATOM      2  C   UNL     1       3.099   3.978  18.510  0.00  0.00    +0.000 A 
ATOM      3  C   UNL     1       1.988   3.151  18.304  0.00  0.00    +0.000 A 
ATOM      4  C   UNL     1       0.934   3.139  19.218  0.00  0.00    +0.000 A 
ATOM      5  C   UNL     1       0.981   3.956  20.347  0.00  0.00    +0.000 A 
ATOM      6  C   UNL     1       2.080   4.785  20.561  0.00  0.00    +0.000 A 
ATOM      7  C   UNL     1       3.134   4.800  19.646  0.00  0.00    +0.000 A 
ENDBRANCH   1   2
BRANCH   1   8
ATOM      8  C   UNL     1       4.457   5.403  16.942  0.00  0.00    +0.000 C 
BRANCH   8  13
ATOM      9  O   UNL     1       7.511   6.669  16.655  0.00  0.00    +0.000 OA
ATOM     10  C   UNL     1       6.927   5.707  16.215  0.00  0.00    +0.000 C 
ATOM     11  O   UNL     1       7.421   4.480  15.907  0.00  0.00    +0.000 OA
ATOM     12  C   UNL     1       6.112   3.979  15.528  0.00  0.00    +0.000 C 
ATOM     13  C   UNL     1       5.481   5.343  15.820  0.00  0.00    +0.000 C 
ENDBRANCH   8  13
ENDBRANCH   1   8
TORSDOF 3
ENDMDL
