MODEL 1
REMARK VINA RESULT:      -8.1      0.000      0.000
REMARK  Name = 
REMARK  8 active torsions:
REMARK  status: ('A' for Active; 'I' for Inactive)
REMARK    1  A    between atoms: C_1  and  C_2
REMARK    2  A    between atoms: C_2  and  C_3
REMARK    3  A    between atoms: C_2  and  N_4
REMARK    4  A    between atoms: C_2  and  C_22
REMARK    5  A    between atoms: C_5  and  C_7
REMARK    6  A    between atoms: C_13  and  C_14
REMARK    7  A    between atoms: C_14  and  O_16
REMARK    8  A    between atoms: C_20  and  O_21
REMARK                            x       y       z     vdW  Elec       q    Type
REMARK                         _______ _______ _______ _____ _____    ______ ____
ROOT
ATOM      1  C   UNL     1       1.288   9.170  19.554  0.00  0.00    +0.000 A 
ATOM      2  C   UNL     1       1.408   8.154  20.481  0.00  0.00    +0.000 A 
ATOM      3  N   UNL     1       2.028   6.976  20.242  0.00  0.00    +0.000 NA
ATOM      4  C   UNL     1       2.571   6.820  19.013  0.00  0.00    +0.000 A 
ATOM      5  N   UNL     1       3.241   5.575  18.754  0.00  0.00    +0.000 N 
ATOM      6  C   UNL     1       3.295   4.493  19.620  0.00  0.00    +0.000 A 
ATOM      7  C   UNL     1       4.031   3.502  18.999  0.00  0.00    +0.000 A 
ATOM      8  C   UNL     1       4.398   4.089  17.766  0.00  0.00    +0.000 A 
ATOM      9  N   UNL     1       3.912   5.321  17.600  0.00  0.00    +0.000 NA
ATOM     10  N   UNL     1       2.513   7.751  18.034  0.00  0.00    +0.000 NA
ATOM     11  C   UNL     1       1.865   8.888  18.340  0.00  0.00    +0.000 A 
ENDROOT
BRANCH   1  13
ATOM     12  N   UNL     1      -0.538  10.765  19.186  0.00  0.00    +0.000 N 
ATOM     13  C   UNL     1       0.557  10.392  19.935  0.00  0.00    +0.000 C 
ATOM     14  O   UNL     1       0.963  11.017  20.910  0.00  0.00    +0.000 OA
ATOM     15  H   UNL     1      -0.725  10.251  18.329  0.00  0.00    +0.000 HD
BRANCH  12  17
ATOM     16  C   UNL     1      -1.712  12.053  20.963  0.00  0.00    +0.000 C 
ATOM     17  C   UNL     1      -1.356  11.967  19.461  0.00  0.00    +0.000 C 
ATOM     18  C   UNL     1      -0.543  13.216  19.051  0.00  0.00    +0.000 C 
BRANCH  17  19
ATOM     19  C   UNL     1      -2.714  11.877  18.722  0.00  0.00    +0.000 A 
ATOM     20  C   UNL     1      -3.927  12.203  19.360  0.00  0.00    +0.000 A 
ATOM     21  C   UNL     1      -5.161  11.976  18.742  0.00  0.00    +0.000 A 
ATOM     22  C   UNL     1      -5.212  11.428  17.466  0.00  0.00    +0.000 A 
ATOM     23  C   UNL     1      -4.029  11.109  16.806  0.00  0.00    +0.000 A 
ATOM     24  C   UNL     1      -2.795  11.325  17.429  0.00  0.00    +0.000 A 
ENDBRANCH  17  19
ENDBRANCH  12  17
ENDBRANCH   1  13
BRANCH   7  25
ATOM     25  C   UNL     1       4.377   2.173  19.459  0.00  0.00    +0.000 C 
ATOM     26  O   UNL     1       4.919   1.965  20.536  0.00  0.00    +0.000 OA
BRANCH  25  27
ATOM     27  O   UNL     1       4.070   1.159  18.609  0.00  0.00    +0.000 OA
ATOM     28  H   UNL     1       3.234   1.287  18.130  0.00  0.00    +0.000 HD
ENDBRANCH  25  27
ENDBRANCH   7  25
BRANCH  11  29
ATOM     29  O   UNL     1       1.826   9.755  17.293  0.00  0.00    +0.000 OA
ATOM     30  H   UNL     1       2.438   9.310  16.672  0.00  0.00    +0.000 HD
ENDBRANCH  11  29
TORSDOF 6
ENDMDL
MODEL 2
REMARK VINA RESULT:      -8.1      2.474      3.041
REMARK  Name = 
REMARK  8 active torsions:
REMARK  status: ('A' for Active; 'I' for Inactive)
REMARK    1  A    between atoms: C_1  and  C_2
REMARK    2  A    between atoms: C_2  and  C_3
REMARK    3  A    between atoms: C_2  and  N_4
REMARK    4  A    between atoms: C_2  and  C_22
REMARK    5  A    between atoms: C_5  and  C_7
REMARK    6  A    between atoms: C_13  and  C_14
REMARK    7  A    between atoms: C_14  and  O_16
REMARK    8  A    between atoms: C_20  and  O_21
REMARK                            x       y       z     vdW  Elec       q    Type
REMARK                         _______ _______ _______ _____ _____    ______ ____
ROOT
ATOM      1  C   UNL     1       1.983   8.256  19.166  0.00  0.00    +0.000 A 
ATOM      2  C   UNL     1       2.544   8.547  17.940  0.00  0.00    +0.000 A 
ATOM      3  N   UNL     1       3.367   7.714  17.263  0.00  0.00    +0.000 NA
ATOM      4  C   UNL     1       3.626   6.521  17.843  0.00  0.00    +0.000 A 
ATOM      5  N   UNL     1       4.493   5.625  17.126  0.00  0.00    +0.000 N 
ATOM      6  C   UNL     1       5.155   5.920  15.943  0.00  0.00    +0.000 A 
ATOM      7  C   UNL     1       5.878   4.798  15.585  0.00  0.00    +0.000 A 
ATOM      8  C   UNL     1       5.570   3.868  16.604  0.00  0.00    +0.000 A 
ATOM      9  N   UNL     1       4.760   4.360  17.543  0.00  0.00    +0.000 NA
ATOM     10  N   UNL     1       3.127   6.135  19.039  0.00  0.00    +0.000 NA
ATOM     11  C   UNL     1       2.331   7.022  19.660  0.00  0.00    +0.000 A 
ENDROOT
BRANCH   1  13
ATOM     12  N   UNL     1       0.396  10.120  19.012  0.00  0.00    +0.000 N 
ATOM     13  C   UNL     1       1.127   9.268  19.812  0.00  0.00    +0.000 C 
ATOM     14  O   UNL     1       1.106   9.296  21.039  0.00  0.00    +0.000 OA
ATOM     15  H   UNL     1       0.569  10.096  18.010  0.00  0.00    +0.000 HD
BRANCH  12  17
ATOM     16  C   UNL     1      -0.822  10.932  21.024  0.00  0.00    +0.000 C 
ATOM     17  C   UNL     1      -0.499  11.176  19.532  0.00  0.00    +0.000 C 
ATOM     18  C   UNL     1       0.211  12.540  19.375  0.00  0.00    +0.000 C 
BRANCH  17  19
ATOM     19  C   UNL     1      -1.865  11.135  18.805  0.00  0.00    +0.000 A 
ATOM     20  C   UNL     1      -2.929  11.979  19.178  0.00  0.00    +0.000 A 
ATOM     21  C   UNL     1      -4.204  11.835  18.623  0.00  0.00    +0.000 A 
ATOM     22  C   UNL     1      -4.446  10.849  17.673  0.00  0.00    +0.000 A 
ATOM     23  C   UNL     1      -3.410  10.009  17.275  0.00  0.00    +0.000 A 
ATOM     24  C   UNL     1      -2.136  10.146  17.839  0.00  0.00    +0.000 A 
ENDBRANCH  17  19
ENDBRANCH  12  17
ENDBRANCH   1  13
BRANCH   7  25
ATOM     25  C   UNL     1       6.748   4.576  14.448  0.00  0.00    +0.000 C 
ATOM     26  O   UNL     1       7.683   5.316  14.176  0.00  0.00    +0.000 OA
BRANCH  25  27
ATOM     27  O   UNL     1       6.454   3.491  13.686  0.00  0.00    +0.000 OA
ATOM     28  H   UNL     1       7.058   2.742  13.819  0.00  0.00    +0.000 HD
ENDBRANCH  25  27
ENDBRANCH   7  25
BRANCH  11  29
ATOM     29  O   UNL     1       1.899   6.569  20.866  0.00  0.00    +0.000 OA
ATOM     30  H   UNL     1       0.954   6.819  20.822  0.00  0.00    +0.000 HD
ENDBRANCH  11  29
TORSDOF 6
ENDMDL
MODEL 3
REMARK VINA RESULT:      -8.1      2.309      3.018
REMARK  Name = 
REMARK  8 active torsions:
REMARK  status: ('A' for Active; 'I' for Inactive)
REMARK    1  A    between atoms: C_1  and  C_2
REMARK    2  A    between atoms: C_2  and  C_3
REMARK    3  A    between atoms: C_2  and  N_4
REMARK    4  A    between atoms: C_2  and  C_22
REMARK    5  A    between atoms: C_5  and  C_7
REMARK    6  A    between atoms: C_13  and  C_14
REMARK    7  A    between atoms: C_14  and  O_16
REMARK    8  A    between atoms: C_20  and  O_21
REMARK                            x       y       z     vdW  Elec       q    Type
REMARK                         _______ _______ _______ _____ _____    ______ ____
ROOT
ATOM      1  C   UNL     1       1.787   8.642  18.988  0.00  0.00    +0.000 A 
ATOM      2  C   UNL     1       2.335   8.812  17.733  0.00  0.00    +0.000 A 
ATOM      3  N   UNL     1       3.193   7.942  17.153  0.00  0.00    +0.000 NA
ATOM      4  C   UNL     1       3.501   6.835  17.866  0.00  0.00    +0.000 A 
ATOM      5  N   UNL     1       4.404   5.899  17.253  0.00  0.00    +0.000 N 
ATOM      6  C   UNL     1       5.053   6.082  16.041  0.00  0.00    +0.000 A 
ATOM      7  C   UNL     1       5.823   4.957  15.811  0.00  0.00    +0.000 A 
ATOM      8  C   UNL     1       5.554   4.140  16.933  0.00  0.00    +0.000 A 
ATOM      9  N   UNL     1       4.724   4.703  17.813  0.00  0.00    +0.000 NA
ATOM     10  N   UNL     1       3.018   6.570  19.101  0.00  0.00    +0.000 NA
ATOM     11  C   UNL     1       2.186   7.490  19.619  0.00  0.00    +0.000 A 
ENDROOT
BRANCH   1  13
ATOM     12  N   UNL     1       0.039  10.327  18.642  0.00  0.00    +0.000 N 
ATOM     13  C   UNL     1       0.889   9.686  19.515  0.00  0.00    +0.000 C 
ATOM     14  O   UNL     1       0.945   9.929  20.718  0.00  0.00    +0.000 OA
ATOM     15  H   UNL     1       0.148  10.140  17.649  0.00  0.00    +0.000 HD
BRANCH  12  17
ATOM     16  C   UNL     1      -1.269  11.264  20.541  0.00  0.00    +0.000 C 
ATOM     17  C   UNL     1      -0.910  11.389  19.043  0.00  0.00    +0.000 C 
ATOM     18  C   UNL     1      -0.245  12.761  18.785  0.00  0.00    +0.000 C 
BRANCH  17  19
ATOM     19  C   UNL     1      -2.251  11.232  18.285  0.00  0.00    +0.000 A 
ATOM     20  C   UNL     1      -2.317  10.621  17.017  0.00  0.00    +0.000 A 
ATOM     21  C   UNL     1      -3.500  10.616  16.271  0.00  0.00    +0.000 A 
ATOM     22  C   UNL     1      -4.648  11.214  16.777  0.00  0.00    +0.000 A 
ATOM     23  C   UNL     1      -4.615  11.814  18.032  0.00  0.00    +0.000 A 
ATOM     24  C   UNL     1      -3.429  11.828  18.775  0.00  0.00    +0.000 A 
ENDBRANCH  17  19
ENDBRANCH  12  17
ENDBRANCH   1  13
BRANCH   7  25
ATOM     25  C   UNL     1       6.701   4.641  14.703  0.00  0.00    +0.000 C 
ATOM     26  O   UNL     1       7.654   5.342  14.394  0.00  0.00    +0.000 OA
BRANCH  25  27
ATOM     27  O   UNL     1       6.393   3.513  14.013  0.00  0.00    +0.000 OA
ATOM     28  H   UNL     1       5.443   3.310  13.995  0.00  0.00    +0.000 HD
ENDBRANCH  25  27
ENDBRANCH   7  25
BRANCH  11  29
ATOM     29  O   UNL     1       1.774   7.162  20.872  0.00  0.00    +0.000 OA
ATOM     30  H   UNL     1       2.225   7.856  21.394  0.00  0.00    +0.000 HD
ENDBRANCH  11  29
TORSDOF 6
ENDMDL
MODEL 4
REMARK VINA RESULT:      -7.9      2.728      3.597
REMARK  Name = 
REMARK  8 active torsions:
REMARK  status: ('A' for Active; 'I' for Inactive)
REMARK    1  A    between atoms: C_1  and  C_2
REMARK    2  A    between atoms: C_2  and  C_3
REMARK    3  A    between atoms: C_2  and  N_4
REMARK    4  A    between atoms: C_2  and  C_22
REMARK    5  A    between atoms: C_5  and  C_7
REMARK    6  A    between atoms: C_13  and  C_14
REMARK    7  A    between atoms: C_14  and  O_16
REMARK    8  A    between atoms: C_20  and  O_21
REMARK                            x       y       z     vdW  Elec       q    Type
REMARK                         _______ _______ _______ _____ _____    ______ ____
ROOT
ATOM      1  C   UNL     1       2.172   7.710  19.369  0.00  0.00    +0.000 A 
ATOM      2  C   UNL     1       2.661   8.143  18.154  0.00  0.00    +0.000 A 
ATOM      3  N   UNL     1       3.474   7.413  17.357  0.00  0.00    +0.000 NA
ATOM      4  C   UNL     1       3.796   6.176  17.797  0.00  0.00    +0.000 A 
ATOM      5  N   UNL     1       4.651   5.389  16.951  0.00  0.00    +0.000 N 
ATOM      6  C   UNL     1       5.244   5.825  15.776  0.00  0.00    +0.000 A 
ATOM      7  C   UNL     1       5.981   4.771  15.269  0.00  0.00    +0.000 A 
ATOM      8  C   UNL     1       5.752   3.732  16.200  0.00  0.00    +0.000 A 
ATOM      9  N   UNL     1       4.976   4.097  17.222  0.00  0.00    +0.000 NA
ATOM     10  N   UNL     1       3.369   5.653  18.969  0.00  0.00    +0.000 NA
ATOM     11  C   UNL     1       2.580   6.444  19.715  0.00  0.00    +0.000 A 
ENDROOT
BRANCH   1  13
ATOM     12  N   UNL     1       1.052   9.873  19.649  0.00  0.00    +0.000 N 
ATOM     13  C   UNL     1       1.320   8.621  20.156  0.00  0.00    +0.000 C 
ATOM     14  O   UNL     1       0.888   8.210  21.229  0.00  0.00    +0.000 OA
ATOM     15  H   UNL     1       1.549  10.164  18.812  0.00  0.00    +0.000 HD
BRANCH  12  17
ATOM     16  C   UNL     1      -0.121  10.422  21.775  0.00  0.00    +0.000 C 
ATOM     17  C   UNL     1       0.214  10.880  20.337  0.00  0.00    +0.000 C 
ATOM     18  C   UNL     1       0.995  12.213  20.389  0.00  0.00    +0.000 C 
BRANCH  17  19
ATOM     19  C   UNL     1      -1.153  11.024  19.624  0.00  0.00    +0.000 A 
ATOM     20  C   UNL     1      -1.453  10.311  18.446  0.00  0.00    +0.000 A 
ATOM     21  C   UNL     1      -2.624  10.556  17.723  0.00  0.00    +0.000 A 
ATOM     22  C   UNL     1      -3.530  11.515  18.164  0.00  0.00    +0.000 A 
ATOM     23  C   UNL     1      -3.266  12.225  19.331  0.00  0.00    +0.000 A 
ATOM     24  C   UNL     1      -2.089  11.987  20.049  0.00  0.00    +0.000 A 
ENDBRANCH  17  19
ENDBRANCH  12  17
ENDBRANCH   1  13
BRANCH   7  25
ATOM     25  C   UNL     1       6.798   4.696  14.075  0.00  0.00    +0.000 C 
ATOM     26  O   UNL     1       6.539   3.950  13.141  0.00  0.00    +0.000 OA
BRANCH  25  27
ATOM     27  O   UNL     1       7.888   5.505  14.059  0.00  0.00    +0.000 OA
ATOM     28  H   UNL     1       7.859   6.218  14.719  0.00  0.00    +0.000 HD
ENDBRANCH  25  27
ENDBRANCH   7  25
BRANCH  11  29
ATOM     29  O   UNL     1       2.223   5.856  20.887  0.00  0.00    +0.000 OA
ATOM     30  H   UNL     1       1.296   5.614  20.689  0.00  0.00    +0.000 HD
ENDBRANCH  11  29
TORSDOF 6
ENDMDL
MODEL 5
REMARK VINA RESULT:      -7.7      1.900      3.608
REMARK  Name = 
REMARK  8 active torsions:
REMARK  status: ('A' for Active; 'I' for Inactive)
REMARK    1  A    between atoms: C_1  and  C_2
REMARK    2  A    between atoms: C_2  and  C_3
REMARK    3  A    between atoms: C_2  and  N_4
REMARK    4  A    between atoms: C_2  and  C_22
REMARK    5  A    between atoms: C_5  and  C_7
REMARK    6  A    between atoms: C_13  and  C_14
REMARK    7  A    between atoms: C_14  and  O_16
REMARK    8  A    between atoms: C_20  and  O_21
REMARK                            x       y       z     vdW  Elec       q    Type
REMARK                         _______ _______ _______ _____ _____    ______ ____
ROOT
ATOM      1  C   UNL     1       1.344   9.255  19.506  0.00  0.00    +0.000 A 
ATOM      2  C   UNL     1       1.455   8.245  20.439  0.00  0.00    +0.000 A 
ATOM      3  N   UNL     1       2.057   7.057  20.205  0.00  0.00    +0.000 NA
ATOM      4  C   UNL     1       2.589   6.883  18.974  0.00  0.00    +0.000 A 
ATOM      5  N   UNL     1       3.240   5.626  18.721  0.00  0.00    +0.000 N 
ATOM      6  C   UNL     1       3.284   4.551  19.595  0.00  0.00    +0.000 A 
ATOM      7  C   UNL     1       4.002   3.544  18.976  0.00  0.00    +0.000 A 
ATOM      8  C   UNL     1       4.370   4.117  17.737  0.00  0.00    +0.000 A 
ATOM      9  N   UNL     1       3.901   5.354  17.565  0.00  0.00    +0.000 NA
ATOM     10  N   UNL     1       2.539   7.808  17.989  0.00  0.00    +0.000 NA
ATOM     11  C   UNL     1       1.910   8.956  18.290  0.00  0.00    +0.000 A 
ENDROOT
BRANCH   1  13
ATOM     12  N   UNL     1       1.103  11.694  19.401  0.00  0.00    +0.000 N 
ATOM     13  C   UNL     1       0.633  10.491  19.881  0.00  0.00    +0.000 C 
ATOM     14  O   UNL     1      -0.352  10.382  20.606  0.00  0.00    +0.000 OA
ATOM     15  H   UNL     1       1.991  11.693  18.906  0.00  0.00    +0.000 HD
BRANCH  12  17
ATOM     16  C   UNL     1      -0.959  13.065  19.144  0.00  0.00    +0.000 C 
ATOM     17  C   UNL     1       0.482  13.002  19.702  0.00  0.00    +0.000 C 
ATOM     18  C   UNL     1       0.449  13.187  21.236  0.00  0.00    +0.000 C 
BRANCH  17  19
ATOM     19  C   UNL     1       1.249  14.142  18.987  0.00  0.00    +0.000 A 
ATOM     20  C   UNL     1       2.509  13.929  18.394  0.00  0.00    +0.000 A 
ATOM     21  C   UNL     1       3.265  14.989  17.885  0.00  0.00    +0.000 A 
ATOM     22  C   UNL     1       2.775  16.289  17.946  0.00  0.00    +0.000 A 
ATOM     23  C   UNL     1       1.527  16.527  18.513  0.00  0.00    +0.000 A 
ATOM     24  C   UNL     1       0.775  15.468  19.033  0.00  0.00    +0.000 A 
ENDBRANCH  17  19
ENDBRANCH  12  17
ENDBRANCH   1  13
BRANCH   7  25
ATOM     25  C   UNL     1       4.331   2.214  19.444  0.00  0.00    +0.000 C 
ATOM     26  O   UNL     1       4.880   2.007  20.518  0.00  0.00    +0.000 OA
BRANCH  25  27
ATOM     27  O   UNL     1       4.000   1.198  18.606  0.00  0.00    +0.000 OA
ATOM     28  H   UNL     1       4.332   0.330  18.889  0.00  0.00    +0.000 HD
ENDBRANCH  25  27
ENDBRANCH   7  25
BRANCH  11  29
ATOM     29  O   UNL     1       1.877   9.815  17.237  0.00  0.00    +0.000 OA
ATOM     30  H   UNL     1       2.390   9.307  16.578  0.00  0.00    +0.000 HD
ENDBRANCH  11  29
TORSDOF 6
ENDMDL
MODEL 6
REMARK VINA RESULT:      -7.7      0.756      1.016
REMARK  Name = 
REMARK  8 active torsions:
REMARK  status: ('A' for Active; 'I' for Inactive)
REMARK    1  A    between atoms: C_1  and  C_2
REMARK    2  A    between atoms: C_2  and  C_3
REMARK    3  A    between atoms: C_2  and  N_4
REMARK    4  A    between atoms: C_2  and  C_22
REMARK    5  A    between atoms: C_5  and  C_7
REMARK    6  A    between atoms: C_13  and  C_14
REMARK    7  A    between atoms: C_14  and  O_16
REMARK    8  A    between atoms: C_20  and  O_21
REMARK                            x       y       z     vdW  Elec       q    Type
REMARK                         _______ _______ _______ _____ _____    ______ ____
ROOT
ATOM      1  C   UNL     1       1.245   9.120  19.658  0.00  0.00    +0.000 A 
ATOM      2  C   UNL     1       1.379   8.091  20.568  0.00  0.00    +0.000 A 
ATOM      3  N   UNL     1       2.012   6.924  20.309  0.00  0.00    +0.000 NA
ATOM      4  C   UNL     1       2.552   6.792  19.077  0.00  0.00    +0.000 A 
ATOM      5  N   UNL     1       3.235   5.559  18.797  0.00  0.00    +0.000 N 
ATOM      6  C   UNL     1       3.304   4.465  19.646  0.00  0.00    +0.000 A 
ATOM      7  C   UNL     1       4.049   3.492  19.007  0.00  0.00    +0.000 A 
ATOM      8  C   UNL     1       4.406   4.102  17.782  0.00  0.00    +0.000 A 
ATOM      9  N   UNL     1       3.906   5.330  17.637  0.00  0.00    +0.000 NA
ATOM     10  N   UNL     1       2.481   7.738  18.113  0.00  0.00    +0.000 NA
ATOM     11  C   UNL     1       1.822   8.863  18.438  0.00  0.00    +0.000 A 
ENDROOT
BRANCH   1  13
ATOM     12  N   UNL     1       0.573  11.443  19.254  0.00  0.00    +0.000 N 
ATOM     13  C   UNL     1       0.502  10.328  20.060  0.00  0.00    +0.000 C 
ATOM     14  O   UNL     1      -0.151  10.275  21.098  0.00  0.00    +0.000 OA
ATOM     15  H   UNL     1       1.231  11.429  18.480  0.00  0.00    +0.000 HD
BRANCH  12  17
ATOM     16  C   UNL     1       0.048  13.108  21.028  0.00  0.00    +0.000 C 
ATOM     17  C   UNL     1      -0.124  12.716  19.543  0.00  0.00    +0.000 C 
ATOM     18  C   UNL     1       0.481  13.819  18.645  0.00  0.00    +0.000 C 
BRANCH  17  19
ATOM     19  C   UNL     1      -1.650  12.556  19.335  0.00  0.00    +0.000 A 
ATOM     20  C   UNL     1      -2.578  12.972  20.309  0.00  0.00    +0.000 A 
ATOM     21  C   UNL     1      -3.942  12.689  20.186  0.00  0.00    +0.000 A 
ATOM     22  C   UNL     1      -4.414  11.992  19.080  0.00  0.00    +0.000 A 
ATOM     23  C   UNL     1      -3.522  11.581  18.094  0.00  0.00    +0.000 A 
ATOM     24  C   UNL     1      -2.155  11.854  18.223  0.00  0.00    +0.000 A 
ENDBRANCH  17  19
ENDBRANCH  12  17
ENDBRANCH   1  13
BRANCH   7  25
ATOM     25  C   UNL     1       4.410   2.159  19.445  0.00  0.00    +0.000 C 
ATOM     26  O   UNL     1       4.999   1.945  20.496  0.00  0.00    +0.000 OA
BRANCH  25  27
ATOM     27  O   UNL     1       4.062   1.151  18.605  0.00  0.00    +0.000 OA
ATOM     28  H   UNL     1       4.256   1.332  17.671  0.00  0.00    +0.000 HD
ENDBRANCH  25  27
ENDBRANCH   7  25
BRANCH  11  29
ATOM     29  O   UNL     1       1.770   9.745  17.405  0.00  0.00    +0.000 OA
ATOM     30  H   UNL     1       2.072  10.561  17.854  0.00  0.00    +0.000 HD
ENDBRANCH  11  29
TORSDOF 6
ENDMDL
MODEL 7
REMARK VINA RESULT:      -7.7      2.696      4.285
REMARK  Name = 
REMARK  8 active torsions:
REMARK  status: ('A' for Active; 'I' for Inactive)
REMARK    1  A    between atoms: C_1  and  C_2
REMARK    2  A    between atoms: C_2  and  C_3
REMARK    3  A    between atoms: C_2  and  N_4
REMARK    4  A    between atoms: C_2  and  C_22
REMARK    5  A    between atoms: C_5  and  C_7
REMARK    6  A    between atoms: C_13  and  C_14
REMARK    7  A    between atoms: C_14  and  O_16
REMARK    8  A    between atoms: C_20  and  O_21
REMARK                            x       y       z     vdW  Elec       q    Type
REMARK                         _______ _______ _______ _____ _____    ______ ____
ROOT
ATOM      1  C   UNL     1       1.676   8.776  19.048  0.00  0.00    +0.000 A 
ATOM      2  C   UNL     1       2.246   8.914  17.799  0.00  0.00    +0.000 A 
ATOM      3  N   UNL     1       3.110   8.027  17.255  0.00  0.00    +0.000 NA
ATOM      4  C   UNL     1       3.402   6.936  18.000  0.00  0.00    +0.000 A 
ATOM      5  N   UNL     1       4.311   5.983  17.425  0.00  0.00    +0.000 N 
ATOM      6  C   UNL     1       4.982   6.134  16.220  0.00  0.00    +0.000 A 
ATOM      7  C   UNL     1       5.751   5.001  16.030  0.00  0.00    +0.000 A 
ATOM      8  C   UNL     1       5.460   4.212  17.167  0.00  0.00    +0.000 A 
ATOM      9  N   UNL     1       4.617   4.800  18.018  0.00  0.00    +0.000 NA
ATOM     10  N   UNL     1       2.898   6.703  19.233  0.00  0.00    +0.000 NA
ATOM     11  C   UNL     1       2.060   7.637  19.714  0.00  0.00    +0.000 A 
ENDROOT
BRANCH   1  13
ATOM     12  N   UNL     1       1.067  11.145  19.225  0.00  0.00    +0.000 N 
ATOM     13  C   UNL     1       0.774   9.835  19.535  0.00  0.00    +0.000 C 
ATOM     14  O   UNL     1      -0.203   9.491  20.195  0.00  0.00    +0.000 OA
ATOM     15  H   UNL     1       1.958  11.339  18.776  0.00  0.00    +0.000 HD
BRANCH  12  17
ATOM     16  C   UNL     1      -1.173  12.214  19.042  0.00  0.00    +0.000 C 
ATOM     17  C   UNL     1       0.245  12.298  19.651  0.00  0.00    +0.000 C 
ATOM     18  C   UNL     1       0.144  12.284  21.194  0.00  0.00    +0.000 C 
BRANCH  17  19
ATOM     19  C   UNL     1       0.845  13.620  19.112  0.00  0.00    +0.000 A 
ATOM     20  C   UNL     1       2.186  13.705  18.688  0.00  0.00    +0.000 A 
ATOM     21  C   UNL     1       2.767  14.931  18.346  0.00  0.00    +0.000 A 
ATOM     22  C   UNL     1       2.018  16.100  18.409  0.00  0.00    +0.000 A 
ATOM     23  C   UNL     1       0.687  16.044  18.811  0.00  0.00    +0.000 A 
ATOM     24  C   UNL     1       0.109  14.819  19.164  0.00  0.00    +0.000 A 
ENDBRANCH  17  19
ENDBRANCH  12  17
ENDBRANCH   1  13
BRANCH   7  25
ATOM     25  C   UNL     1       6.646   4.656  14.945  0.00  0.00    +0.000 C 
ATOM     26  O   UNL     1       7.612   5.342  14.641  0.00  0.00    +0.000 OA
BRANCH  25  27
ATOM     27  O   UNL     1       6.340   3.518  14.271  0.00  0.00    +0.000 OA
ATOM     28  H   UNL     1       5.587   3.611  13.665  0.00  0.00    +0.000 HD
ENDBRANCH  25  27
ENDBRANCH   7  25
BRANCH  11  29
ATOM     29  O   UNL     1       1.626   7.341  20.967  0.00  0.00    +0.000 OA
ATOM     30  H   UNL     1       0.658   7.338  20.823  0.00  0.00    +0.000 HD
ENDBRANCH  11  29
TORSDOF 6
ENDMDL
MODEL 8
REMARK VINA RESULT:      -7.6      3.001      9.547
REMARK  Name = 
REMARK  8 active torsions:
REMARK  status: ('A' for Active; 'I' for Inactive)
REMARK    1  A    between atoms: C_1  and  C_2
REMARK    2  A    between atoms: C_2  and  C_3
REMARK    3  A    between atoms: C_2  and  N_4
REMARK    4  A    between atoms: C_2  and  C_22
REMARK    5  A    between atoms: C_5  and  C_7
REMARK    6  A    between atoms: C_13  and  C_14
REMARK    7  A    between atoms: C_14  and  O_16
REMARK    8  A    between atoms: C_20  and  O_21
REMARK                            x       y       z     vdW  Elec       q    Type
REMARK                         _______ _______ _______ _____ _____    ______ ____
ROOT
ATOM      1  C   UNL     1       2.245   7.619  18.923  0.00  0.00    +0.000 A 
ATOM      2  C   UNL     1       1.968   8.745  18.175  0.00  0.00    +0.000 A 
ATOM      3  N   UNL     1       1.357   9.850  18.660  0.00  0.00    +0.000 NA
ATOM      4  C   UNL     1       1.024   9.827  19.970  0.00  0.00    +0.000 A 
ATOM      5  N   UNL     1       0.383  11.001  20.497  0.00  0.00    +0.000 N 
ATOM      6  C   UNL     1      -0.003  12.109  19.757  0.00  0.00    +0.000 A 
ATOM      7  C   UNL     1      -0.577  13.012  20.633  0.00  0.00    +0.000 A 
ATOM      8  C   UNL     1      -0.471  12.366  21.886  0.00  0.00    +0.000 A 
ATOM      9  N   UNL     1       0.081  11.154  21.813  0.00  0.00    +0.000 NA
ATOM     10  N   UNL     1       1.252   8.778  20.793  0.00  0.00    +0.000 NA
ATOM     11  C   UNL     1       1.846   7.710  20.235  0.00  0.00    +0.000 A 
ENDROOT
BRANCH   1  13
ATOM     12  N   UNL     1       2.820   5.236  18.871  0.00  0.00    +0.000 N 
ATOM     13  C   UNL     1       2.887   6.469  18.261  0.00  0.00    +0.000 C 
ATOM     14  O   UNL     1       3.450   6.672  17.189  0.00  0.00    +0.000 OA
ATOM     15  H   UNL     1       2.435   5.191  19.811  0.00  0.00    +0.000 HD
BRANCH  12  17
ATOM     16  C   UNL     1       3.659   2.959  19.427  0.00  0.00    +0.000 C 
ATOM     17  C   UNL     1       3.420   4.005  18.313  0.00  0.00    +0.000 C 
ATOM     18  C   UNL     1       2.452   3.422  17.259  0.00  0.00    +0.000 C 
BRANCH  17  19
ATOM     19  C   UNL     1       4.821   4.304  17.726  0.00  0.00    +0.000 A 
ATOM     20  C   UNL     1       5.124   4.060  16.372  0.00  0.00    +0.000 A 
ATOM     21  C   UNL     1       6.428   4.187  15.881  0.00  0.00    +0.000 A 
ATOM     22  C   UNL     1       7.459   4.572  16.730  0.00  0.00    +0.000 A 
ATOM     23  C   UNL     1       7.187   4.833  18.069  0.00  0.00    +0.000 A 
ATOM     24  C   UNL     1       5.885   4.695  18.563  0.00  0.00    +0.000 A 
ENDBRANCH  17  19
ENDBRANCH  12  17
ENDBRANCH   1  13
BRANCH   7  25
ATOM     25  C   UNL     1      -1.153  14.316  20.379  0.00  0.00    +0.000 C 
ATOM     26  O   UNL     1      -1.702  14.978  21.250  0.00  0.00    +0.000 OA
BRANCH  25  27
ATOM     27  O   UNL     1      -1.057  14.762  19.100  0.00  0.00    +0.000 OA
ATOM     28  H   UNL     1      -0.218  15.211  18.902  0.00  0.00    +0.000 HD
ENDBRANCH  25  27
ENDBRANCH   7  25
BRANCH  11  29
ATOM     29  O   UNL     1       2.009   6.691  21.120  0.00  0.00    +0.000 OA
ATOM     30  H   UNL     1       1.856   5.922  20.536  0.00  0.00    +0.000 HD
ENDBRANCH  11  29
TORSDOF 6
ENDMDL
MODEL 9
REMARK VINA RESULT:      -7.6      2.394      3.266
REMARK  Name = 
REMARK  8 active torsions:
REMARK  status: ('A' for Active; 'I' for Inactive)
REMARK    1  A    between atoms: C_1  and  C_2
REMARK    2  A    between atoms: C_2  and  C_3
REMARK    3  A    between atoms: C_2  and  N_4
REMARK    4  A    between atoms: C_2  and  C_22
REMARK    5  A    between atoms: C_5  and  C_7
REMARK    6  A    between atoms: C_13  and  C_14
REMARK    7  A    between atoms: C_14  and  O_16
REMARK    8  A    between atoms: C_20  and  O_21
REMARK                            x       y       z     vdW  Elec       q    Type
REMARK                         _______ _______ _______ _____ _____    ______ ____
ROOT
ATOM      1  C   UNL     1       1.196   9.290  19.060  0.00  0.00    +0.000 A 
ATOM      2  C   UNL     1       1.889   9.145  17.876  0.00  0.00    +0.000 A 
ATOM      3  N   UNL     1       2.775   8.153  17.630  0.00  0.00    +0.000 NA
ATOM      4  C   UNL     1       2.959   7.250  18.619  0.00  0.00    +0.000 A 
ATOM      5  N   UNL     1       3.891   6.186  18.361  0.00  0.00    +0.000 N 
ATOM      6  C   UNL     1       4.680   6.064  17.228  0.00  0.00    +0.000 A 
ATOM      7  C   UNL     1       5.429   4.910  17.369  0.00  0.00    +0.000 A 
ATOM      8  C   UNL     1       5.004   4.392  18.613  0.00  0.00    +0.000 A 
ATOM      9  N   UNL     1       4.100   5.159  19.226  0.00  0.00    +0.000 NA
ATOM     10  N   UNL     1       2.329   7.297  19.815  0.00  0.00    +0.000 NA
ATOM     11  C   UNL     1       1.477   8.321  19.993  0.00  0.00    +0.000 A 
ENDROOT
BRANCH   1  13
ATOM     12  N   UNL     1       0.777  11.606  19.747  0.00  0.00    +0.000 N 
ATOM     13  C   UNL     1       0.283  10.438  19.211  0.00  0.00    +0.000 C 
ATOM     14  O   UNL     1      -0.879  10.292  18.843  0.00  0.00    +0.000 OA
ATOM     15  H   UNL     1       1.719  11.593  20.129  0.00  0.00    +0.000 HD
BRANCH  12  17
ATOM     16  C   UNL     1       0.824  13.951  20.582  0.00  0.00    +0.000 C 
ATOM     17  C   UNL     1      -0.032  12.828  19.951  0.00  0.00    +0.000 C 
ATOM     18  C   UNL     1      -0.565  13.296  18.577  0.00  0.00    +0.000 C 
BRANCH  17  19
ATOM     19  C   UNL     1      -1.170  12.560  20.966  0.00  0.00    +0.000 A 
ATOM     20  C   UNL     1      -2.494  12.974  20.720  0.00  0.00    +0.000 A 
ATOM     21  C   UNL     1      -3.486  12.868  21.700  0.00  0.00    +0.000 A 
ATOM     22  C   UNL     1      -3.181  12.335  22.947  0.00  0.00    +0.000 A 
ATOM     23  C   UNL     1      -1.885  11.905  23.213  0.00  0.00    +0.000 A 
ATOM     24  C   UNL     1      -0.889  12.022  22.237  0.00  0.00    +0.000 A 
ENDBRANCH  17  19
ENDBRANCH  12  17
ENDBRANCH   1  13
BRANCH   7  25
ATOM     25  C   UNL     1       6.416   4.328  16.482  0.00  0.00    +0.000 C 
ATOM     26  O   UNL     1       7.533   4.804  16.332  0.00  0.00    +0.000 OA
BRANCH  25  27
ATOM     27  O   UNL     1       6.020   3.216  15.813  0.00  0.00    +0.000 OA
ATOM     28  H   UNL     1       5.867   2.445  16.385  0.00  0.00    +0.000 HD
ENDBRANCH  25  27
ENDBRANCH   7  25
BRANCH  11  29
ATOM     29  O   UNL     1       0.912   8.310  21.229  0.00  0.00    +0.000 OA
ATOM     30  H   UNL     1       1.487   7.660  21.681  0.00  0.00    +0.000 HD
ENDBRANCH  11  29
TORSDOF 6
ENDMDL
