MODEL 1
REMARK VINA RESULT:      -7.4      0.000      0.000
REMARK  Name = 
REMARK  7 active torsions:
REMARK  status: ('A' for Active; 'I' for Inactive)
REMARK    1  A    between atoms: C_1  and  O_2
REMARK    2  A    between atoms: O_2  and  C_3
REMARK    3  A    between atoms: C_8  and  N_9
REMARK    4  A    between atoms: C_10  and  C_12
REMARK    5  A    between atoms: C_15  and  N_16
REMARK    6  A    between atoms: C_17  and  C_19
REMARK    7  A    between atoms: C_21  and  C_22
REMARK                            x       y       z     vdW  Elec       q    Type
REMARK                         _______ _______ _______ _____ _____    ______ ____
ROOT
ATOM      1  C   UNL     1       2.286   7.497  18.736  0.00  0.00    +0.000 A 
ATOM      2  C   UNL     1       1.944   7.517  20.085  0.00  0.00    +0.000 A 
ATOM      3  C   UNL     1       1.195   8.580  20.596  0.00  0.00    +0.000 A 
ATOM      4  C   UNL     1       0.783   9.646  19.790  0.00  0.00    +0.000 A 
ATOM      5  C   UNL     1       1.115   9.617  18.428  0.00  0.00    +0.000 A 
ATOM      6  C   UNL     1       1.873   8.553  17.910  0.00  0.00    +0.000 A 
ENDROOT
BRANCH   1   8
ATOM      7  N   UNL     1       4.381   6.863  17.642  0.00  0.00    +0.000 N 
ATOM      8  C   UNL     1       3.180   6.441  18.191  0.00  0.00    +0.000 C 
ATOM      9  O   UNL     1       2.797   5.277  18.289  0.00  0.00    +0.000 OA
ATOM     10  H   UNL     1       4.717   7.799  17.847  0.00  0.00    +0.000 HD
BRANCH   7  16
ATOM     11  C   UNL     1       6.337   5.400  17.556  0.00  0.00    +0.000 A 
ATOM     12  C   UNL     1       7.271   4.663  16.813  0.00  0.00    +0.000 A 
ATOM     13  C   UNL     1       7.138   4.534  15.433  0.00  0.00    +0.000 A 
ATOM     14  C   UNL     1       6.085   5.161  14.779  0.00  0.00    +0.000 A 
ATOM     15  C   UNL     1       5.173   5.931  15.503  0.00  0.00    +0.000 A 
ATOM     16  C   UNL     1       5.282   6.061  16.893  0.00  0.00    +0.000 A 
BRANCH  11  18
ATOM     17  C   UNL     1       7.699   5.755  19.453  0.00  0.00    +0.000 C 
ATOM     18  O   UNL     1       6.390   5.510  18.929  0.00  0.00    +0.000 OA
ENDBRANCH  11  18
ENDBRANCH   7  16
ENDBRANCH   1   8
BRANCH   4  19
ATOM     19  N   UNL     1       0.079  10.769  20.292  0.00  0.00    +0.000 N 
ATOM     20  C   UNL     1       0.655  11.874  20.893  0.00  0.00    +0.000 C 
ATOM     21  O   UNL     1       1.849  12.039  21.112  0.00  0.00    +0.000 OA
ATOM     22  H   UNL     1      -0.925  10.775  20.169  0.00  0.00    +0.000 HD
BRANCH  20  23
ATOM     23  C   UNL     1      -0.289  12.963  21.299  0.00  0.00    +0.000 C 
ATOM     24  C   UNL     1      -1.765  12.624  21.398  0.00  0.00    +0.000 C 
ATOM     25  C   UNL     1      -0.971  12.859  22.652  0.00  0.00    +0.000 C 
ATOM     26  C   UNL     1      -1.252  14.052  23.495  0.00  0.00    +0.000 C 
ENDBRANCH  20  23
ENDBRANCH   4  19
TORSDOF 5
ENDMDL
MODEL 2
REMARK VINA RESULT:      -7.4      0.730      1.282
REMARK  Name = 
REMARK  7 active torsions:
REMARK  status: ('A' for Active; 'I' for Inactive)
REMARK    1  A    between atoms: C_1  and  O_2
REMARK    2  A    between atoms: O_2  and  C_3
REMARK    3  A    between atoms: C_8  and  N_9
REMARK    4  A    between atoms: C_10  and  C_12
REMARK    5  A    between atoms: C_15  and  N_16
REMARK    6  A    between atoms: C_17  and  C_19
REMARK    7  A    between atoms: C_21  and  C_22
REMARK                            x       y       z     vdW  Elec       q    Type
REMARK                         _______ _______ _______ _____ _____    ______ ____
ROOT
ATOM      1  C   UNL     1       2.231   7.835  18.670  0.00  0.00    +0.000 A 
ATOM      2  C   UNL     1       1.786   8.899  17.891  0.00  0.00    +0.000 A 
ATOM      3  C   UNL     1       1.005   9.904  18.467  0.00  0.00    +0.000 A 
ATOM      4  C   UNL     1       0.640   9.869  19.818  0.00  0.00    +0.000 A 
ATOM      5  C   UNL     1       1.102   8.805  20.604  0.00  0.00    +0.000 A 
ATOM      6  C   UNL     1       1.883   7.789  20.027  0.00  0.00    +0.000 A 
ENDROOT
BRANCH   1   8
ATOM      7  N   UNL     1       4.289   6.914  17.718  0.00  0.00    +0.000 N 
ATOM      8  C   UNL     1       2.962   6.694  18.057  0.00  0.00    +0.000 C 
ATOM      9  O   UNL     1       2.343   5.641  17.918  0.00  0.00    +0.000 OA
ATOM     10  H   UNL     1       4.774   7.714  18.111  0.00  0.00    +0.000 HD
BRANCH   7  16
ATOM     11  C   UNL     1       5.881   5.064  17.599  0.00  0.00    +0.000 A 
ATOM     12  C   UNL     1       6.744   4.249  16.851  0.00  0.00    +0.000 A 
ATOM     13  C   UNL     1       6.803   4.364  15.464  0.00  0.00    +0.000 A 
ATOM     14  C   UNL     1       6.021   5.311  14.815  0.00  0.00    +0.000 A 
ATOM     15  C   UNL     1       5.190   6.154  15.553  0.00  0.00    +0.000 A 
ATOM     16  C   UNL     1       5.106   6.045  16.947  0.00  0.00    +0.000 A 
BRANCH  11  18
ATOM     17  C   UNL     1       4.969   3.824  19.390  0.00  0.00    +0.000 C 
ATOM     18  O   UNL     1       5.742   4.951  18.966  0.00  0.00    +0.000 OA
ENDBRANCH  11  18
ENDBRANCH   7  16
ENDBRANCH   1   8
BRANCH   4  19
ATOM     19  N   UNL     1      -0.203  10.839  20.416  0.00  0.00    +0.000 N 
ATOM     20  C   UNL     1       0.224  11.998  21.042  0.00  0.00    +0.000 C 
ATOM     21  O   UNL     1       1.387  12.347  21.203  0.00  0.00    +0.000 OA
ATOM     22  H   UNL     1      -1.200  10.686  20.348  0.00  0.00    +0.000 HD
BRANCH  20  23
ATOM     23  C   UNL     1      -0.856  12.899  21.555  0.00  0.00    +0.000 C 
ATOM     24  C   UNL     1      -2.123  12.257  22.088  0.00  0.00    +0.000 C 
ATOM     25  C   UNL     1      -1.154  12.892  23.044  0.00  0.00    +0.000 C 
ATOM     26  C   UNL     1      -1.540  14.123  23.784  0.00  0.00    +0.000 C 
ENDBRANCH  20  23
ENDBRANCH   4  19
TORSDOF 5
ENDMDL
MODEL 3
REMARK VINA RESULT:      -7.3      1.207      1.261
REMARK  Name = 
REMARK  7 active torsions:
REMARK  status: ('A' for Active; 'I' for Inactive)
REMARK    1  A    between atoms: C_1  and  O_2
REMARK    2  A    between atoms: O_2  and  C_3
REMARK    3  A    between atoms: C_8  and  N_9
REMARK    4  A    between atoms: C_10  and  C_12
REMARK    5  A    between atoms: C_15  and  N_16
REMARK    6  A    between atoms: C_17  and  C_19
REMARK    7  A    between atoms: C_21  and  C_22
REMARK                            x       y       z     vdW  Elec       q    Type
REMARK                         _______ _______ _______ _____ _____    ______ ____
ROOT
ATOM      1  C   UNL     1       2.383   7.219  18.913  0.00  0.00    +0.000 A 
ATOM      2  C   UNL     1       2.101   7.073  20.268  0.00  0.00    +0.000 A 
ATOM      3  C   UNL     1       1.447   8.099  20.955  0.00  0.00    +0.000 A 
ATOM      4  C   UNL     1       1.074   9.290  20.321  0.00  0.00    +0.000 A 
ATOM      5  C   UNL     1       1.346   9.427  18.953  0.00  0.00    +0.000 A 
ATOM      6  C   UNL     1       2.008   8.401  18.258  0.00  0.00    +0.000 A 
ENDROOT
BRANCH   1   8
ATOM      7  N   UNL     1       4.466   6.556  17.811  0.00  0.00    +0.000 N 
ATOM      8  C   UNL     1       3.181   6.194  18.186  0.00  0.00    +0.000 C 
ATOM      9  O   UNL     1       2.649   5.103  17.995  0.00  0.00    +0.000 OA
ATOM     10  H   UNL     1       4.898   7.367  18.243  0.00  0.00    +0.000 HD
BRANCH   7  16
ATOM     11  C   UNL     1       6.367   5.054  17.492  0.00  0.00    +0.000 A 
ATOM     12  C   UNL     1       7.255   4.382  16.639  0.00  0.00    +0.000 A 
ATOM     13  C   UNL     1       7.081   4.424  15.257  0.00  0.00    +0.000 A 
ATOM     14  C   UNL     1       6.033   5.157  14.715  0.00  0.00    +0.000 A 
ATOM     15  C   UNL     1       5.167   5.862  15.553  0.00  0.00    +0.000 A 
ATOM     16  C   UNL     1       5.318   5.822  16.945  0.00  0.00    +0.000 A 
BRANCH  11  18
ATOM     17  C   UNL     1       7.637   5.608  19.405  0.00  0.00    +0.000 C 
ATOM     18  O   UNL     1       6.461   4.997  18.866  0.00  0.00    +0.000 OA
ENDBRANCH  11  18
ENDBRANCH   7  16
ENDBRANCH   1   8
BRANCH   4  19
ATOM     19  N   UNL     1       0.468  10.373  21.005  0.00  0.00    +0.000 N 
ATOM     20  C   UNL     1      -0.353  10.264  22.114  0.00  0.00    +0.000 C 
ATOM     21  O   UNL     1      -0.707   9.222  22.653  0.00  0.00    +0.000 OA
ATOM     22  H   UNL     1       0.683  11.304  20.673  0.00  0.00    +0.000 HD
BRANCH  20  23
ATOM     23  C   UNL     1      -0.835  11.555  22.699  0.00  0.00    +0.000 C 
ATOM     24  C   UNL     1      -1.223  12.668  21.742  0.00  0.00    +0.000 C 
ATOM     25  C   UNL     1      -2.293  11.936  22.503  0.00  0.00    +0.000 C 
ATOM     26  C   UNL     1      -3.078  12.645  23.548  0.00  0.00    +0.000 C 
ENDBRANCH  20  23
ENDBRANCH   4  19
TORSDOF 5
ENDMDL
MODEL 4
REMARK VINA RESULT:      -7.2      1.005      1.016
REMARK  Name = 
REMARK  7 active torsions:
REMARK  status: ('A' for Active; 'I' for Inactive)
REMARK    1  A    between atoms: C_1  and  O_2
REMARK    2  A    between atoms: O_2  and  C_3
REMARK    3  A    between atoms: C_8  and  N_9
REMARK    4  A    between atoms: C_10  and  C_12
REMARK    5  A    between atoms: C_15  and  N_16
REMARK    6  A    between atoms: C_17  and  C_19
REMARK    7  A    between atoms: C_21  and  C_22
REMARK                            x       y       z     vdW  Elec       q    Type
REMARK                         _______ _______ _______ _____ _____    ______ ____
ROOT
ATOM      1  C   UNL     1       2.326   7.623  18.628  0.00  0.00    +0.000 A 
ATOM      2  C   UNL     1       1.930   7.585  19.962  0.00  0.00    +0.000 A 
ATOM      3  C   UNL     1       1.268   8.681  20.521  0.00  0.00    +0.000 A 
ATOM      4  C   UNL     1       0.997   9.836  19.779  0.00  0.00    +0.000 A 
ATOM      5  C   UNL     1       1.383   9.865  18.432  0.00  0.00    +0.000 A 
ATOM      6  C   UNL     1       2.055   8.768  17.866  0.00  0.00    +0.000 A 
ENDROOT
BRANCH   1   8
ATOM      7  N   UNL     1       4.422   6.841  17.635  0.00  0.00    +0.000 N 
ATOM      8  C   UNL     1       3.135   6.521  18.041  0.00  0.00    +0.000 C 
ATOM      9  O   UNL     1       2.611   5.411  17.982  0.00  0.00    +0.000 OA
ATOM     10  H   UNL     1       4.846   7.702  17.966  0.00  0.00    +0.000 HD
BRANCH   7  16
ATOM     11  C   UNL     1       6.309   5.293  17.527  0.00  0.00    +0.000 A 
ATOM     12  C   UNL     1       7.210   4.525  16.773  0.00  0.00    +0.000 A 
ATOM     13  C   UNL     1       7.070   4.421  15.391  0.00  0.00    +0.000 A 
ATOM     14  C   UNL     1       6.046   5.104  14.747  0.00  0.00    +0.000 A 
ATOM     15  C   UNL     1       5.170   5.903  15.482  0.00  0.00    +0.000 A 
ATOM     16  C   UNL     1       5.285   6.009  16.874  0.00  0.00    +0.000 A 
BRANCH  11  18
ATOM     17  C   UNL     1       7.649   5.760  19.415  0.00  0.00    +0.000 C 
ATOM     18  O   UNL     1       6.368   5.381  18.901  0.00  0.00    +0.000 OA
ENDBRANCH  11  18
ENDBRANCH   7  16
ENDBRANCH   1   8
BRANCH   4  19
ATOM     19  N   UNL     1       0.385  10.987  20.335  0.00  0.00    +0.000 N 
ATOM     20  C   UNL     1      -0.911  11.405  20.087  0.00  0.00    +0.000 C 
ATOM     21  O   UNL     1      -1.712  10.870  19.331  0.00  0.00    +0.000 OA
ATOM     22  H   UNL     1       0.932  11.526  20.993  0.00  0.00    +0.000 HD
BRANCH  20  23
ATOM     23  C   UNL     1      -1.356  12.626  20.831  0.00  0.00    +0.000 C 
ATOM     24  C   UNL     1      -2.780  12.659  21.354  0.00  0.00    +0.000 C 
ATOM     25  C   UNL     1      -1.638  12.501  22.318  0.00  0.00    +0.000 C 
ATOM     26  C   UNL     1      -1.324  13.589  23.282  0.00  0.00    +0.000 C 
ENDBRANCH  20  23
ENDBRANCH   4  19
TORSDOF 5
ENDMDL
MODEL 5
REMARK VINA RESULT:      -7.1      1.569      1.655
REMARK  Name = 
REMARK  7 active torsions:
REMARK  status: ('A' for Active; 'I' for Inactive)
REMARK    1  A    between atoms: C_1  and  O_2
REMARK    2  A    between atoms: O_2  and  C_3
REMARK    3  A    between atoms: C_8  and  N_9
REMARK    4  A    between atoms: C_10  and  C_12
REMARK    5  A    between atoms: C_15  and  N_16
REMARK    6  A    between atoms: C_17  and  C_19
REMARK    7  A    between atoms: C_21  and  C_22
REMARK                            x       y       z     vdW  Elec       q    Type
REMARK                         _______ _______ _______ _____ _____    ______ ____
ROOT
ATOM      1  C   UNL     1       2.188   7.506  19.558  0.00  0.00    +0.000 A 
ATOM      2  C   UNL     1       1.614   7.416  20.823  0.00  0.00    +0.000 A 
ATOM      3  C   UNL     1       0.777   8.436  21.280  0.00  0.00    +0.000 A 
ATOM      4  C   UNL     1       0.503   9.568  20.504  0.00  0.00    +0.000 A 
ATOM      5  C   UNL     1       1.070   9.650  19.225  0.00  0.00    +0.000 A 
ATOM      6  C   UNL     1       1.918   8.629  18.763  0.00  0.00    +0.000 A 
ENDROOT
BRANCH   1   8
ATOM      7  N   UNL     1       3.829   6.763  17.901  0.00  0.00    +0.000 N 
ATOM      8  C   UNL     1       3.175   6.494  19.094  0.00  0.00    +0.000 C 
ATOM      9  O   UNL     1       3.350   5.512  19.812  0.00  0.00    +0.000 OA
ATOM     10  H   UNL     1       3.812   7.707  17.529  0.00  0.00    +0.000 HD
BRANCH   7  16
ATOM     11  C   UNL     1       5.916   6.275  16.728  0.00  0.00    +0.000 A 
ATOM     12  C   UNL     1       6.701   5.407  15.953  0.00  0.00    +0.000 A 
ATOM     13  C   UNL     1       6.260   4.117  15.667  0.00  0.00    +0.000 A 
ATOM     14  C   UNL     1       5.022   3.691  16.130  0.00  0.00    +0.000 A 
ATOM     15  C   UNL     1       4.216   4.559  16.868  0.00  0.00    +0.000 A 
ATOM     16  C   UNL     1       4.647   5.855  17.178  0.00  0.00    +0.000 A 
BRANCH  11  18
ATOM     17  C   UNL     1       7.673   7.603  17.581  0.00  0.00    +0.000 C 
ATOM     18  O   UNL     1       6.331   7.539  17.088  0.00  0.00    +0.000 OA
ENDBRANCH  11  18
ENDBRANCH   7  16
ENDBRANCH   1   8
BRANCH   4  19
ATOM     19  N   UNL     1      -0.290  10.648  20.966  0.00  0.00    +0.000 N 
ATOM     20  C   UNL     1      -0.460  11.010  22.291  0.00  0.00    +0.000 C 
ATOM     21  O   UNL     1       0.017  10.439  23.264  0.00  0.00    +0.000 OA
ATOM     22  H   UNL     1      -0.740  11.221  20.264  0.00  0.00    +0.000 HD
BRANCH  20  23
ATOM     23  C   UNL     1      -1.304  12.222  22.533  0.00  0.00    +0.000 C 
ATOM     24  C   UNL     1      -2.436  12.506  21.563  0.00  0.00    +0.000 C 
ATOM     25  C   UNL     1      -2.751  12.022  22.951  0.00  0.00    +0.000 C 
ATOM     26  C   UNL     1      -3.434  12.926  23.915  0.00  0.00    +0.000 C 
ENDBRANCH  20  23
ENDBRANCH   4  19
TORSDOF 5
ENDMDL
MODEL 6
REMARK VINA RESULT:      -7.0      1.619      2.214
REMARK  Name = 
REMARK  7 active torsions:
REMARK  status: ('A' for Active; 'I' for Inactive)
REMARK    1  A    between atoms: C_1  and  O_2
REMARK    2  A    between atoms: O_2  and  C_3
REMARK    3  A    between atoms: C_8  and  N_9
REMARK    4  A    between atoms: C_10  and  C_12
REMARK    5  A    between atoms: C_15  and  N_16
REMARK    6  A    between atoms: C_17  and  C_19
REMARK    7  A    between atoms: C_21  and  C_22
REMARK                            x       y       z     vdW  Elec       q    Type
REMARK                         _______ _______ _______ _____ _____    ______ ____
ROOT
ATOM      1  C   UNL     1       1.900   8.233  18.890  0.00  0.00    +0.000 A 
ATOM      2  C   UNL     1       1.861   7.768  20.201  0.00  0.00    +0.000 A 
ATOM      3  C   UNL     1       1.013   8.377  21.129  0.00  0.00    +0.000 A 
ATOM      4  C   UNL     1       0.200   9.462  20.784  0.00  0.00    +0.000 A 
ATOM      5  C   UNL     1       0.229   9.919  19.459  0.00  0.00    +0.000 A 
ATOM      6  C   UNL     1       1.085   9.313  18.523  0.00  0.00    +0.000 A 
ENDROOT
BRANCH   1   8
ATOM      7  N   UNL     1       3.508   6.497  18.265  0.00  0.00    +0.000 N 
ATOM      8  C   UNL     1       2.877   7.681  17.914  0.00  0.00    +0.000 C 
ATOM      9  O   UNL     1       3.033   8.303  16.865  0.00  0.00    +0.000 OA
ATOM     10  H   UNL     1       3.120   5.934  19.015  0.00  0.00    +0.000 HD
BRANCH   7  16
ATOM     11  C   UNL     1       4.478   4.610  17.053  0.00  0.00    +0.000 A 
ATOM     12  C   UNL     1       5.583   3.995  16.445  0.00  0.00    +0.000 A 
ATOM     13  C   UNL     1       6.793   4.673  16.320  0.00  0.00    +0.000 A 
ATOM     14  C   UNL     1       6.918   5.962  16.822  0.00  0.00    +0.000 A 
ATOM     15  C   UNL     1       5.838   6.568  17.465  0.00  0.00    +0.000 A 
ATOM     16  C   UNL     1       4.609   5.909  17.589  0.00  0.00    +0.000 A 
BRANCH  11  18
ATOM     17  C   UNL     1       3.263   2.715  17.767  0.00  0.00    +0.000 C 
ATOM     18  O   UNL     1       3.243   4.006  17.149  0.00  0.00    +0.000 OA
ENDBRANCH  11  18
ENDBRANCH   7  16
ENDBRANCH   1   8
BRANCH   4  19
ATOM     19  N   UNL     1      -0.622  10.141  21.717  0.00  0.00    +0.000 N 
ATOM     20  C   UNL     1      -0.428  11.437  22.164  0.00  0.00    +0.000 C 
ATOM     21  O   UNL     1       0.494  12.180  21.850  0.00  0.00    +0.000 OA
ATOM     22  H   UNL     1      -1.437   9.647  22.058  0.00  0.00    +0.000 HD
BRANCH  20  23
ATOM     23  C   UNL     1      -1.459  11.961  23.114  0.00  0.00    +0.000 C 
ATOM     24  C   UNL     1      -1.487  13.455  23.379  0.00  0.00    +0.000 C 
ATOM     25  C   UNL     1      -2.578  12.827  22.559  0.00  0.00    +0.000 C 
ATOM     26  C   UNL     1      -3.966  12.769  23.089  0.00  0.00    +0.000 C 
ENDBRANCH  20  23
ENDBRANCH   4  19
TORSDOF 5
ENDMDL
MODEL 7
REMARK VINA RESULT:      -6.9      1.416      1.820
REMARK  Name = 
REMARK  7 active torsions:
REMARK  status: ('A' for Active; 'I' for Inactive)
REMARK    1  A    between atoms: C_1  and  O_2
REMARK    2  A    between atoms: O_2  and  C_3
REMARK    3  A    between atoms: C_8  and  N_9
REMARK    4  A    between atoms: C_10  and  C_12
REMARK    5  A    between atoms: C_15  and  N_16
REMARK    6  A    between atoms: C_17  and  C_19
REMARK    7  A    between atoms: C_21  and  C_22
REMARK                            x       y       z     vdW  Elec       q    Type
REMARK                         _______ _______ _______ _____ _____    ______ ____
ROOT
ATOM      1  C   UNL     1       2.238   8.066  18.667  0.00  0.00    +0.000 A 
ATOM      2  C   UNL     1       2.021   9.214  17.910  0.00  0.00    +0.000 A 
ATOM      3  C   UNL     1       1.315  10.286  18.461  0.00  0.00    +0.000 A 
ATOM      4  C   UNL     1       0.799  10.238  19.761  0.00  0.00    +0.000 A 
ATOM      5  C   UNL     1       1.030   9.087  20.526  0.00  0.00    +0.000 A 
ATOM      6  C   UNL     1       1.736   8.004  19.975  0.00  0.00    +0.000 A 
ENDROOT
BRANCH   1   8
ATOM      7  N   UNL     1       4.219   6.989  17.716  0.00  0.00    +0.000 N 
ATOM      8  C   UNL     1       2.883   6.868  18.066  0.00  0.00    +0.000 C 
ATOM      9  O   UNL     1       2.190   5.859  17.948  0.00  0.00    +0.000 OA
ATOM     10  H   UNL     1       4.762   7.759  18.094  0.00  0.00    +0.000 HD
BRANCH   7  16
ATOM     11  C   UNL     1       5.612   4.984  17.609  0.00  0.00    +0.000 A 
ATOM     12  C   UNL     1       6.410   4.097  16.871  0.00  0.00    +0.000 A 
ATOM     13  C   UNL     1       6.532   4.232  15.490  0.00  0.00    +0.000 A 
ATOM     14  C   UNL     1       5.877   5.269  14.837  0.00  0.00    +0.000 A 
ATOM     15  C   UNL     1       5.113   6.181  15.566  0.00  0.00    +0.000 A 
ATOM     16  C   UNL     1       4.968   6.054  16.954  0.00  0.00    +0.000 A 
BRANCH  11  18
ATOM     17  C   UNL     1       4.682   3.690  19.352  0.00  0.00    +0.000 C 
ATOM     18  O   UNL     1       5.412   4.859  18.967  0.00  0.00    +0.000 OA
ENDBRANCH  11  18
ENDBRANCH   7  16
ENDBRANCH   1   8
BRANCH   4  19
ATOM     19  N   UNL     1       0.023  11.282  20.324  0.00  0.00    +0.000 N 
ATOM     20  C   UNL     1      -1.265  11.619  19.945  0.00  0.00    +0.000 C 
ATOM     21  O   UNL     1      -1.917  11.095  19.051  0.00  0.00    +0.000 OA
ATOM     22  H   UNL     1       0.435  11.800  21.090  0.00  0.00    +0.000 HD
BRANCH  20  23
ATOM     23  C   UNL     1      -1.905  12.728  20.721  0.00  0.00    +0.000 C 
ATOM     24  C   UNL     1      -3.419  12.746  20.817  0.00  0.00    +0.000 C 
ATOM     25  C   UNL     1      -2.604  12.385  22.026  0.00  0.00    +0.000 C 
ATOM     26  C   UNL     1      -2.580  13.292  23.204  0.00  0.00    +0.000 C 
ENDBRANCH  20  23
ENDBRANCH   4  19
TORSDOF 5
ENDMDL
MODEL 8
REMARK VINA RESULT:      -6.9      4.196      7.561
REMARK  Name = 
REMARK  7 active torsions:
REMARK  status: ('A' for Active; 'I' for Inactive)
REMARK    1  A    between atoms: C_1  and  O_2
REMARK    2  A    between atoms: O_2  and  C_3
REMARK    3  A    between atoms: C_8  and  N_9
REMARK    4  A    between atoms: C_10  and  C_12
REMARK    5  A    between atoms: C_15  and  N_16
REMARK    6  A    between atoms: C_17  and  C_19
REMARK    7  A    between atoms: C_21  and  C_22
REMARK                            x       y       z     vdW  Elec       q    Type
REMARK                         _______ _______ _______ _____ _____    ______ ____
ROOT
ATOM      1  C   UNL     1       6.141   5.886  18.286  0.00  0.00    +0.000 A 
ATOM      2  C   UNL     1       5.775   6.897  17.401  0.00  0.00    +0.000 A 
ATOM      3  C   UNL     1       6.643   7.967  17.172  0.00  0.00    +0.000 A 
ATOM      4  C   UNL     1       7.880   8.065  17.820  0.00  0.00    +0.000 A 
ATOM      5  C   UNL     1       8.253   7.039  18.698  0.00  0.00    +0.000 A 
ATOM      6  C   UNL     1       7.380   5.963  18.937  0.00  0.00    +0.000 A 
ENDROOT
BRANCH   1   8
ATOM      7  N   UNL     1       3.860   4.999  18.295  0.00  0.00    +0.000 N 
ATOM      8  C   UNL     1       5.189   4.799  18.638  0.00  0.00    +0.000 C 
ATOM      9  O   UNL     1       5.655   3.801  19.183  0.00  0.00    +0.000 OA
ATOM     10  H   UNL     1       3.626   5.721  17.621  0.00  0.00    +0.000 HD
BRANCH   7  16
ATOM     11  C   UNL     1       2.083   4.520  19.902  0.00  0.00    +0.000 A 
ATOM     12  C   UNL     1       1.044   3.692  20.354  0.00  0.00    +0.000 A 
ATOM     13  C   UNL     1       0.644   2.584  19.610  0.00  0.00    +0.000 A 
ATOM     14  C   UNL     1       1.294   2.280  18.421  0.00  0.00    +0.000 A 
ATOM     15  C   UNL     1       2.355   3.072  17.982  0.00  0.00    +0.000 A 
ATOM     16  C   UNL     1       2.764   4.198  18.709  0.00  0.00    +0.000 A 
BRANCH  11  18
ATOM     17  C   UNL     1       1.935   6.873  20.042  0.00  0.00    +0.000 C 
ATOM     18  O   UNL     1       2.478   5.659  20.570  0.00  0.00    +0.000 OA
ENDBRANCH  11  18
ENDBRANCH   7  16
ENDBRANCH   1   8
BRANCH   4  19
ATOM     19  N   UNL     1       8.753   9.169  17.657  0.00  0.00    +0.000 N 
ATOM     20  C   UNL     1       9.159  10.026  18.665  0.00  0.00    +0.000 C 
ATOM     21  O   UNL     1       8.805   9.985  19.837  0.00  0.00    +0.000 OA
ATOM     22  H   UNL     1       9.136   9.320  16.733  0.00  0.00    +0.000 HD
BRANCH  20  23
ATOM     23  C   UNL     1      10.129  11.093  18.263  0.00  0.00    +0.000 C 
ATOM     24  C   UNL     1       9.813  12.526  18.652  0.00  0.00    +0.000 C 
ATOM     25  C   UNL     1      10.923  11.794  19.353  0.00  0.00    +0.000 C 
ATOM     26  C   UNL     1      12.333  12.224  19.158  0.00  0.00    +0.000 C 
ENDBRANCH  20  23
ENDBRANCH   4  19
TORSDOF 5
ENDMDL
MODEL 9
REMARK VINA RESULT:      -6.9      1.237      1.701
REMARK  Name = 
REMARK  7 active torsions:
REMARK  status: ('A' for Active; 'I' for Inactive)
REMARK    1  A    between atoms: C_1  and  O_2
REMARK    2  A    between atoms: O_2  and  C_3
REMARK    3  A    between atoms: C_8  and  N_9
REMARK    4  A    between atoms: C_10  and  C_12
REMARK    5  A    between atoms: C_15  and  N_16
REMARK    6  A    between atoms: C_17  and  C_19
REMARK    7  A    between atoms: C_21  and  C_22
REMARK                            x       y       z     vdW  Elec       q    Type
REMARK                         _______ _______ _______ _____ _____    ______ ____
ROOT
ATOM      1  C   UNL     1       2.456   7.821  18.570  0.00  0.00    +0.000 A 
ATOM      2  C   UNL     1       2.142   8.933  17.793  0.00  0.00    +0.000 A 
ATOM      3  C   UNL     1       1.338   9.945  18.322  0.00  0.00    +0.000 A 
ATOM      4  C   UNL     1       0.820   9.872  19.620  0.00  0.00    +0.000 A 
ATOM      5  C   UNL     1       1.149   8.759  20.405  0.00  0.00    +0.000 A 
ATOM      6  C   UNL     1       1.953   7.735  19.876  0.00  0.00    +0.000 A 
ENDROOT
BRANCH   1   8
ATOM      7  N   UNL     1       4.513   6.928  17.590  0.00  0.00    +0.000 N 
ATOM      8  C   UNL     1       3.211   6.676  17.993  0.00  0.00    +0.000 C 
ATOM      9  O   UNL     1       2.631   5.594  17.938  0.00  0.00    +0.000 OA
ATOM     10  H   UNL     1       4.979   7.768  17.917  0.00  0.00    +0.000 HD
BRANCH   7  16
ATOM     11  C   UNL     1       6.355   5.325  17.490  0.00  0.00    +0.000 A 
ATOM     12  C   UNL     1       7.216   4.509  16.742  0.00  0.00    +0.000 A 
ATOM     13  C   UNL     1       7.043   4.366  15.367  0.00  0.00    +0.000 A 
ATOM     14  C   UNL     1       6.024   5.057  14.724  0.00  0.00    +0.000 A 
ATOM     15  C   UNL     1       5.187   5.903  15.452  0.00  0.00    +0.000 A 
ATOM     16  C   UNL     1       5.336   6.049  16.837  0.00  0.00    +0.000 A 
BRANCH  11  18
ATOM     17  C   UNL     1       7.771   5.699  19.343  0.00  0.00    +0.000 C 
ATOM     18  O   UNL     1       6.447   5.454  18.859  0.00  0.00    +0.000 OA
ENDBRANCH  11  18
ENDBRANCH   7  16
ENDBRANCH   1   8
BRANCH   4  19
ATOM     19  N   UNL     1      -0.050  10.851  20.162  0.00  0.00    +0.000 N 
ATOM     20  C   UNL     1      -1.303  11.173  19.667  0.00  0.00    +0.000 C 
ATOM     21  O   UNL     1      -1.836  10.690  18.675  0.00  0.00    +0.000 OA
ATOM     22  H   UNL     1       0.258  11.328  20.999  0.00  0.00    +0.000 HD
BRANCH  20  23
ATOM     23  C   UNL     1      -2.063  12.206  20.439  0.00  0.00    +0.000 C 
ATOM     24  C   UNL     1      -1.587  12.539  21.841  0.00  0.00    +0.000 C 
ATOM     25  C   UNL     1      -1.383  13.533  20.733  0.00  0.00    +0.000 C 
ATOM     26  C   UNL     1      -2.125  14.821  20.746  0.00  0.00    +0.000 C 
ENDBRANCH  20  23
ENDBRANCH   4  19
TORSDOF 5
ENDMDL
