MODEL 1
REMARK VINA RESULT:      -7.4      0.000      0.000
REMARK  Name = 
REMARK  5 active torsions:
REMARK  status: ('A' for Active; 'I' for Inactive)
REMARK    1  A    between atoms: C_5  and  C_6
REMARK    2  A    between atoms: C_6  and  O_7
REMARK    3  A    between atoms: O_7  and  C_8
REMARK    4  A    between atoms: N_10  and  C_11
REMARK    5  A    between atoms: C_11  and  C_12
REMARK                            x       y       z     vdW  Elec       q    Type
REMARK                         _______ _______ _______ _____ _____    ______ ____
ROOT
ATOM      1  C   UNL     1       4.595   6.080  17.962  0.00  0.00    +0.000 C 
ATOM      2  C   UNL     1       4.811   5.239  19.238  0.00  0.00    +0.000 C 
ATOM      3  N   UNL     1       5.245   3.885  18.831  0.00  0.00    +0.000 NA
ATOM      4  C   UNL     1       5.942   4.118  17.552  0.00  0.00    +0.000 C 
ATOM      5  C   UNL     1       7.350   4.707  17.701  0.00  0.00    +0.000 C 
ATOM      6  O   UNL     1       7.510   5.705  16.685  0.00  0.00    +0.000 OA
ATOM      7  C   UNL     1       6.257   5.894  16.017  0.00  0.00    +0.000 C 
ATOM      8  C   UNL     1       5.175   5.214  16.834  0.00  0.00    +0.000 C 
ENDROOT
BRANCH   1   9
ATOM      9  O   UNL     1       3.203   6.364  17.700  0.00  0.00    +0.000 OA
BRANCH   9  10
ATOM     10  C   UNL     1       2.940   7.772  17.764  0.00  0.00    +0.000 C 
BRANCH  10  15
ATOM     11  C   UNL     1       1.097   8.118  21.102  0.00  0.00    +0.000 A 
ATOM     12  C   UNL     1       0.392   9.272  20.808  0.00  0.00    +0.000 A 
ATOM     13  N   UNL     1       0.488   9.927  19.634  0.00  0.00    +0.000 NA
ATOM     14  C   UNL     1       1.322   9.391  18.718  0.00  0.00    +0.000 A 
ATOM     15  C   UNL     1       2.077   8.232  18.908  0.00  0.00    +0.000 A 
ATOM     16  C   UNL     1       1.956   7.587  20.136  0.00  0.00    +0.000 A 
ENDBRANCH  10  15
ENDBRANCH   9  10
ENDBRANCH   1   9
BRANCH   3  17
ATOM     17  C   UNL     1       4.091   2.980  18.618  0.00  0.00    +0.000 C 
BRANCH  17  18
ATOM     18  C   UNL     1       3.000   3.162  19.621  0.00  0.00    +0.000 A 
ATOM     19  C   UNL     1       1.737   3.716  19.579  0.00  0.00    +0.000 A 
ATOM     20  C   UNL     1       1.188   3.555  20.875  0.00  0.00    +0.000 A 
ATOM     21  C   UNL     1       2.146   2.916  21.624  0.00  0.00    +0.000 A 
ATOM     22  O   UNL     1       3.250   2.675  20.872  0.00  0.00    +0.000 OA
ENDBRANCH  17  18
ENDBRANCH   3  17
TORSDOF 5
ENDMDL
MODEL 2
REMARK VINA RESULT:      -7.3      0.589      1.069
REMARK  Name = 
REMARK  5 active torsions:
REMARK  status: ('A' for Active; 'I' for Inactive)
REMARK    1  A    between atoms: C_5  and  C_6
REMARK    2  A    between atoms: C_6  and  O_7
REMARK    3  A    between atoms: O_7  and  C_8
REMARK    4  A    between atoms: N_10  and  C_11
REMARK    5  A    between atoms: C_11  and  C_12
REMARK                            x       y       z     vdW  Elec       q    Type
REMARK                         _______ _______ _______ _____ _____    ______ ____
ROOT
ATOM      1  C   UNL     1       4.607   6.077  18.112  0.00  0.00    +0.000 C 
ATOM      2  C   UNL     1       4.818   5.196  19.362  0.00  0.00    +0.000 C 
ATOM      3  N   UNL     1       5.276   3.862  18.915  0.00  0.00    +0.000 NA
ATOM      4  C   UNL     1       5.987   4.148  17.654  0.00  0.00    +0.000 C 
ATOM      5  C   UNL     1       7.385   4.750  17.843  0.00  0.00    +0.000 C 
ATOM      6  O   UNL     1       7.544   5.784  16.863  0.00  0.00    +0.000 OA
ATOM      7  C   UNL     1       6.298   5.980  16.185  0.00  0.00    +0.000 C 
ATOM      8  C   UNL     1       5.215   5.258  16.964  0.00  0.00    +0.000 C 
ENDROOT
BRANCH   1   9
ATOM      9  O   UNL     1       3.216   6.351  17.841  0.00  0.00    +0.000 OA
BRANCH   9  10
ATOM     10  C   UNL     1       3.009   7.739  17.548  0.00  0.00    +0.000 C 
BRANCH  10  15
ATOM     11  C   UNL     1       0.544  10.222  19.104  0.00  0.00    +0.000 A 
ATOM     12  C   UNL     1       0.460   9.642  20.357  0.00  0.00    +0.000 A 
ATOM     13  N   UNL     1       1.124   8.523  20.709  0.00  0.00    +0.000 NA
ATOM     14  C   UNL     1       1.911   7.974  19.759  0.00  0.00    +0.000 A 
ATOM     15  C   UNL     1       2.072   8.477  18.467  0.00  0.00    +0.000 A 
ATOM     16  C   UNL     1       1.364   9.630  18.140  0.00  0.00    +0.000 A 
ENDBRANCH  10  15
ENDBRANCH   9  10
ENDBRANCH   1   9
BRANCH   3  17
ATOM     17  C   UNL     1       4.137   2.950  18.654  0.00  0.00    +0.000 C 
BRANCH  17  18
ATOM     18  C   UNL     1       3.028   3.087  19.645  0.00  0.00    +0.000 A 
ATOM     19  C   UNL     1       1.745   3.589  19.588  0.00  0.00    +0.000 A 
ATOM     20  C   UNL     1       1.187   3.405  20.878  0.00  0.00    +0.000 A 
ATOM     21  C   UNL     1       2.161   2.804  21.638  0.00  0.00    +0.000 A 
ATOM     22  O   UNL     1       3.283   2.608  20.898  0.00  0.00    +0.000 OA
ENDBRANCH  17  18
ENDBRANCH   3  17
TORSDOF 5
ENDMDL
MODEL 3
REMARK VINA RESULT:      -7.3      2.821      5.976
REMARK  Name = 
REMARK  5 active torsions:
REMARK  status: ('A' for Active; 'I' for Inactive)
REMARK    1  A    between atoms: C_5  and  C_6
REMARK    2  A    between atoms: C_6  and  O_7
REMARK    3  A    between atoms: O_7  and  C_8
REMARK    4  A    between atoms: N_10  and  C_11
REMARK    5  A    between atoms: C_11  and  C_12
REMARK                            x       y       z     vdW  Elec       q    Type
REMARK                         _______ _______ _______ _____ _____    ______ ____
ROOT
ATOM      1  C   UNL     1       5.379   4.900  18.599  0.00  0.00    +0.000 C 
ATOM      2  C   UNL     1       6.665   5.246  17.819  0.00  0.00    +0.000 C 
ATOM      3  N   UNL     1       6.310   5.414  16.394  0.00  0.00    +0.000 NA
ATOM      4  C   UNL     1       4.911   5.879  16.441  0.00  0.00    +0.000 C 
ATOM      5  C   UNL     1       4.750   7.354  16.829  0.00  0.00    +0.000 C 
ATOM      6  O   UNL     1       3.636   7.444  17.727  0.00  0.00    +0.000 OA
ATOM      7  C   UNL     1       3.191   6.122  18.052  0.00  0.00    +0.000 C 
ATOM      8  C   UNL     1       4.247   5.137  17.589  0.00  0.00    +0.000 C 
ENDROOT
BRANCH   1   9
ATOM      9  O   UNL     1       5.347   3.533  19.063  0.00  0.00    +0.000 OA
BRANCH   9  10
ATOM     10  C   UNL     1       4.140   2.875  18.655  0.00  0.00    +0.000 C 
BRANCH  10  15
ATOM     11  C   UNL     1       0.753   3.006  20.436  0.00  0.00    +0.000 A 
ATOM     12  C   UNL     1       1.209   2.780  21.723  0.00  0.00    +0.000 A 
ATOM     13  N   UNL     1       2.506   2.581  22.032  0.00  0.00    +0.000 NA
ATOM     14  C   UNL     1       3.377   2.621  21.001  0.00  0.00    +0.000 A 
ATOM     15  C   UNL     1       3.028   2.846  19.669  0.00  0.00    +0.000 A 
ATOM     16  C   UNL     1       1.678   3.040  19.389  0.00  0.00    +0.000 A 
ENDBRANCH  10  15
ENDBRANCH   9  10
ENDBRANCH   1   9
BRANCH   3  17
ATOM     17  C   UNL     1       6.390   4.133  15.653  0.00  0.00    +0.000 C 
BRANCH  17  18
ATOM     18  C   UNL     1       6.758   4.300  14.215  0.00  0.00    +0.000 A 
ATOM     19  C   UNL     1       6.380   3.672  13.047  0.00  0.00    +0.000 A 
ATOM     20  C   UNL     1       7.083   4.320  12.001  0.00  0.00    +0.000 A 
ATOM     21  C   UNL     1       7.842   5.299  12.594  0.00  0.00    +0.000 A 
ATOM     22  O   UNL     1       7.653   5.294  13.938  0.00  0.00    +0.000 OA
ENDBRANCH  17  18
ENDBRANCH   3  17
TORSDOF 5
ENDMDL
MODEL 4
REMARK VINA RESULT:      -7.2      2.146      6.440
REMARK  Name = 
REMARK  5 active torsions:
REMARK  status: ('A' for Active; 'I' for Inactive)
REMARK    1  A    between atoms: C_5  and  C_6
REMARK    2  A    between atoms: C_6  and  O_7
REMARK    3  A    between atoms: O_7  and  C_8
REMARK    4  A    between atoms: N_10  and  C_11
REMARK    5  A    between atoms: C_11  and  C_12
REMARK                            x       y       z     vdW  Elec       q    Type
REMARK                         _______ _______ _______ _____ _____    ______ ____
ROOT
ATOM      1  C   UNL     1       3.464   3.609  18.556  0.00  0.00    +0.000 C 
ATOM      2  C   UNL     1       3.971   4.814  19.376  0.00  0.00    +0.000 C 
ATOM      3  N   UNL     1       2.866   5.790  19.495  0.00  0.00    +0.000 NA
ATOM      4  C   UNL     1       1.656   4.948  19.437  0.00  0.00    +0.000 C 
ATOM      5  C   UNL     1       1.352   4.192  20.736  0.00  0.00    +0.000 C 
ATOM      6  O   UNL     1       0.932   2.869  20.376  0.00  0.00    +0.000 OA
ATOM      7  C   UNL     1       1.102   2.694  18.965  0.00  0.00    +0.000 C 
ATOM      8  C   UNL     1       1.949   3.838  18.442  0.00  0.00    +0.000 C 
ENDROOT
BRANCH   1   9
ATOM      9  O   UNL     1       4.051   3.533  17.239  0.00  0.00    +0.000 OA
BRANCH   9  10
ATOM     10  C   UNL     1       5.381   4.070  17.232  0.00  0.00    +0.000 C 
BRANCH  10  15
ATOM     11  C   UNL     1       6.293   3.947  13.515  0.00  0.00    +0.000 A 
ATOM     12  C   UNL     1       7.316   4.879  13.542  0.00  0.00    +0.000 A 
ATOM     13  N   UNL     1       7.702   5.532  14.656  0.00  0.00    +0.000 NA
ATOM     14  C   UNL     1       7.036   5.224  15.789  0.00  0.00    +0.000 A 
ATOM     15  C   UNL     1       5.994   4.298  15.876  0.00  0.00    +0.000 A 
ATOM     16  C   UNL     1       5.619   3.650  14.702  0.00  0.00    +0.000 A 
ENDBRANCH  10  15
ENDBRANCH   9  10
ENDBRANCH   1   9
BRANCH   3  17
ATOM     17  C   UNL     1       2.863   6.755  18.370  0.00  0.00    +0.000 C 
BRANCH  17  18
ATOM     18  C   UNL     1       2.115   8.013  18.669  0.00  0.00    +0.000 A 
ATOM     19  C   UNL     1       1.701   9.088  17.911  0.00  0.00    +0.000 A 
ATOM     20  C   UNL     1       1.007   9.954  18.793  0.00  0.00    +0.000 A 
ATOM     21  C   UNL     1       1.042   9.355  20.028  0.00  0.00    +0.000 A 
ATOM     22  O   UNL     1       1.712   8.177  19.963  0.00  0.00    +0.000 OA
ENDBRANCH  17  18
ENDBRANCH   3  17
TORSDOF 5
ENDMDL
MODEL 5
REMARK VINA RESULT:      -7.1      2.334      6.526
REMARK  Name = 
REMARK  5 active torsions:
REMARK  status: ('A' for Active; 'I' for Inactive)
REMARK    1  A    between atoms: C_5  and  C_6
REMARK    2  A    between atoms: C_6  and  O_7
REMARK    3  A    between atoms: O_7  and  C_8
REMARK    4  A    between atoms: N_10  and  C_11
REMARK    5  A    between atoms: C_11  and  C_12
REMARK                            x       y       z     vdW  Elec       q    Type
REMARK                         _______ _______ _______ _____ _____    ______ ____
ROOT
ATOM      1  C   UNL     1       4.535   3.784  18.268  0.00  0.00    +0.000 C 
ATOM      2  C   UNL     1       4.441   4.921  19.308  0.00  0.00    +0.000 C 
ATOM      3  N   UNL     1       3.161   5.633  19.101  0.00  0.00    +0.000 NA
ATOM      4  C   UNL     1       2.275   4.591  18.547  0.00  0.00    +0.000 C 
ATOM      5  C   UNL     1       1.747   3.596  19.588  0.00  0.00    +0.000 C 
ATOM      6  O   UNL     1       1.795   2.290  18.998  0.00  0.00    +0.000 OA
ATOM      7  C   UNL     1       2.459   2.374  17.732  0.00  0.00    +0.000 C 
ATOM      8  C   UNL     1       3.135   3.729  17.639  0.00  0.00    +0.000 C 
ENDROOT
BRANCH   1   9
ATOM      9  O   UNL     1       5.525   4.031  17.246  0.00  0.00    +0.000 OA
BRANCH   9  10
ATOM     10  C   UNL     1       4.935   4.023  15.940  0.00  0.00    +0.000 C 
BRANCH  10  15
ATOM     11  C   UNL     1       6.708   4.101  12.547  0.00  0.00    +0.000 A 
ATOM     12  C   UNL     1       7.735   4.961  12.892  0.00  0.00    +0.000 A 
ATOM     13  N   UNL     1       7.872   5.508  14.116  0.00  0.00    +0.000 NA
ATOM     14  C   UNL     1       6.939   5.166  15.030  0.00  0.00    +0.000 A 
ATOM     15  C   UNL     1       5.866   4.305  14.791  0.00  0.00    +0.000 A 
ATOM     16  C   UNL     1       5.755   3.766  13.512  0.00  0.00    +0.000 A 
ENDBRANCH  10  15
ENDBRANCH   9  10
ENDBRANCH   1   9
BRANCH   3  17
ATOM     17  C   UNL     1       3.301   6.742  18.129  0.00  0.00    +0.000 C 
BRANCH  17  18
ATOM     18  C   UNL     1       2.394   7.895  18.409  0.00  0.00    +0.000 A 
ATOM     19  C   UNL     1       1.697   8.323  19.520  0.00  0.00    +0.000 A 
ATOM     20  C   UNL     1       1.031   9.514  19.138  0.00  0.00    +0.000 A 
ATOM     21  C   UNL     1       1.362   9.737  17.824  0.00  0.00    +0.000 A 
ATOM     22  O   UNL     1       2.188   8.760  17.372  0.00  0.00    +0.000 OA
ENDBRANCH  17  18
ENDBRANCH   3  17
TORSDOF 5
ENDMDL
MODEL 6
REMARK VINA RESULT:      -7.0      1.311      1.479
REMARK  Name = 
REMARK  5 active torsions:
REMARK  status: ('A' for Active; 'I' for Inactive)
REMARK    1  A    between atoms: C_5  and  C_6
REMARK    2  A    between atoms: C_6  and  O_7
REMARK    3  A    between atoms: O_7  and  C_8
REMARK    4  A    between atoms: N_10  and  C_11
REMARK    5  A    between atoms: C_11  and  C_12
REMARK                            x       y       z     vdW  Elec       q    Type
REMARK                         _______ _______ _______ _____ _____    ______ ____
ROOT
ATOM      1  C   UNL     1       4.805   5.432  18.332  0.00  0.00    +0.000 C 
ATOM      2  C   UNL     1       4.655   3.922  18.612  0.00  0.00    +0.000 C 
ATOM      3  N   UNL     1       4.116   3.277  17.395  0.00  0.00    +0.000 NA
ATOM      4  C   UNL     1       4.614   4.135  16.303  0.00  0.00    +0.000 C 
ATOM      5  C   UNL     1       6.094   3.925  15.962  0.00  0.00    +0.000 C 
ATOM      6  O   UNL     1       6.672   5.217  15.736  0.00  0.00    +0.000 OA
ATOM      7  C   UNL     1       5.707   6.223  16.064  0.00  0.00    +0.000 C 
ATOM      8  C   UNL     1       4.570   5.563  16.820  0.00  0.00    +0.000 C 
ENDROOT
BRANCH   1   9
ATOM      9  O   UNL     1       3.848   6.240  19.051  0.00  0.00    +0.000 OA
BRANCH   9  10
ATOM     10  C   UNL     1       3.045   7.016  18.152  0.00  0.00    +0.000 C 
BRANCH  10  15
ATOM     11  C   UNL     1       0.882   9.049  20.570  0.00  0.00    +0.000 A 
ATOM     12  C   UNL     1       0.450  10.010  19.673  0.00  0.00    +0.000 A 
ATOM     13  N   UNL     1       0.819  10.042  18.377  0.00  0.00    +0.000 NA
ATOM     14  C   UNL     1       1.650   9.059  17.969  0.00  0.00    +0.000 A 
ATOM     15  C   UNL     1       2.142   8.039  18.787  0.00  0.00    +0.000 A 
ATOM     16  C   UNL     1       1.743   8.045  20.121  0.00  0.00    +0.000 A 
ENDBRANCH  10  15
ENDBRANCH   9  10
ENDBRANCH   1   9
BRANCH   3  17
ATOM     17  C   UNL     1       2.634   3.266  17.391  0.00  0.00    +0.000 C 
BRANCH  17  18
ATOM     18  C   UNL     1       2.036   3.175  18.756  0.00  0.00    +0.000 A 
ATOM     19  C   UNL     1       2.019   2.205  19.736  0.00  0.00    +0.000 A 
ATOM     20  C   UNL     1       1.291   2.749  20.824  0.00  0.00    +0.000 A 
ATOM     21  C   UNL     1       0.912   4.012  20.440  0.00  0.00    +0.000 A 
ATOM     22  O   UNL     1       1.358   4.280  19.187  0.00  0.00    +0.000 OA
ENDBRANCH  17  18
ENDBRANCH   3  17
TORSDOF 5
ENDMDL
MODEL 7
REMARK VINA RESULT:      -6.9      1.423      4.334
REMARK  Name = 
REMARK  5 active torsions:
REMARK  status: ('A' for Active; 'I' for Inactive)
REMARK    1  A    between atoms: C_5  and  C_6
REMARK    2  A    between atoms: C_6  and  O_7
REMARK    3  A    between atoms: O_7  and  C_8
REMARK    4  A    between atoms: N_10  and  C_11
REMARK    5  A    between atoms: C_11  and  C_12
REMARK                            x       y       z     vdW  Elec       q    Type
REMARK                         _______ _______ _______ _____ _____    ______ ____
ROOT
ATOM      1  C   UNL     1       1.904   4.693  18.200  0.00  0.00    +0.000 C 
ATOM      2  C   UNL     1       2.745   3.646  17.441  0.00  0.00    +0.000 C 
ATOM      3  N   UNL     1       3.806   3.158  18.349  0.00  0.00    +0.000 NA
ATOM      4  C   UNL     1       3.204   3.304  19.688  0.00  0.00    +0.000 C 
ATOM      5  C   UNL     1       2.174   2.224  20.038  0.00  0.00    +0.000 C 
ATOM      6  O   UNL     1       1.080   2.869  20.703  0.00  0.00    +0.000 OA
ATOM      7  C   UNL     1       1.277   4.287  20.655  0.00  0.00    +0.000 C 
ATOM      8  C   UNL     1       2.380   4.580  19.656  0.00  0.00    +0.000 C 
ENDROOT
BRANCH   1   9
ATOM      9  O   UNL     1       2.105   6.040  17.718  0.00  0.00    +0.000 OA
BRANCH   9  10
ATOM     10  C   UNL     1       2.758   6.851  18.705  0.00  0.00    +0.000 C 
BRANCH  10  15
ATOM     11  C   UNL     1       0.775   9.457  20.688  0.00  0.00    +0.000 A 
ATOM     12  C   UNL     1       0.656  10.404  19.687  0.00  0.00    +0.000 A 
ATOM     13  N   UNL     1       1.176  10.256  18.453  0.00  0.00    +0.000 NA
ATOM     14  C   UNL     1       1.835   9.101  18.218  0.00  0.00    +0.000 A 
ATOM     15  C   UNL     1       2.010   8.078  19.152  0.00  0.00    +0.000 A 
ATOM     16  C   UNL     1       1.464   8.272  20.418  0.00  0.00    +0.000 A 
ENDBRANCH  10  15
ENDBRANCH   9  10
ENDBRANCH   1   9
BRANCH   3  17
ATOM     17  C   UNL     1       5.032   3.985  18.255  0.00  0.00    +0.000 C 
BRANCH  17  18
ATOM     18  C   UNL     1       5.353   4.416  16.862  0.00  0.00    +0.000 A 
ATOM     19  C   UNL     1       5.318   5.624  16.197  0.00  0.00    +0.000 A 
ATOM     20  C   UNL     1       5.771   5.367  14.879  0.00  0.00    +0.000 A 
ATOM     21  C   UNL     1       6.052   4.023  14.823  0.00  0.00    +0.000 A 
ATOM     22  O   UNL     1       5.800   3.437  16.021  0.00  0.00    +0.000 OA
ENDBRANCH  17  18
ENDBRANCH   3  17
TORSDOF 5
ENDMDL
MODEL 8
REMARK VINA RESULT:      -6.8      1.384      1.857
REMARK  Name = 
REMARK  5 active torsions:
REMARK  status: ('A' for Active; 'I' for Inactive)
REMARK    1  A    between atoms: C_5  and  C_6
REMARK    2  A    between atoms: C_6  and  O_7
REMARK    3  A    between atoms: O_7  and  C_8
REMARK    4  A    between atoms: N_10  and  C_11
REMARK    5  A    between atoms: C_11  and  C_12
REMARK                            x       y       z     vdW  Elec       q    Type
REMARK                         _______ _______ _______ _____ _____    ______ ____
ROOT
ATOM      1  C   UNL     1       5.079   6.673  18.235  0.00  0.00    +0.000 C 
ATOM      2  C   UNL     1       4.841   5.462  19.160  0.00  0.00    +0.000 C 
ATOM      3  N   UNL     1       5.723   4.360  18.715  0.00  0.00    +0.000 NA
ATOM      4  C   UNL     1       6.875   5.062  18.120  0.00  0.00    +0.000 C 
ATOM      5  C   UNL     1       7.851   5.654  19.145  0.00  0.00    +0.000 C 
ATOM      6  O   UNL     1       8.242   6.949  18.670  0.00  0.00    +0.000 OA
ATOM      7  C   UNL     1       7.466   7.275  17.512  0.00  0.00    +0.000 C 
ATOM      8  C   UNL     1       6.319   6.287  17.415  0.00  0.00    +0.000 C 
ENDROOT
BRANCH   1   9
ATOM      9  O   UNL     1       3.967   6.940  17.353  0.00  0.00    +0.000 OA
BRANCH   9  10
ATOM     10  C   UNL     1       2.715   6.736  18.021  0.00  0.00    +0.000 C 
BRANCH  10  15
ATOM     11  C   UNL     1       1.129  10.189  18.494  0.00  0.00    +0.000 A 
ATOM     12  C   UNL     1       0.881  10.096  19.852  0.00  0.00    +0.000 A 
ATOM     13  N   UNL     1       1.176   9.011  20.593  0.00  0.00    +0.000 NA
ATOM     14  C   UNL     1       1.753   7.980  19.939  0.00  0.00    +0.000 A 
ATOM     15  C   UNL     1       2.052   7.969  18.575  0.00  0.00    +0.000 A 
ATOM     16  C   UNL     1       1.725   9.106  17.842  0.00  0.00    +0.000 A 
ENDBRANCH  10  15
ENDBRANCH   9  10
ENDBRANCH   1   9
BRANCH   3  17
ATOM     17  C   UNL     1       5.067   3.512  17.692  0.00  0.00    +0.000 C 
BRANCH  17  18
ATOM     18  C   UNL     1       3.689   3.080  18.073  0.00  0.00    +0.000 A 
ATOM     19  C   UNL     1       2.447   3.201  17.487  0.00  0.00    +0.000 A 
ATOM     20  C   UNL     1       1.532   2.550  18.352  0.00  0.00    +0.000 A 
ATOM     21  C   UNL     1       2.271   2.074  19.407  0.00  0.00    +0.000 A 
ATOM     22  O   UNL     1       3.581   2.392  19.248  0.00  0.00    +0.000 OA
ENDBRANCH  17  18
ENDBRANCH   3  17
TORSDOF 5
ENDMDL
MODEL 9
REMARK VINA RESULT:      -6.8      2.109      6.087
REMARK  Name = 
REMARK  5 active torsions:
REMARK  status: ('A' for Active; 'I' for Inactive)
REMARK    1  A    between atoms: C_5  and  C_6
REMARK    2  A    between atoms: C_6  and  O_7
REMARK    3  A    between atoms: O_7  and  C_8
REMARK    4  A    between atoms: N_10  and  C_11
REMARK    5  A    between atoms: C_11  and  C_12
REMARK                            x       y       z     vdW  Elec       q    Type
REMARK                         _______ _______ _______ _____ _____    ______ ____
ROOT
ATOM      1  C   UNL     1       3.883   3.464  19.625  0.00  0.00    +0.000 C 
ATOM      2  C   UNL     1       3.402   4.751  20.327  0.00  0.00    +0.000 C 
ATOM      3  N   UNL     1       2.380   5.391  19.470  0.00  0.00    +0.000 NA
ATOM      4  C   UNL     1       1.774   4.254  18.752  0.00  0.00    +0.000 C 
ATOM      5  C   UNL     1       0.793   3.428  19.594  0.00  0.00    +0.000 C 
ATOM      6  O   UNL     1       1.028   2.046  19.297  0.00  0.00    +0.000 OA
ATOM      7  C   UNL     1       2.182   1.939  18.456  0.00  0.00    +0.000 C 
ATOM      8  C   UNL     1       2.899   3.276  18.461  0.00  0.00    +0.000 C 
ENDROOT
BRANCH   1   9
ATOM      9  O   UNL     1       5.232   3.563  19.120  0.00  0.00    +0.000 OA
BRANCH   9  10
ATOM     10  C   UNL     1       5.448   4.820  18.464  0.00  0.00    +0.000 C 
BRANCH  10  15
ATOM     11  C   UNL     1       6.027   3.910  14.790  0.00  0.00    +0.000 A 
ATOM     12  C   UNL     1       7.052   4.804  14.535  0.00  0.00    +0.000 A 
ATOM     13  N   UNL     1       7.540   5.663  15.452  0.00  0.00    +0.000 NA
ATOM     14  C   UNL     1       6.975   5.612  16.677  0.00  0.00    +0.000 A 
ATOM     15  C   UNL     1       5.941   4.749  17.044  0.00  0.00    +0.000 A 
ATOM     16  C   UNL     1       5.460   3.881  16.067  0.00  0.00    +0.000 A 
ENDBRANCH  10  15
ENDBRANCH   9  10
ENDBRANCH   1   9
BRANCH   3  17
ATOM     17  C   UNL     1       2.989   6.331  18.500  0.00  0.00    +0.000 C 
BRANCH  17  18
ATOM     18  C   UNL     1       2.377   7.694  18.529  0.00  0.00    +0.000 A 
ATOM     19  C   UNL     1       2.321   8.742  17.635  0.00  0.00    +0.000 A 
ATOM     20  C   UNL     1       1.561   9.761  18.262  0.00  0.00    +0.000 A 
ATOM     21  C   UNL     1       1.203   9.272  19.495  0.00  0.00    +0.000 A 
ATOM     22  O   UNL     1       1.695   8.018  19.667  0.00  0.00    +0.000 OA
ENDBRANCH  17  18
ENDBRANCH   3  17
TORSDOF 5
ENDMDL
