MODEL 1
REMARK VINA RESULT:      -6.2      0.000      0.000
REMARK  Name = 
REMARK  8 active torsions:
REMARK  status: ('A' for Active; 'I' for Inactive)
REMARK    1  A    between atoms: C_1  and  O_2
REMARK    2  A    between atoms: O_2  and  C_3
REMARK    3  A    between atoms: C_3  and  C_4
REMARK    4  A    between atoms: C_4  and  C_5
REMARK    5  A    between atoms: C_5  and  C_6
REMARK    6  A    between atoms: N_11  and  C_12
REMARK    7  A    between atoms: C_12  and  C_13
REMARK    8  A    between atoms: C_13  and  N_14
REMARK                            x       y       z     vdW  Elec       q    Type
REMARK                         _______ _______ _______ _____ _____    ______ ____
ROOT
ATOM      1  C   UNL     1       6.202   4.342  16.796  0.00  0.00    +0.000 C 
ATOM      2  C   UNL     1       7.603   4.573  17.397  0.00  0.00    +0.000 C 
ATOM      3  C   UNL     1       7.623   5.735  18.381  0.00  0.00    +0.000 C 
ATOM      4  C   UNL     1       6.558   5.537  19.453  0.00  0.00    +0.000 C 
ATOM      5  C   UNL     1       5.188   5.188  18.864  0.00  0.00    +0.000 C 
ATOM      6  N   UNL     1       5.262   4.064  17.912  0.00  0.00    +0.000 NA
ENDROOT
BRANCH   1   7
ATOM      7  C   UNL     1       5.731   5.483  15.863  0.00  0.00    +0.000 C 
BRANCH   7   8
ATOM      8  C   UNL     1       5.536   5.070  14.400  0.00  0.00    +0.000 C 
BRANCH   8   9
ATOM      9  C   UNL     1       6.321   3.797  14.089  0.00  0.00    +0.000 C 
BRANCH   9  11
ATOM     10  C   UNL     1       5.242   3.254  12.061  0.00  0.00    +0.000 C 
ATOM     11  O   UNL     1       6.451   3.678  12.673  0.00  0.00    +0.000 OA
ENDBRANCH   9  11
ENDBRANCH   8   9
ENDBRANCH   7   8
ENDBRANCH   1   7
BRANCH   6  12
ATOM     12  C   UNL     1       3.901   3.671  17.480  0.00  0.00    +0.000 C 
BRANCH  12  13
ATOM     13  C   UNL     1       3.347   2.434  18.196  0.00  0.00    +0.000 C 
BRANCH  13  14
ATOM     14  N   UNL     1       2.636   2.792  19.410  0.00  0.00    +0.000 N 
ATOM     15  C   UNL     1       3.075   2.642  20.694  0.00  0.00    +0.000 A 
ATOM     16  C   UNL     1       2.050   3.080  21.497  0.00  0.00    +0.000 A 
ATOM     17  C   UNL     1       1.036   3.469  20.604  0.00  0.00    +0.000 A 
ATOM     18  N   UNL     1       1.390   3.297  19.329  0.00  0.00    +0.000 NA
ENDBRANCH  13  14
ENDBRANCH  12  13
ENDBRANCH   6  12
TORSDOF 7
ENDMDL
MODEL 2
REMARK VINA RESULT:      -6.2      0.671      1.019
REMARK  Name = 
REMARK  8 active torsions:
REMARK  status: ('A' for Active; 'I' for Inactive)
REMARK    1  A    between atoms: C_1  and  O_2
REMARK    2  A    between atoms: O_2  and  C_3
REMARK    3  A    between atoms: C_3  and  C_4
REMARK    4  A    between atoms: C_4  and  C_5
REMARK    5  A    between atoms: C_5  and  C_6
REMARK    6  A    between atoms: N_11  and  C_12
REMARK    7  A    between atoms: C_12  and  C_13
REMARK    8  A    between atoms: C_13  and  N_14
REMARK                            x       y       z     vdW  Elec       q    Type
REMARK                         _______ _______ _______ _____ _____    ______ ____
ROOT
ATOM      1  C   UNL     1       6.195   4.361  16.848  0.00  0.00    +0.000 C 
ATOM      2  C   UNL     1       7.609   4.605  17.411  0.00  0.00    +0.000 C 
ATOM      3  C   UNL     1       7.641   5.758  18.406  0.00  0.00    +0.000 C 
ATOM      4  C   UNL     1       6.610   5.535  19.505  0.00  0.00    +0.000 C 
ATOM      5  C   UNL     1       5.228   5.173  18.952  0.00  0.00    +0.000 C 
ATOM      6  N   UNL     1       5.291   4.059  17.987  0.00  0.00    +0.000 NA
ENDROOT
BRANCH   1   7
ATOM      7  C   UNL     1       5.682   5.505  15.940  0.00  0.00    +0.000 C 
BRANCH   7   8
ATOM      8  C   UNL     1       5.726   5.195  14.440  0.00  0.00    +0.000 C 
BRANCH   8   9
ATOM      9  C   UNL     1       6.106   3.735  14.201  0.00  0.00    +0.000 C 
BRANCH   9  11
ATOM     10  C   UNL     1       7.037   4.034  12.052  0.00  0.00    +0.000 C 
ATOM     11  O   UNL     1       5.983   3.456  12.807  0.00  0.00    +0.000 OA
ENDBRANCH   9  11
ENDBRANCH   8   9
ENDBRANCH   7   8
ENDBRANCH   1   7
BRANCH   6  12
ATOM     12  C   UNL     1       3.924   3.652  17.589  0.00  0.00    +0.000 C 
BRANCH  12  13
ATOM     13  C   UNL     1       3.437   2.356  18.249  0.00  0.00    +0.000 C 
BRANCH  13  14
ATOM     14  N   UNL     1       2.670   2.623  19.452  0.00  0.00    +0.000 N 
ATOM     15  C   UNL     1       1.353   2.973  19.526  0.00  0.00    +0.000 A 
ATOM     16  C   UNL     1       1.086   3.158  20.861  0.00  0.00    +0.000 A 
ATOM     17  C   UNL     1       2.306   2.901  21.510  0.00  0.00    +0.000 A 
ATOM     18  N   UNL     1       3.276   2.572  20.655  0.00  0.00    +0.000 NA
ENDBRANCH  13  14
ENDBRANCH  12  13
ENDBRANCH   6  12
TORSDOF 7
ENDMDL
MODEL 3
REMARK VINA RESULT:      -6.1      1.003      1.150
REMARK  Name = 
REMARK  8 active torsions:
REMARK  status: ('A' for Active; 'I' for Inactive)
REMARK    1  A    between atoms: C_1  and  O_2
REMARK    2  A    between atoms: O_2  and  C_3
REMARK    3  A    between atoms: C_3  and  C_4
REMARK    4  A    between atoms: C_4  and  C_5
REMARK    5  A    between atoms: C_5  and  C_6
REMARK    6  A    between atoms: N_11  and  C_12
REMARK    7  A    between atoms: C_12  and  C_13
REMARK    8  A    between atoms: C_13  and  N_14
REMARK                            x       y       z     vdW  Elec       q    Type
REMARK                         _______ _______ _______ _____ _____    ______ ____
ROOT
ATOM      1  C   UNL     1       6.393   4.303  16.781  0.00  0.00    +0.000 C 
ATOM      2  C   UNL     1       7.696   4.441  17.594  0.00  0.00    +0.000 C 
ATOM      3  C   UNL     1       7.689   5.672  18.490  0.00  0.00    +0.000 C 
ATOM      4  C   UNL     1       6.449   5.672  19.377  0.00  0.00    +0.000 C 
ATOM      5  C   UNL     1       5.161   5.416  18.589  0.00  0.00    +0.000 C 
ATOM      6  N   UNL     1       5.260   4.216  17.737  0.00  0.00    +0.000 NA
ENDROOT
BRANCH   1   7
ATOM      7  C   UNL     1       6.210   5.406  15.709  0.00  0.00    +0.000 C 
BRANCH   7   8
ATOM      8  C   UNL     1       6.765   5.046  14.327  0.00  0.00    +0.000 C 
BRANCH   8   9
ATOM      9  C   UNL     1       6.205   3.707  13.851  0.00  0.00    +0.000 C 
BRANCH   9  11
ATOM     10  C   UNL     1       5.009   3.164  11.890  0.00  0.00    +0.000 C 
ATOM     11  O   UNL     1       6.214   3.691  12.424  0.00  0.00    +0.000 OA
ENDBRANCH   9  11
ENDBRANCH   8   9
ENDBRANCH   7   8
ENDBRANCH   1   7
BRANCH   6  12
ATOM     12  C   UNL     1       3.951   3.928  17.108  0.00  0.00    +0.000 C 
BRANCH  12  13
ATOM     13  C   UNL     1       2.792   4.771  17.654  0.00  0.00    +0.000 C 
BRANCH  13  14
ATOM     14  N   UNL     1       1.947   4.003  18.549  0.00  0.00    +0.000 N 
ATOM     15  C   UNL     1       1.778   4.197  19.889  0.00  0.00    +0.000 A 
ATOM     16  C   UNL     1       0.922   3.208  20.310  0.00  0.00    +0.000 A 
ATOM     17  C   UNL     1       0.636   2.465  19.152  0.00  0.00    +0.000 A 
ATOM     18  N   UNL     1       1.257   2.947  18.074  0.00  0.00    +0.000 NA
ENDBRANCH  13  14
ENDBRANCH  12  13
ENDBRANCH   6  12
TORSDOF 7
ENDMDL
MODEL 4
REMARK VINA RESULT:      -6.0      1.261      1.527
REMARK  Name = 
REMARK  8 active torsions:
REMARK  status: ('A' for Active; 'I' for Inactive)
REMARK    1  A    between atoms: C_1  and  O_2
REMARK    2  A    between atoms: O_2  and  C_3
REMARK    3  A    between atoms: C_3  and  C_4
REMARK    4  A    between atoms: C_4  and  C_5
REMARK    5  A    between atoms: C_5  and  C_6
REMARK    6  A    between atoms: N_11  and  C_12
REMARK    7  A    between atoms: C_12  and  C_13
REMARK    8  A    between atoms: C_13  and  N_14
REMARK                            x       y       z     vdW  Elec       q    Type
REMARK                         _______ _______ _______ _____ _____    ______ ____
ROOT
ATOM      1  C   UNL     1       5.835   3.960  16.139  0.00  0.00    +0.000 C 
ATOM      2  C   UNL     1       7.168   4.601  16.574  0.00  0.00    +0.000 C 
ATOM      3  C   UNL     1       7.071   6.118  16.678  0.00  0.00    +0.000 C 
ATOM      4  C   UNL     1       5.915   6.511  17.589  0.00  0.00    +0.000 C 
ATOM      5  C   UNL     1       4.613   5.784  17.236  0.00  0.00    +0.000 C 
ATOM      6  N   UNL     1       4.800   4.324  17.140  0.00  0.00    +0.000 NA
ENDROOT
BRANCH   1   7
ATOM      7  C   UNL     1       5.429   4.298  14.683  0.00  0.00    +0.000 C 
BRANCH   7   8
ATOM      8  C   UNL     1       6.553   4.129  13.655  0.00  0.00    +0.000 C 
BRANCH   8   9
ATOM      9  C   UNL     1       6.039   3.416  12.406  0.00  0.00    +0.000 C 
BRANCH   9  11
ATOM     10  C   UNL     1       4.071   3.140  11.131  0.00  0.00    +0.000 C 
ATOM     11  O   UNL     1       4.613   3.488  12.396  0.00  0.00    +0.000 OA
ENDBRANCH   9  11
ENDBRANCH   8   9
ENDBRANCH   7   8
ENDBRANCH   1   7
BRANCH   6  12
ATOM     12  C   UNL     1       3.495   3.655  16.939  0.00  0.00    +0.000 C 
BRANCH  12  13
ATOM     13  C   UNL     1       3.198   2.540  17.948  0.00  0.00    +0.000 C 
BRANCH  13  14
ATOM     14  N   UNL     1       2.316   2.996  19.007  0.00  0.00    +0.000 N 
ATOM     15  C   UNL     1       1.751   4.233  19.130  0.00  0.00    +0.000 A 
ATOM     16  C   UNL     1       1.035   4.205  20.302  0.00  0.00    +0.000 A 
ATOM     17  C   UNL     1       1.233   2.912  20.814  0.00  0.00    +0.000 A 
ATOM     18  N   UNL     1       2.013   2.169  20.026  0.00  0.00    +0.000 NA
ENDBRANCH  13  14
ENDBRANCH  12  13
ENDBRANCH   6  12
TORSDOF 7
ENDMDL
MODEL 5
REMARK VINA RESULT:      -6.0      2.942      4.244
REMARK  Name = 
REMARK  8 active torsions:
REMARK  status: ('A' for Active; 'I' for Inactive)
REMARK    1  A    between atoms: C_1  and  O_2
REMARK    2  A    between atoms: O_2  and  C_3
REMARK    3  A    between atoms: C_3  and  C_4
REMARK    4  A    between atoms: C_4  and  C_5
REMARK    5  A    between atoms: C_5  and  C_6
REMARK    6  A    between atoms: N_11  and  C_12
REMARK    7  A    between atoms: C_12  and  C_13
REMARK    8  A    between atoms: C_13  and  N_14
REMARK                            x       y       z     vdW  Elec       q    Type
REMARK                         _______ _______ _______ _____ _____    ______ ____
ROOT
ATOM      1  C   UNL     1       4.668   5.768  16.981  0.00  0.00    +0.000 C 
ATOM      2  C   UNL     1       5.815   6.624  16.408  0.00  0.00    +0.000 C 
ATOM      3  C   UNL     1       6.913   6.876  17.432  0.00  0.00    +0.000 C 
ATOM      4  C   UNL     1       7.408   5.556  18.011  0.00  0.00    +0.000 C 
ATOM      5  C   UNL     1       6.263   4.650  18.474  0.00  0.00    +0.000 C 
ATOM      6  N   UNL     1       5.239   4.472  17.427  0.00  0.00    +0.000 NA
ENDROOT
BRANCH   1   7
ATOM      7  C   UNL     1       3.844   6.488  18.076  0.00  0.00    +0.000 C 
BRANCH   7   8
ATOM      8  C   UNL     1       3.158   7.777  17.611  0.00  0.00    +0.000 C 
BRANCH   8   9
ATOM      9  C   UNL     1       2.060   8.188  18.590  0.00  0.00    +0.000 C 
BRANCH   9  11
ATOM     10  C   UNL     1       1.473   7.914  20.860  0.00  0.00    +0.000 C 
ATOM     11  O   UNL     1       2.140   7.349  19.742  0.00  0.00    +0.000 OA
ENDBRANCH   9  11
ENDBRANCH   8   9
ENDBRANCH   7   8
ENDBRANCH   1   7
BRANCH   6  12
ATOM     12  C   UNL     1       4.230   3.480  17.866  0.00  0.00    +0.000 C 
BRANCH  12  13
ATOM     13  C   UNL     1       4.343   3.079  19.341  0.00  0.00    +0.000 C 
BRANCH  13  14
ATOM     14  N   UNL     1       3.060   3.152  20.016  0.00  0.00    +0.000 N 
ATOM     15  C   UNL     1       1.915   3.725  19.545  0.00  0.00    +0.000 A 
ATOM     16  C   UNL     1       0.983   3.585  20.544  0.00  0.00    +0.000 A 
ATOM     17  C   UNL     1       1.663   2.919  21.578  0.00  0.00    +0.000 A 
ATOM     18  N   UNL     1       2.931   2.650  21.260  0.00  0.00    +0.000 NA
ENDBRANCH  13  14
ENDBRANCH  12  13
ENDBRANCH   6  12
TORSDOF 7
ENDMDL
MODEL 6
REMARK VINA RESULT:      -5.9      3.414      6.445
REMARK  Name = 
REMARK  8 active torsions:
REMARK  status: ('A' for Active; 'I' for Inactive)
REMARK    1  A    between atoms: C_1  and  O_2
REMARK    2  A    between atoms: O_2  and  C_3
REMARK    3  A    between atoms: C_3  and  C_4
REMARK    4  A    between atoms: C_4  and  C_5
REMARK    5  A    between atoms: C_5  and  C_6
REMARK    6  A    between atoms: N_11  and  C_12
REMARK    7  A    between atoms: C_12  and  C_13
REMARK    8  A    between atoms: C_13  and  N_14
REMARK                            x       y       z     vdW  Elec       q    Type
REMARK                         _______ _______ _______ _____ _____    ______ ____
ROOT
ATOM      1  C   UNL     1       2.964   5.005  19.726  0.00  0.00    +0.000 C 
ATOM      2  C   UNL     1       2.292   4.122  20.797  0.00  0.00    +0.000 C 
ATOM      3  C   UNL     1       0.935   3.600  20.344  0.00  0.00    +0.000 C 
ATOM      4  C   UNL     1       1.064   2.887  19.003  0.00  0.00    +0.000 C 
ATOM      5  C   UNL     1       1.837   3.712  17.970  0.00  0.00    +0.000 C 
ATOM      6  N   UNL     1       3.130   4.190  18.495  0.00  0.00    +0.000 NA
ENDROOT
BRANCH   1   7
ATOM      7  C   UNL     1       2.234   6.348  19.481  0.00  0.00    +0.000 C 
BRANCH   7   8
ATOM      8  C   UNL     1       1.762   7.056  20.755  0.00  0.00    +0.000 C 
BRANCH   8   9
ATOM      9  C   UNL     1       1.346   8.494  20.452  0.00  0.00    +0.000 C 
BRANCH   9  11
ATOM     10  C   UNL     1       0.976   9.918  18.607  0.00  0.00    +0.000 C 
ATOM     11  O   UNL     1       1.679   8.787  19.096  0.00  0.00    +0.000 OA
ENDBRANCH   9  11
ENDBRANCH   8   9
ENDBRANCH   7   8
ENDBRANCH   1   7
BRANCH   6  12
ATOM     12  C   UNL     1       3.901   4.858  17.421  0.00  0.00    +0.000 C 
BRANCH  12  13
ATOM     13  C   UNL     1       5.317   4.303  17.227  0.00  0.00    +0.000 C 
BRANCH  13  14
ATOM     14  N   UNL     1       6.316   5.158  17.842  0.00  0.00    +0.000 N 
ATOM     15  C   UNL     1       6.859   6.295  17.318  0.00  0.00    +0.000 A 
ATOM     16  C   UNL     1       7.782   6.732  18.238  0.00  0.00    +0.000 A 
ATOM     17  C   UNL     1       7.725   5.789  19.278  0.00  0.00    +0.000 A 
ATOM     18  N   UNL     1       6.831   4.827  19.042  0.00  0.00    +0.000 NA
ENDBRANCH  13  14
ENDBRANCH  12  13
ENDBRANCH   6  12
TORSDOF 7
ENDMDL
MODEL 7
REMARK VINA RESULT:      -5.9      3.275      6.088
REMARK  Name = 
REMARK  8 active torsions:
REMARK  status: ('A' for Active; 'I' for Inactive)
REMARK    1  A    between atoms: C_1  and  O_2
REMARK    2  A    between atoms: O_2  and  C_3
REMARK    3  A    between atoms: C_3  and  C_4
REMARK    4  A    between atoms: C_4  and  C_5
REMARK    5  A    between atoms: C_5  and  C_6
REMARK    6  A    between atoms: N_11  and  C_12
REMARK    7  A    between atoms: C_12  and  C_13
REMARK    8  A    between atoms: C_13  and  N_14
REMARK                            x       y       z     vdW  Elec       q    Type
REMARK                         _______ _______ _______ _____ _____    ______ ____
ROOT
ATOM      1  C   UNL     1       2.888   5.768  19.637  0.00  0.00    +0.000 C 
ATOM      2  C   UNL     1       1.843   5.220  20.631  0.00  0.00    +0.000 C 
ATOM      3  C   UNL     1       1.515   3.755  20.373  0.00  0.00    +0.000 C 
ATOM      4  C   UNL     1       2.792   2.924  20.358  0.00  0.00    +0.000 C 
ATOM      5  C   UNL     1       3.878   3.529  19.464  0.00  0.00    +0.000 C 
ATOM      6  N   UNL     1       4.121   4.951  19.770  0.00  0.00    +0.000 NA
ENDROOT
BRANCH   1   7
ATOM      7  C   UNL     1       2.369   5.868  18.183  0.00  0.00    +0.000 C 
BRANCH   7   8
ATOM      8  C   UNL     1       1.708   7.205  17.833  0.00  0.00    +0.000 C 
BRANCH   8   9
ATOM      9  C   UNL     1       2.704   8.354  17.980  0.00  0.00    +0.000 C 
BRANCH   9  11
ATOM     10  C   UNL     1       1.376  10.241  18.479  0.00  0.00    +0.000 C 
ATOM     11  O   UNL     1       2.101   9.545  17.476  0.00  0.00    +0.000 OA
ENDBRANCH   9  11
ENDBRANCH   8   9
ENDBRANCH   7   8
ENDBRANCH   1   7
BRANCH   6  12
ATOM     12  C   UNL     1       5.272   5.453  18.984  0.00  0.00    +0.000 C 
BRANCH  12  13
ATOM     13  C   UNL     1       6.112   4.351  18.327  0.00  0.00    +0.000 C 
BRANCH  13  14
ATOM     14  N   UNL     1       6.161   4.504  16.884  0.00  0.00    +0.000 N 
ATOM     15  C   UNL     1       5.110   4.451  16.016  0.00  0.00    +0.000 A 
ATOM     16  C   UNL     1       5.648   4.608  14.762  0.00  0.00    +0.000 A 
ATOM     17  C   UNL     1       7.030   4.743  14.978  0.00  0.00    +0.000 A 
ATOM     18  N   UNL     1       7.349   4.682  16.273  0.00  0.00    +0.000 NA
ENDBRANCH  13  14
ENDBRANCH  12  13
ENDBRANCH   6  12
TORSDOF 7
ENDMDL
MODEL 8
REMARK VINA RESULT:      -5.8      1.327      1.855
REMARK  Name = 
REMARK  8 active torsions:
REMARK  status: ('A' for Active; 'I' for Inactive)
REMARK    1  A    between atoms: C_1  and  O_2
REMARK    2  A    between atoms: O_2  and  C_3
REMARK    3  A    between atoms: C_3  and  C_4
REMARK    4  A    between atoms: C_4  and  C_5
REMARK    5  A    between atoms: C_5  and  C_6
REMARK    6  A    between atoms: N_11  and  C_12
REMARK    7  A    between atoms: C_12  and  C_13
REMARK    8  A    between atoms: C_13  and  N_14
REMARK                            x       y       z     vdW  Elec       q    Type
REMARK                         _______ _______ _______ _____ _____    ______ ____
ROOT
ATOM      1  C   UNL     1       5.282   4.475  17.037  0.00  0.00    +0.000 C 
ATOM      2  C   UNL     1       5.751   5.850  17.556  0.00  0.00    +0.000 C 
ATOM      3  C   UNL     1       4.677   6.919  17.406  0.00  0.00    +0.000 C 
ATOM      4  C   UNL     1       3.381   6.461  18.065  0.00  0.00    +0.000 C 
ATOM      5  C   UNL     1       2.974   5.046  17.644  0.00  0.00    +0.000 C 
ATOM      6  N   UNL     1       4.076   4.079  17.807  0.00  0.00    +0.000 NA
ENDROOT
BRANCH   1   7
ATOM      7  C   UNL     1       5.078   4.428  15.504  0.00  0.00    +0.000 C 
BRANCH   7   8
ATOM      8  C   UNL     1       6.238   3.796  14.727  0.00  0.00    +0.000 C 
BRANCH   8   9
ATOM      9  C   UNL     1       7.015   4.861  13.956  0.00  0.00    +0.000 C 
BRANCH   9  11
ATOM     10  C   UNL     1       6.228   3.403  12.275  0.00  0.00    +0.000 C 
ATOM     11  O   UNL     1       7.146   4.436  12.600  0.00  0.00    +0.000 OA
ENDBRANCH   9  11
ENDBRANCH   8   9
ENDBRANCH   7   8
ENDBRANCH   1   7
BRANCH   6  12
ATOM     12  C   UNL     1       3.596   2.707  17.525  0.00  0.00    +0.000 C 
BRANCH  12  13
ATOM     13  C   UNL     1       3.569   1.786  18.750  0.00  0.00    +0.000 C 
BRANCH  13  14
ATOM     14  N   UNL     1       2.713   2.313  19.798  0.00  0.00    +0.000 N 
ATOM     15  C   UNL     1       1.363   2.502  19.738  0.00  0.00    +0.000 A 
ATOM     16  C   UNL     1       1.006   3.055  20.944  0.00  0.00    +0.000 A 
ATOM     17  C   UNL     1       2.210   3.164  21.660  0.00  0.00    +0.000 A 
ATOM     18  N   UNL     1       3.256   2.710  20.965  0.00  0.00    +0.000 NA
ENDBRANCH  13  14
ENDBRANCH  12  13
ENDBRANCH   6  12
TORSDOF 7
ENDMDL
MODEL 9
REMARK VINA RESULT:      -5.8      2.844      4.272
REMARK  Name = 
REMARK  8 active torsions:
REMARK  status: ('A' for Active; 'I' for Inactive)
REMARK    1  A    between atoms: C_1  and  O_2
REMARK    2  A    between atoms: O_2  and  C_3
REMARK    3  A    between atoms: C_3  and  C_4
REMARK    4  A    between atoms: C_4  and  C_5
REMARK    5  A    between atoms: C_5  and  C_6
REMARK    6  A    between atoms: N_11  and  C_12
REMARK    7  A    between atoms: C_12  and  C_13
REMARK    8  A    between atoms: C_13  and  N_14
REMARK                            x       y       z     vdW  Elec       q    Type
REMARK                         _______ _______ _______ _____ _____    ______ ____
ROOT
ATOM      1  C   UNL     1       4.447   4.660  17.043  0.00  0.00    +0.000 C 
ATOM      2  C   UNL     1       4.977   4.530  15.601  0.00  0.00    +0.000 C 
ATOM      3  C   UNL     1       6.321   5.224  15.416  0.00  0.00    +0.000 C 
ATOM      4  C   UNL     1       7.321   4.720  16.449  0.00  0.00    +0.000 C 
ATOM      5  C   UNL     1       6.755   4.734  17.872  0.00  0.00    +0.000 C 
ATOM      6  N   UNL     1       5.449   4.055  17.958  0.00  0.00    +0.000 NA
ENDROOT
BRANCH   1   7
ATOM      7  C   UNL     1       4.050   6.105  17.430  0.00  0.00    +0.000 C 
BRANCH   7   8
ATOM      8  C   UNL     1       2.599   6.263  17.895  0.00  0.00    +0.000 C 
BRANCH   8   9
ATOM      9  C   UNL     1       2.441   7.512  18.760  0.00  0.00    +0.000 C 
BRANCH   9  11
ATOM     10  C   UNL     1       1.428   8.098  20.809  0.00  0.00    +0.000 C 
ATOM     11  O   UNL     1       2.149   7.105  20.096  0.00  0.00    +0.000 OA
ENDBRANCH   9  11
ENDBRANCH   8   9
ENDBRANCH   7   8
ENDBRANCH   1   7
BRANCH   6  12
ATOM     12  C   UNL     1       5.010   3.969  19.370  0.00  0.00    +0.000 C 
BRANCH  12  13
ATOM     13  C   UNL     1       4.378   2.625  19.750  0.00  0.00    +0.000 C 
BRANCH  13  14
ATOM     14  N   UNL     1       3.004   2.786  20.190  0.00  0.00    +0.000 N 
ATOM     15  C   UNL     1       2.535   2.701  21.469  0.00  0.00    +0.000 A 
ATOM     16  C   UNL     1       1.176   2.881  21.386  0.00  0.00    +0.000 A 
ATOM     17  C   UNL     1       0.921   3.062  20.016  0.00  0.00    +0.000 A 
ATOM     18  N   UNL     1       2.034   3.007  19.281  0.00  0.00    +0.000 NA
ENDBRANCH  13  14
ENDBRANCH  12  13
ENDBRANCH   6  12
TORSDOF 7
ENDMDL
