MODEL 1
REMARK VINA RESULT:      -8.3      0.000      0.000
REMARK  Name = 
REMARK  4 active torsions:
REMARK  status: ('A' for Active; 'I' for Inactive)
REMARK    1  A    between atoms: C_2  and  C_3
REMARK    2  A    between atoms: C_8  and  C_10
REMARK    3  A    between atoms: N_18  and  C_19
REMARK    4  A    between atoms: C_19  and  C_20
REMARK                            x       y       z     vdW  Elec       q    Type
REMARK                         _______ _______ _______ _____ _____    ______ ____
ROOT
ATOM      1  C   UNL     1       2.903   3.747  18.684  0.00  0.00    +0.000 A 
ATOM      2  C   UNL     1       3.021   2.647  19.537  0.00  0.00    +0.000 A 
ATOM      3  C   UNL     1       2.480   2.637  20.833  0.00  0.00    +0.000 A 
ATOM      4  C   UNL     1       1.977   3.808  21.385  0.00  0.00    +0.000 A 
ATOM      5  C   UNL     1       2.016   4.954  20.608  0.00  0.00    +0.000 A 
ATOM      6  C   UNL     1       2.413   4.917  19.265  0.00  0.00    +0.000 A 
ATOM      7  C   UNL     1       2.266   6.287  18.741  0.00  0.00    +0.000 C 
ATOM      8  O   UNL     1       2.332   6.639  17.578  0.00  0.00    +0.000 OA
ATOM      9  N   UNL     1       1.975   7.099  19.821  0.00  0.00    +0.000 N 
ATOM     10  C   UNL     1       1.733   6.358  21.039  0.00  0.00    +0.000 C 
ENDROOT
BRANCH   1  16
ATOM     11  C   UNL     1       5.960   4.408  17.943  0.00  0.00    +0.000 C 
ATOM     12  C   UNL     1       6.791   5.296  16.997  0.00  0.00    +0.000 C 
ATOM     13  C   UNL     1       6.669   4.582  15.666  0.00  0.00    +0.000 C 
ATOM     14  C   UNL     1       5.254   4.018  15.700  0.00  0.00    +0.000 C 
ATOM     15  N   UNL     1       4.786   4.169  17.080  0.00  0.00    +0.000 N 
ATOM     16  C   UNL     1       3.494   3.700  17.332  0.00  0.00    +0.000 C 
ATOM     17  O   UNL     1       2.759   3.350  16.408  0.00  0.00    +0.000 OA
BRANCH  11  19
ATOM     18  O   UNL     1       6.967   5.440  19.927  0.00  0.00    +0.000 OA
ATOM     19  C   UNL     1       5.966   5.110  19.295  0.00  0.00    +0.000 C 
ENDBRANCH  11  19
ENDBRANCH   1  16
BRANCH   9  20
ATOM     20  C   UNL     1       1.912   8.545  19.765  0.00  0.00    +0.000 C 
BRANCH  20  21
ATOM     21  C   UNL     1       0.943   9.158  20.753  0.00  0.00    +0.000 A 
ATOM     22  C   UNL     1       1.055   8.907  22.131  0.00  0.00    +0.000 A 
ATOM     23  C   UNL     1       0.234   9.570  23.048  0.00  0.00    +0.000 A 
ATOM     24  C   UNL     1      -0.708  10.495  22.602  0.00  0.00    +0.000 A 
ATOM     25  C   UNL     1      -0.844  10.742  21.238  0.00  0.00    +0.000 A 
ATOM     26  C   UNL     1      -0.029  10.073  20.320  0.00  0.00    +0.000 A 
ENDBRANCH  20  21
ENDBRANCH   9  20
TORSDOF 4
ENDMDL
MODEL 2
REMARK VINA RESULT:      -8.3      1.083      1.507
REMARK  Name = 
REMARK  4 active torsions:
REMARK  status: ('A' for Active; 'I' for Inactive)
REMARK    1  A    between atoms: C_2  and  C_3
REMARK    2  A    between atoms: C_8  and  C_10
REMARK    3  A    between atoms: N_18  and  C_19
REMARK    4  A    between atoms: C_19  and  C_20
REMARK                            x       y       z     vdW  Elec       q    Type
REMARK                         _______ _______ _______ _____ _____    ______ ____
ROOT
ATOM      1  C   UNL     1       3.065   4.154  18.650  0.00  0.00    +0.000 A 
ATOM      2  C   UNL     1       3.117   3.153  19.623  0.00  0.00    +0.000 A 
ATOM      3  C   UNL     1       2.521   3.299  20.886  0.00  0.00    +0.000 A 
ATOM      4  C   UNL     1       2.025   4.535  21.283  0.00  0.00    +0.000 A 
ATOM      5  C   UNL     1       2.127   5.586  20.387  0.00  0.00    +0.000 A 
ATOM      6  C   UNL     1       2.581   5.392  19.076  0.00  0.00    +0.000 A 
ATOM      7  C   UNL     1       2.492   6.698  18.398  0.00  0.00    +0.000 C 
ATOM      8  O   UNL     1       2.617   6.917  17.207  0.00  0.00    +0.000 OA
ATOM      9  N   UNL     1       2.176   7.631  19.368  0.00  0.00    +0.000 N 
ATOM     10  C   UNL     1       1.863   7.035  20.647  0.00  0.00    +0.000 C 
ENDROOT
BRANCH   1  16
ATOM     11  C   UNL     1       6.196   4.513  18.018  0.00  0.00    +0.000 C 
ATOM     12  C   UNL     1       7.139   5.250  17.047  0.00  0.00    +0.000 C 
ATOM     13  C   UNL     1       7.021   4.434  15.776  0.00  0.00    +0.000 C 
ATOM     14  C   UNL     1       5.565   3.984  15.781  0.00  0.00    +0.000 C 
ATOM     15  N   UNL     1       5.047   4.291  17.117  0.00  0.00    +0.000 N 
ATOM     16  C   UNL     1       3.712   3.945  17.340  0.00  0.00    +0.000 C 
ATOM     17  O   UNL     1       2.994   3.573  16.410  0.00  0.00    +0.000 OA
BRANCH  11  19
ATOM     18  O   UNL     1       7.155   5.478  20.060  0.00  0.00    +0.000 OA
ATOM     19  C   UNL     1       6.196   5.328  19.307  0.00  0.00    +0.000 C 
ENDBRANCH  11  19
ENDBRANCH   1  16
BRANCH   9  20
ATOM     20  C   UNL     1       2.153   9.063  19.149  0.00  0.00    +0.000 C 
BRANCH  20  21
ATOM     21  C   UNL     1       0.761   9.658  19.118  0.00  0.00    +0.000 A 
ATOM     22  C   UNL     1       0.241  10.346  20.227  0.00  0.00    +0.000 A 
ATOM     23  C   UNL     1      -0.995  10.996  20.149  0.00  0.00    +0.000 A 
ATOM     24  C   UNL     1      -1.725  10.971  18.963  0.00  0.00    +0.000 A 
ATOM     25  C   UNL     1      -1.231  10.278  17.860  0.00  0.00    +0.000 A 
ATOM     26  C   UNL     1       0.000   9.622  17.939  0.00  0.00    +0.000 A 
ENDBRANCH  20  21
ENDBRANCH   9  20
TORSDOF 4
ENDMDL
MODEL 3
REMARK VINA RESULT:      -7.9      0.832      2.289
REMARK  Name = 
REMARK  4 active torsions:
REMARK  status: ('A' for Active; 'I' for Inactive)
REMARK    1  A    between atoms: C_2  and  C_3
REMARK    2  A    between atoms: C_8  and  C_10
REMARK    3  A    between atoms: N_18  and  C_19
REMARK    4  A    between atoms: C_19  and  C_20
REMARK                            x       y       z     vdW  Elec       q    Type
REMARK                         _______ _______ _______ _____ _____    ______ ____
ROOT
ATOM      1  C   UNL     1       4.103   4.457  19.665  0.00  0.00    +0.000 A 
ATOM      2  C   UNL     1       3.915   3.317  20.451  0.00  0.00    +0.000 A 
ATOM      3  C   UNL     1       2.698   3.035  21.091  0.00  0.00    +0.000 A 
ATOM      4  C   UNL     1       1.692   3.993  21.124  0.00  0.00    +0.000 A 
ATOM      5  C   UNL     1       1.934   5.202  20.495  0.00  0.00    +0.000 A 
ATOM      6  C   UNL     1       3.088   5.413  19.729  0.00  0.00    +0.000 A 
ATOM      7  C   UNL     1       2.978   6.769  19.160  0.00  0.00    +0.000 C 
ATOM      8  O   UNL     1       3.680   7.261  18.296  0.00  0.00    +0.000 OA
ATOM      9  N   UNL     1       1.880   7.362  19.752  0.00  0.00    +0.000 N 
ATOM     10  C   UNL     1       1.110   6.448  20.565  0.00  0.00    +0.000 C 
ENDROOT
BRANCH   1  16
ATOM     11  C   UNL     1       4.712   4.236  16.516  0.00  0.00    +0.000 C 
ATOM     12  C   UNL     1       5.680   3.547  15.536  0.00  0.00    +0.000 C 
ATOM     13  C   UNL     1       6.947   4.364  15.679  0.00  0.00    +0.000 C 
ATOM     14  C   UNL     1       6.951   4.751  17.153  0.00  0.00    +0.000 C 
ATOM     15  N   UNL     1       5.620   4.415  17.667  0.00  0.00    +0.000 N 
ATOM     16  C   UNL     1       5.407   4.701  19.017  0.00  0.00    +0.000 C 
ATOM     17  O   UNL     1       6.339   5.047  19.744  0.00  0.00    +0.000 OA
BRANCH  11  19
ATOM     18  O   UNL     1       2.334   3.782  16.913  0.00  0.00    +0.000 OA
ATOM     19  C   UNL     1       3.428   3.415  16.491  0.00  0.00    +0.000 C 
ENDBRANCH  11  19
ENDBRANCH   1  16
BRANCH   9  20
ATOM     20  C   UNL     1       1.516   8.755  19.590  0.00  0.00    +0.000 C 
BRANCH  20  21
ATOM     21  C   UNL     1       0.818   9.353  20.793  0.00  0.00    +0.000 A 
ATOM     22  C   UNL     1      -0.263  10.238  20.640  0.00  0.00    +0.000 A 
ATOM     23  C   UNL     1      -0.978  10.691  21.753  0.00  0.00    +0.000 A 
ATOM     24  C   UNL     1      -0.626  10.265  23.032  0.00  0.00    +0.000 A 
ATOM     25  C   UNL     1       0.454   9.402  23.201  0.00  0.00    +0.000 A 
ATOM     26  C   UNL     1       1.175   8.955  22.090  0.00  0.00    +0.000 A 
ENDBRANCH  20  21
ENDBRANCH   9  20
TORSDOF 4
ENDMDL
MODEL 4
REMARK VINA RESULT:      -7.6      3.184      7.831
REMARK  Name = 
REMARK  4 active torsions:
REMARK  status: ('A' for Active; 'I' for Inactive)
REMARK    1  A    between atoms: C_2  and  C_3
REMARK    2  A    between atoms: C_8  and  C_10
REMARK    3  A    between atoms: N_18  and  C_19
REMARK    4  A    between atoms: C_19  and  C_20
REMARK                            x       y       z     vdW  Elec       q    Type
REMARK                         _______ _______ _______ _____ _____    ______ ____
ROOT
ATOM      1  C   UNL     1       0.174  10.310  20.123  0.00  0.00    +0.000 A 
ATOM      2  C   UNL     1      -0.390  10.235  21.399  0.00  0.00    +0.000 A 
ATOM      3  C   UNL     1       0.074   9.339  22.376  0.00  0.00    +0.000 A 
ATOM      4  C   UNL     1       0.989   8.351  22.036  0.00  0.00    +0.000 A 
ATOM      5  C   UNL     1       1.426   8.304  20.723  0.00  0.00    +0.000 A 
ATOM      6  C   UNL     1       1.077   9.296  19.797  0.00  0.00    +0.000 A 
ATOM      7  C   UNL     1       1.768   8.964  18.538  0.00  0.00    +0.000 C 
ATOM      8  O   UNL     1       1.874   9.668  17.551  0.00  0.00    +0.000 OA
ATOM      9  N   UNL     1       2.335   7.715  18.711  0.00  0.00    +0.000 N 
ATOM     10  C   UNL     1       2.234   7.230  20.069  0.00  0.00    +0.000 C 
ENDROOT
BRANCH   1  16
ATOM     11  C   UNL     1       1.172  13.339  19.719  0.00  0.00    +0.000 C 
ATOM     12  C   UNL     1       0.622  14.776  19.663  0.00  0.00    +0.000 C 
ATOM     13  C   UNL     1      -0.007  14.846  18.286  0.00  0.00    +0.000 C 
ATOM     14  C   UNL     1      -0.556  13.440  18.080  0.00  0.00    +0.000 C 
ATOM     15  N   UNL     1       0.018  12.616  19.147  0.00  0.00    +0.000 N 
ATOM     16  C   UNL     1      -0.357  11.270  19.136  0.00  0.00    +0.000 C 
ATOM     17  O   UNL     1      -1.243  10.868  18.380  0.00  0.00    +0.000 OA
BRANCH  11  19
ATOM     18  O   UNL     1       1.707  13.992  22.021  0.00  0.00    +0.000 OA
ATOM     19  C   UNL     1       1.753  13.162  21.117  0.00  0.00    +0.000 C 
ENDBRANCH  11  19
ENDBRANCH   1  16
BRANCH   9  20
ATOM     20  C   UNL     1       2.969   6.952  17.655  0.00  0.00    +0.000 C 
BRANCH  20  21
ATOM     21  C   UNL     1       2.922   5.453  17.867  0.00  0.00    +0.000 A 
ATOM     22  C   UNL     1       1.705   4.753  17.835  0.00  0.00    +0.000 A 
ATOM     23  C   UNL     1       1.680   3.358  17.911  0.00  0.00    +0.000 A 
ATOM     24  C   UNL     1       2.870   2.641  18.015  0.00  0.00    +0.000 A 
ATOM     25  C   UNL     1       4.085   3.322  18.066  0.00  0.00    +0.000 A 
ATOM     26  C   UNL     1       4.110   4.718  17.999  0.00  0.00    +0.000 A 
ENDBRANCH  20  21
ENDBRANCH   9  20
TORSDOF 4
ENDMDL
MODEL 5
REMARK VINA RESULT:      -7.5      2.019      3.314
REMARK  Name = 
REMARK  4 active torsions:
REMARK  status: ('A' for Active; 'I' for Inactive)
REMARK    1  A    between atoms: C_2  and  C_3
REMARK    2  A    between atoms: C_8  and  C_10
REMARK    3  A    between atoms: N_18  and  C_19
REMARK    4  A    between atoms: C_19  and  C_20
REMARK                            x       y       z     vdW  Elec       q    Type
REMARK                         _______ _______ _______ _____ _____    ______ ____
ROOT
ATOM      1  C   UNL     1       3.472   6.284  18.699  0.00  0.00    +0.000 A 
ATOM      2  C   UNL     1       3.600   5.245  19.625  0.00  0.00    +0.000 A 
ATOM      3  C   UNL     1       2.673   5.041  20.661  0.00  0.00    +0.000 A 
ATOM      4  C   UNL     1       1.697   5.995  20.919  0.00  0.00    +0.000 A 
ATOM      5  C   UNL     1       1.670   7.121  20.114  0.00  0.00    +0.000 A 
ATOM      6  C   UNL     1       2.497   7.240  18.990  0.00  0.00    +0.000 A 
ATOM      7  C   UNL     1       2.152   8.518  18.342  0.00  0.00    +0.000 C 
ATOM      8  O   UNL     1       2.509   8.905  17.244  0.00  0.00    +0.000 OA
ATOM      9  N   UNL     1       1.287   9.178  19.194  0.00  0.00    +0.000 N 
ATOM     10  C   UNL     1       0.866   8.366  20.314  0.00  0.00    +0.000 C 
ENDROOT
BRANCH   1  16
ATOM     11  C   UNL     1       4.097   4.175  16.355  0.00  0.00    +0.000 C 
ATOM     12  C   UNL     1       5.276   3.407  15.728  0.00  0.00    +0.000 C 
ATOM     13  C   UNL     1       5.969   4.468  14.898  0.00  0.00    +0.000 C 
ATOM     14  C   UNL     1       5.785   5.735  15.724  0.00  0.00    +0.000 C 
ATOM     15  N   UNL     1       4.801   5.409  16.759  0.00  0.00    +0.000 N 
ATOM     16  C   UNL     1       4.478   6.451  17.632  0.00  0.00    +0.000 C 
ATOM     17  O   UNL     1       5.118   7.503  17.622  0.00  0.00    +0.000 OA
BRANCH  11  19
ATOM     18  O   UNL     1       2.225   2.818  17.175  0.00  0.00    +0.000 OA
ATOM     19  C   UNL     1       3.393   3.187  17.278  0.00  0.00    +0.000 C 
ENDBRANCH  11  19
ENDBRANCH   1  16
BRANCH   9  20
ATOM     20  C   UNL     1       0.834  10.541  19.007  0.00  0.00    +0.000 C 
BRANCH  20  21
ATOM     21  C   UNL     1      -0.635  10.660  18.659  0.00  0.00    +0.000 A 
ATOM     22  C   UNL     1      -1.459  11.598  19.301  0.00  0.00    +0.000 A 
ATOM     23  C   UNL     1      -2.783  11.785  18.892  0.00  0.00    +0.000 A 
ATOM     24  C   UNL     1      -3.300  11.041  17.833  0.00  0.00    +0.000 A 
ATOM     25  C   UNL     1      -2.500  10.093  17.198  0.00  0.00    +0.000 A 
ATOM     26  C   UNL     1      -1.179   9.900  17.612  0.00  0.00    +0.000 A 
ENDBRANCH  20  21
ENDBRANCH   9  20
TORSDOF 4
ENDMDL
MODEL 6
REMARK VINA RESULT:      -7.5      6.055      9.337
REMARK  Name = 
REMARK  4 active torsions:
REMARK  status: ('A' for Active; 'I' for Inactive)
REMARK    1  A    between atoms: C_2  and  C_3
REMARK    2  A    between atoms: C_8  and  C_10
REMARK    3  A    between atoms: N_18  and  C_19
REMARK    4  A    between atoms: C_19  and  C_20
REMARK                            x       y       z     vdW  Elec       q    Type
REMARK                         _______ _______ _______ _____ _____    ______ ____
ROOT
ATOM      1  C   UNL     1       0.655  10.862  20.521  0.00  0.00    +0.000 A 
ATOM      2  C   UNL     1       0.471   9.759  19.685  0.00  0.00    +0.000 A 
ATOM      3  C   UNL     1       1.162   9.608  18.472  0.00  0.00    +0.000 A 
ATOM      4  C   UNL     1       1.914  10.660  17.965  0.00  0.00    +0.000 A 
ATOM      5  C   UNL     1       1.962  11.831  18.704  0.00  0.00    +0.000 A 
ATOM      6  C   UNL     1       1.398  11.914  19.983  0.00  0.00    +0.000 A 
ATOM      7  C   UNL     1       1.697  13.266  20.491  0.00  0.00    +0.000 C 
ATOM      8  O   UNL     1       1.543  13.674  21.628  0.00  0.00    +0.000 OA
ATOM      9  N   UNL     1       2.250  13.974  19.442  0.00  0.00    +0.000 N 
ATOM     10  C   UNL     1       2.521  13.152  18.283  0.00  0.00    +0.000 C 
ENDROOT
BRANCH   1  16
ATOM     11  C   UNL     1      -2.257  12.178  20.866  0.00  0.00    +0.000 C 
ATOM     12  C   UNL     1      -2.992  13.241  21.705  0.00  0.00    +0.000 C 
ATOM     13  C   UNL     1      -3.200  12.541  23.032  0.00  0.00    +0.000 C 
ATOM     14  C   UNL     1      -1.947  11.685  23.177  0.00  0.00    +0.000 C 
ATOM     15  N   UNL     1      -1.283  11.708  21.872  0.00  0.00    +0.000 N 
ATOM     16  C   UNL     1      -0.102  10.967  21.784  0.00  0.00    +0.000 C 
ATOM     17  O   UNL     1       0.416  10.484  22.792  0.00  0.00    +0.000 OA
BRANCH  11  19
ATOM     18  O   UNL     1      -1.774  12.258  18.462  0.00  0.00    +0.000 OA
ATOM     19  C   UNL     1      -1.937  12.841  19.531  0.00  0.00    +0.000 C 
ENDBRANCH  11  19
ENDBRANCH   1  16
BRANCH   9  20
ATOM     20  C   UNL     1       2.539  15.394  19.473  0.00  0.00    +0.000 C 
BRANCH  20  21
ATOM     21  C   UNL     1       1.590  16.233  18.644  0.00  0.00    +0.000 A 
ATOM     22  C   UNL     1       0.200  16.143  18.817  0.00  0.00    +0.000 A 
ATOM     23  C   UNL     1      -0.663  17.005  18.134  0.00  0.00    +0.000 A 
ATOM     24  C   UNL     1      -0.149  17.972  17.273  0.00  0.00    +0.000 A 
ATOM     25  C   UNL     1       1.227  18.062  17.076  0.00  0.00    +0.000 A 
ATOM     26  C   UNL     1       2.090  17.195  17.752  0.00  0.00    +0.000 A 
ENDBRANCH  20  21
ENDBRANCH   9  20
TORSDOF 4
ENDMDL
MODEL 7
REMARK VINA RESULT:      -7.4      3.385      8.012
REMARK  Name = 
REMARK  4 active torsions:
REMARK  status: ('A' for Active; 'I' for Inactive)
REMARK    1  A    between atoms: C_2  and  C_3
REMARK    2  A    between atoms: C_8  and  C_10
REMARK    3  A    between atoms: N_18  and  C_19
REMARK    4  A    between atoms: C_19  and  C_20
REMARK                            x       y       z     vdW  Elec       q    Type
REMARK                         _______ _______ _______ _____ _____    ______ ____
ROOT
ATOM      1  C   UNL     1      -0.280  10.964  20.714  0.00  0.00    +0.000 A 
ATOM      2  C   UNL     1      -0.997  11.092  21.906  0.00  0.00    +0.000 A 
ATOM      3  C   UNL     1      -0.727  10.302  23.035  0.00  0.00    +0.000 A 
ATOM      4  C   UNL     1       0.139   9.221  22.937  0.00  0.00    +0.000 A 
ATOM      5  C   UNL     1       0.725   8.976  21.706  0.00  0.00    +0.000 A 
ATOM      6  C   UNL     1       0.570   9.860  20.631  0.00  0.00    +0.000 A 
ATOM      7  C   UNL     1       1.378   9.323  19.521  0.00  0.00    +0.000 C 
ATOM      8  O   UNL     1       1.658   9.886  18.478  0.00  0.00    +0.000 OA
ATOM      9  N   UNL     1       1.817   8.074  19.913  0.00  0.00    +0.000 N 
ATOM     10  C   UNL     1       1.516   7.775  21.296  0.00  0.00    +0.000 C 
ENDROOT
BRANCH   1  16
ATOM     11  C   UNL     1       0.925  13.888  20.134  0.00  0.00    +0.000 C 
ATOM     12  C   UNL     1       0.465  15.328  19.838  0.00  0.00    +0.000 C 
ATOM     13  C   UNL     1       0.049  15.259  18.383  0.00  0.00    +0.000 C 
ATOM     14  C   UNL     1      -0.538  13.859  18.252  0.00  0.00    +0.000 C 
ATOM     15  N   UNL     1      -0.170  13.145  19.478  0.00  0.00    +0.000 N 
ATOM     16  C   UNL     1      -0.609  11.821  19.558  0.00  0.00    +0.000 C 
ATOM     17  O   UNL     1      -1.395  11.366  18.726  0.00  0.00    +0.000 OA
BRANCH  11  19
ATOM     18  O   UNL     1       0.530  14.137  22.542  0.00  0.00    +0.000 OA
ATOM     19  C   UNL     1       1.285  13.855  21.615  0.00  0.00    +0.000 C 
ENDBRANCH  11  19
ENDBRANCH   1  16
BRANCH   9  20
ATOM     20  C   UNL     1       2.509   7.140  19.048  0.00  0.00    +0.000 C 
BRANCH  20  21
ATOM     21  C   UNL     1       2.068   5.701  19.217  0.00  0.00    +0.000 A 
ATOM     22  C   UNL     1       1.745   5.185  20.483  0.00  0.00    +0.000 A 
ATOM     23  C   UNL     1       1.225   3.894  20.617  0.00  0.00    +0.000 A 
ATOM     24  C   UNL     1       1.016   3.104  19.489  0.00  0.00    +0.000 A 
ATOM     25  C   UNL     1       1.348   3.595  18.229  0.00  0.00    +0.000 A 
ATOM     26  C   UNL     1       1.876   4.882  18.095  0.00  0.00    +0.000 A 
ENDBRANCH  20  21
ENDBRANCH   9  20
TORSDOF 4
ENDMDL
MODEL 8
REMARK VINA RESULT:      -7.4      3.382      7.884
REMARK  Name = 
REMARK  4 active torsions:
REMARK  status: ('A' for Active; 'I' for Inactive)
REMARK    1  A    between atoms: C_2  and  C_3
REMARK    2  A    between atoms: C_8  and  C_10
REMARK    3  A    between atoms: N_18  and  C_19
REMARK    4  A    between atoms: C_19  and  C_20
REMARK                            x       y       z     vdW  Elec       q    Type
REMARK                         _______ _______ _______ _____ _____    ______ ____
ROOT
ATOM      1  C   UNL     1      -0.044  10.824  20.529  0.00  0.00    +0.000 A 
ATOM      2  C   UNL     1      -0.623  10.712  21.795  0.00  0.00    +0.000 A 
ATOM      3  C   UNL     1      -0.222   9.739  22.724  0.00  0.00    +0.000 A 
ATOM      4  C   UNL     1       0.637   8.719  22.335  0.00  0.00    +0.000 A 
ATOM      5  C   UNL     1       1.083   8.718  21.024  0.00  0.00    +0.000 A 
ATOM      6  C   UNL     1       0.801   9.779  20.153  0.00  0.00    +0.000 A 
ATOM      7  C   UNL     1       1.484   9.476  18.882  0.00  0.00    +0.000 C 
ATOM      8  O   UNL     1       1.641  10.227  17.936  0.00  0.00    +0.000 OA
ATOM      9  N   UNL     1       1.975   8.189  18.988  0.00  0.00    +0.000 N 
ATOM     10  C   UNL     1       1.833   7.636  20.317  0.00  0.00    +0.000 C 
ENDROOT
BRANCH   1  16
ATOM     11  C   UNL     1       1.477  13.581  19.878  0.00  0.00    +0.000 C 
ATOM     12  C   UNL     1       1.227  15.101  19.850  0.00  0.00    +0.000 C 
ATOM     13  C   UNL     1       0.430  15.290  18.575  0.00  0.00    +0.000 C 
ATOM     14  C   UNL     1      -0.416  14.025  18.499  0.00  0.00    +0.000 C 
ATOM     15  N   UNL     1       0.129  13.108  19.503  0.00  0.00    +0.000 N 
ATOM     16  C   UNL     1      -0.508  11.867  19.593  0.00  0.00    +0.000 C 
ATOM     17  O   UNL     1      -1.558  11.652  18.986  0.00  0.00    +0.000 OA
BRANCH  11  19
ATOM     18  O   UNL     1       2.662  14.144  21.950  0.00  0.00    +0.000 OA
ATOM     19  C   UNL     1       2.208  13.297  21.185  0.00  0.00    +0.000 C 
ENDBRANCH  11  19
ENDBRANCH   1  16
BRANCH   9  20
ATOM     20  C   UNL     1       2.574   7.449  17.897  0.00  0.00    +0.000 C 
BRANCH  20  21
ATOM     21  C   UNL     1       2.803   5.983  18.199  0.00  0.00    +0.000 A 
ATOM     22  C   UNL     1       3.933   5.557  18.917  0.00  0.00    +0.000 A 
ATOM     23  C   UNL     1       4.077   4.220  19.296  0.00  0.00    +0.000 A 
ATOM     24  C   UNL     1       3.092   3.290  18.968  0.00  0.00    +0.000 A 
ATOM     25  C   UNL     1       1.974   3.693  18.242  0.00  0.00    +0.000 A 
ATOM     26  C   UNL     1       1.834   5.028  17.855  0.00  0.00    +0.000 A 
ENDBRANCH  20  21
ENDBRANCH   9  20
TORSDOF 4
ENDMDL
MODEL 9
REMARK VINA RESULT:      -7.3      2.062      3.279
REMARK  Name = 
REMARK  4 active torsions:
REMARK  status: ('A' for Active; 'I' for Inactive)
REMARK    1  A    between atoms: C_2  and  C_3
REMARK    2  A    between atoms: C_8  and  C_10
REMARK    3  A    between atoms: N_18  and  C_19
REMARK    4  A    between atoms: C_19  and  C_20
REMARK                            x       y       z     vdW  Elec       q    Type
REMARK                         _______ _______ _______ _____ _____    ______ ____
ROOT
ATOM      1  C   UNL     1       3.471   6.301  18.713  0.00  0.00    +0.000 A 
ATOM      2  C   UNL     1       3.577   5.283  19.664  0.00  0.00    +0.000 A 
ATOM      3  C   UNL     1       2.643   5.119  20.699  0.00  0.00    +0.000 A 
ATOM      4  C   UNL     1       1.681   6.094  20.930  0.00  0.00    +0.000 A 
ATOM      5  C   UNL     1       1.676   7.202  20.098  0.00  0.00    +0.000 A 
ATOM      6  C   UNL     1       2.511   7.280  18.975  0.00  0.00    +0.000 A 
ATOM      7  C   UNL     1       2.190   8.548  18.296  0.00  0.00    +0.000 C 
ATOM      8  O   UNL     1       2.559   8.903  17.191  0.00  0.00    +0.000 OA
ATOM      9  N   UNL     1       1.332   9.242  19.128  0.00  0.00    +0.000 N 
ATOM     10  C   UNL     1       0.892   8.464  20.264  0.00  0.00    +0.000 C 
ENDROOT
BRANCH   1  16
ATOM     11  C   UNL     1       4.039   4.150  16.393  0.00  0.00    +0.000 C 
ATOM     12  C   UNL     1       5.196   3.340  15.777  0.00  0.00    +0.000 C 
ATOM     13  C   UNL     1       5.923   4.371  14.939  0.00  0.00    +0.000 C 
ATOM     14  C   UNL     1       5.776   5.651  15.751  0.00  0.00    +0.000 C 
ATOM     15  N   UNL     1       4.779   5.366  16.786  0.00  0.00    +0.000 N 
ATOM     16  C   UNL     1       4.485   6.427  17.648  0.00  0.00    +0.000 C 
ATOM     17  O   UNL     1       5.156   7.459  17.628  0.00  0.00    +0.000 OA
BRANCH  11  19
ATOM     18  O   UNL     1       3.768   2.166  17.810  0.00  0.00    +0.000 OA
ATOM     19  C   UNL     1       3.302   3.194  17.324  0.00  0.00    +0.000 C 
ENDBRANCH  11  19
ENDBRANCH   1  16
BRANCH   9  20
ATOM     20  C   UNL     1       0.903  10.608  18.906  0.00  0.00    +0.000 C 
BRANCH  20  21
ATOM     21  C   UNL     1      -0.548  10.738  18.494  0.00  0.00    +0.000 A 
ATOM     22  C   UNL     1      -1.114   9.871  17.544  0.00  0.00    +0.000 A 
ATOM     23  C   UNL     1      -2.481   9.919  17.257  0.00  0.00    +0.000 A 
ATOM     24  C   UNL     1      -3.303  10.830  17.917  0.00  0.00    +0.000 A 
ATOM     25  C   UNL     1      -2.754  11.709  18.848  0.00  0.00    +0.000 A 
ATOM     26  C   UNL     1      -1.386  11.667  19.130  0.00  0.00    +0.000 A 
ENDBRANCH  20  21
ENDBRANCH   9  20
TORSDOF 4
ENDMDL
