MODEL 1
REMARK VINA RESULT:      -8.9      0.000      0.000
REMARK  Name = 
REMARK  4 active torsions:
REMARK  status: ('A' for Active; 'I' for Inactive)
REMARK    1  A    between atoms: C_1  and  C_2
REMARK    2  A    between atoms: C_4  and  C_5
REMARK    3  A    between atoms: C_10  and  N_11
REMARK    4  A    between atoms: N_14  and  C_15
REMARK                            x       y       z     vdW  Elec       q    Type
REMARK                         _______ _______ _______ _____ _____    ______ ____
ROOT
ATOM      1  C   UNL     1       2.304   6.651  19.360  0.00  0.00    +0.000 A 
ATOM      2  N   UNL     1       1.920   6.520  20.640  0.00  0.00    +0.000 NA
ATOM      3  N   UNL     1       1.491   7.746  20.994  0.00  0.00    +0.000 N 
ATOM      4  C   UNL     1       1.544   8.674  19.992  0.00  0.00    +0.000 A 
ATOM      5  C   UNL     1       1.189  10.029  19.924  0.00  0.00    +0.000 A 
ATOM      6  C   UNL     1       1.391  10.631  18.686  0.00  0.00    +0.000 A 
ATOM      7  N   UNL     1       1.888   9.961  17.619  0.00  0.00    +0.000 NA
ATOM      8  C   UNL     1       2.211   8.657  17.704  0.00  0.00    +0.000 A 
ATOM      9  C   UNL     1       2.063   7.980  18.905  0.00  0.00    +0.000 A 
ATOM     10  H   UNL     1       1.160   7.877  21.945  0.00  0.00    +0.000 HD
ENDROOT
BRANCH   1  14
ATOM     11  C   UNL     1       6.120   4.438  16.986  0.00  0.00    +0.000 C 
ATOM     12  C   UNL     1       4.686   4.470  17.427  0.00  0.00    +0.000 A 
ATOM     13  C   UNL     1       4.209   5.508  18.220  0.00  0.00    +0.000 A 
ATOM     14  C   UNL     1       2.857   5.532  18.589  0.00  0.00    +0.000 A 
ATOM     15  C   UNL     1       2.043   4.477  18.184  0.00  0.00    +0.000 A 
ATOM     16  C   UNL     1       2.602   3.475  17.408  0.00  0.00    +0.000 A 
ATOM     17  N   UNL     1       3.894   3.457  17.013  0.00  0.00    +0.000 NA
ENDBRANCH   1  14
BRANCH   6  18
ATOM     18  N   UNL     1       1.072  11.987  18.510  0.00  0.00    +0.000 N 
ATOM     19  C   UNL     1      -0.186  12.550  18.446  0.00  0.00    +0.000 C 
ATOM     20  O   UNL     1      -0.315  13.762  18.278  0.00  0.00    +0.000 OA
ATOM     21  N   UNL     1      -1.222  11.682  18.573  0.00  0.00    +0.000 N 
ATOM     22  H   UNL     1       1.818  12.661  18.418  0.00  0.00    +0.000 HD
ATOM     23  H   UNL     1      -0.945  10.712  18.672  0.00  0.00    +0.000 HD
BRANCH  21  24
ATOM     24  C   UNL     1      -2.645  11.950  18.559  0.00  0.00    +0.000 C 
ATOM     25  C   UNL     1      -3.365  10.673  18.077  0.00  0.00    +0.000 C 
ATOM     26  C   UNL     1      -4.777  10.929  17.547  0.00  0.00    +0.000 C 
ATOM     27  C   UNL     1      -5.729  11.525  18.578  0.00  0.00    +0.000 C 
ATOM     28  O   UNL     1      -5.319  12.837  18.981  0.00  0.00    +0.000 OA
ATOM     29  C   UNL     1      -4.496  12.760  20.074  0.00  0.00    +0.000 A 
ATOM     30  C   UNL     1      -5.026  13.139  21.307  0.00  0.00    +0.000 A 
ATOM     31  C   UNL     1      -4.246  13.028  22.456  0.00  0.00    +0.000 A 
ATOM     32  C   UNL     1      -2.938  12.559  22.361  0.00  0.00    +0.000 A 
ATOM     33  C   UNL     1      -2.401  12.221  21.114  0.00  0.00    +0.000 A 
ATOM     34  C   UNL     1      -3.169  12.325  19.940  0.00  0.00    +0.000 A 
ENDBRANCH  21  24
ENDBRANCH   6  18
TORSDOF 3
ENDMDL
MODEL 2
REMARK VINA RESULT:      -8.8      0.421      1.204
REMARK  Name = 
REMARK  4 active torsions:
REMARK  status: ('A' for Active; 'I' for Inactive)
REMARK    1  A    between atoms: C_1  and  C_2
REMARK    2  A    between atoms: C_4  and  C_5
REMARK    3  A    between atoms: C_10  and  N_11
REMARK    4  A    between atoms: N_14  and  C_15
REMARK                            x       y       z     vdW  Elec       q    Type
REMARK                         _______ _______ _______ _____ _____    ______ ____
ROOT
ATOM      1  C   UNL     1       2.360   6.705  19.489  0.00  0.00    +0.000 A 
ATOM      2  N   UNL     1       1.848   6.560  20.723  0.00  0.00    +0.000 NA
ATOM      3  N   UNL     1       1.337   7.769  21.024  0.00  0.00    +0.000 N 
ATOM      4  C   UNL     1       1.460   8.698  20.029  0.00  0.00    +0.000 A 
ATOM      5  C   UNL     1       1.063  10.038  19.919  0.00  0.00    +0.000 A 
ATOM      6  C   UNL     1       1.372  10.648  18.706  0.00  0.00    +0.000 A 
ATOM      7  N   UNL     1       2.003   9.996  17.701  0.00  0.00    +0.000 NA
ATOM      8  C   UNL     1       2.365   8.705  17.824  0.00  0.00    +0.000 A 
ATOM      9  C   UNL     1       2.117   8.023  19.006  0.00  0.00    +0.000 A 
ATOM     10  H   UNL     1       0.904   7.887  21.934  0.00  0.00    +0.000 HD
ENDROOT
BRANCH   1  14
ATOM     11  C   UNL     1       2.445   1.988  17.808  0.00  0.00    +0.000 C 
ATOM     12  C   UNL     1       3.088   3.330  17.991  0.00  0.00    +0.000 A 
ATOM     13  C   UNL     1       2.396   4.374  18.597  0.00  0.00    +0.000 A 
ATOM     14  C   UNL     1       3.033   5.608  18.786  0.00  0.00    +0.000 A 
ATOM     15  C   UNL     1       4.333   5.760  18.311  0.00  0.00    +0.000 A 
ATOM     16  C   UNL     1       4.944   4.674  17.706  0.00  0.00    +0.000 A 
ATOM     17  N   UNL     1       4.357   3.468  17.549  0.00  0.00    +0.000 NA
ENDBRANCH   1  14
BRANCH   6  18
ATOM     18  N   UNL     1       1.022  11.990  18.493  0.00  0.00    +0.000 N 
ATOM     19  C   UNL     1      -0.248  12.514  18.361  0.00  0.00    +0.000 C 
ATOM     20  O   UNL     1      -0.404  13.719  18.166  0.00  0.00    +0.000 OA
ATOM     21  N   UNL     1      -1.262  11.617  18.456  0.00  0.00    +0.000 N 
ATOM     22  H   UNL     1       1.752  12.684  18.423  0.00  0.00    +0.000 HD
ATOM     23  H   UNL     1      -0.962  10.658  18.584  0.00  0.00    +0.000 HD
BRANCH  21  24
ATOM     24  C   UNL     1      -2.691  11.842  18.371  0.00  0.00    +0.000 C 
ATOM     25  C   UNL     1      -3.354  10.525  17.918  0.00  0.00    +0.000 C 
ATOM     26  C   UNL     1      -4.749  10.716  17.320  0.00  0.00    +0.000 C 
ATOM     27  C   UNL     1      -5.760  11.327  18.284  0.00  0.00    +0.000 C 
ATOM     28  O   UNL     1      -5.403  12.667  18.644  0.00  0.00    +0.000 OA
ATOM     29  C   UNL     1      -4.625  12.663  19.772  0.00  0.00    +0.000 A 
ATOM     30  C   UNL     1      -5.217  13.078  20.965  0.00  0.00    +0.000 A 
ATOM     31  C   UNL     1      -4.483  13.040  22.148  0.00  0.00    +0.000 A 
ATOM     32  C   UNL     1      -3.160  12.607  22.127  0.00  0.00    +0.000 A 
ATOM     33  C   UNL     1      -2.562  12.231  20.920  0.00  0.00    +0.000 A 
ATOM     34  C   UNL     1      -3.283  12.262  19.712  0.00  0.00    +0.000 A 
ENDBRANCH  21  24
ENDBRANCH   6  18
TORSDOF 3
ENDMDL
MODEL 3
REMARK VINA RESULT:      -8.7      2.404      4.472
REMARK  Name = 
REMARK  4 active torsions:
REMARK  status: ('A' for Active; 'I' for Inactive)
REMARK    1  A    between atoms: C_1  and  C_2
REMARK    2  A    between atoms: C_4  and  C_5
REMARK    3  A    between atoms: C_10  and  N_11
REMARK    4  A    between atoms: N_14  and  C_15
REMARK                            x       y       z     vdW  Elec       q    Type
REMARK                         _______ _______ _______ _____ _____    ______ ____
ROOT
ATOM      1  C   UNL     1       4.211   4.465  18.114  0.00  0.00    +0.000 A 
ATOM      2  N   UNL     1       3.893   3.202  18.444  0.00  0.00    +0.000 NA
ATOM      3  N   UNL     1       2.951   3.327  19.398  0.00  0.00    +0.000 N 
ATOM      4  C   UNL     1       2.609   4.618  19.689  0.00  0.00    +0.000 A 
ATOM      5  C   UNL     1       1.687   5.184  20.581  0.00  0.00    +0.000 A 
ATOM      6  C   UNL     1       1.630   6.575  20.567  0.00  0.00    +0.000 A 
ATOM      7  N   UNL     1       2.403   7.330  19.750  0.00  0.00    +0.000 NA
ATOM      8  C   UNL     1       3.273   6.764  18.893  0.00  0.00    +0.000 A 
ATOM      9  C   UNL     1       3.412   5.385  18.852  0.00  0.00    +0.000 A 
ATOM     10  H   UNL     1       2.573   2.477  19.804  0.00  0.00    +0.000 HD
ENDROOT
BRANCH   1  14
ATOM     11  C   UNL     1       6.196   3.816  13.561  0.00  0.00    +0.000 C 
ATOM     12  C   UNL     1       6.199   4.455  14.918  0.00  0.00    +0.000 A 
ATOM     13  C   UNL     1       5.182   4.194  15.829  0.00  0.00    +0.000 A 
ATOM     14  C   UNL     1       5.226   4.778  17.102  0.00  0.00    +0.000 A 
ATOM     15  C   UNL     1       6.276   5.647  17.394  0.00  0.00    +0.000 A 
ATOM     16  C   UNL     1       7.240   5.863  16.423  0.00  0.00    +0.000 A 
ATOM     17  N   UNL     1       7.230   5.280  15.205  0.00  0.00    +0.000 NA
ENDBRANCH   1  14
BRANCH   6  18
ATOM     18  N   UNL     1       0.744   7.244  21.424  0.00  0.00    +0.000 N 
ATOM     19  C   UNL     1       0.295   8.545  21.316  0.00  0.00    +0.000 C 
ATOM     20  O   UNL     1      -0.481   9.005  22.153  0.00  0.00    +0.000 OA
ATOM     21  N   UNL     1       0.771   9.240  20.252  0.00  0.00    +0.000 N 
ATOM     22  H   UNL     1       0.365   6.754  22.222  0.00  0.00    +0.000 HD
ATOM     23  H   UNL     1       1.427   8.726  19.675  0.00  0.00    +0.000 HD
BRANCH  21  24
ATOM     24  C   UNL     1       0.491  10.605  19.854  0.00  0.00    +0.000 C 
ATOM     25  C   UNL     1       1.687  11.111  19.020  0.00  0.00    +0.000 C 
ATOM     26  C   UNL     1       1.778  12.636  18.944  0.00  0.00    +0.000 C 
ATOM     27  C   UNL     1       0.567  13.299  18.297  0.00  0.00    +0.000 C 
ATOM     28  O   UNL     1      -0.620  13.109  19.076  0.00  0.00    +0.000 OA
ATOM     29  C   UNL     1      -1.273  11.973  18.674  0.00  0.00    +0.000 A 
ATOM     30  C   UNL     1      -2.441  12.131  17.929  0.00  0.00    +0.000 A 
ATOM     31  C   UNL     1      -3.112  11.007  17.451  0.00  0.00    +0.000 A 
ATOM     32  C   UNL     1      -2.621   9.736  17.739  0.00  0.00    +0.000 A 
ATOM     33  C   UNL     1      -1.471   9.586  18.522  0.00  0.00    +0.000 A 
ATOM     34  C   UNL     1      -0.778  10.706  19.016  0.00  0.00    +0.000 A 
ENDBRANCH  21  24
ENDBRANCH   6  18
TORSDOF 3
ENDMDL
MODEL 4
REMARK VINA RESULT:      -8.4      1.154      1.335
REMARK  Name = 
REMARK  4 active torsions:
REMARK  status: ('A' for Active; 'I' for Inactive)
REMARK    1  A    between atoms: C_1  and  C_2
REMARK    2  A    between atoms: C_4  and  C_5
REMARK    3  A    between atoms: C_10  and  N_11
REMARK    4  A    between atoms: N_14  and  C_15
REMARK                            x       y       z     vdW  Elec       q    Type
REMARK                         _______ _______ _______ _____ _____    ______ ____
ROOT
ATOM      1  C   UNL     1       2.155   6.314  19.701  0.00  0.00    +0.000 A 
ATOM      2  N   UNL     1       1.667   6.344  20.952  0.00  0.00    +0.000 NA
ATOM      3  N   UNL     1       1.328   7.632  21.155  0.00  0.00    +0.000 N 
ATOM      4  C   UNL     1       1.540   8.447  20.079  0.00  0.00    +0.000 A 
ATOM      5  C   UNL     1       1.318   9.814  19.857  0.00  0.00    +0.000 A 
ATOM      6  C   UNL     1       1.665  10.271  18.589  0.00  0.00    +0.000 A 
ATOM      7  N   UNL     1       2.176   9.457  17.634  0.00  0.00    +0.000 NA
ATOM      8  C   UNL     1       2.370   8.146  17.865  0.00  0.00    +0.000 A 
ATOM      9  C   UNL     1       2.072   7.607  19.107  0.00  0.00    +0.000 A 
ATOM     10  H   UNL     1       0.942   7.883  22.059  0.00  0.00    +0.000 HD
ENDROOT
BRANCH   1  14
ATOM     11  C   UNL     1       4.640   1.975  19.998  0.00  0.00    +0.000 C 
ATOM     12  C   UNL     1       3.871   2.999  19.218  0.00  0.00    +0.000 A 
ATOM     13  C   UNL     1       3.343   4.122  19.845  0.00  0.00    +0.000 A 
ATOM     14  C   UNL     1       2.658   5.081  19.086  0.00  0.00    +0.000 A 
ATOM     15  C   UNL     1       2.488   4.847  17.723  0.00  0.00    +0.000 A 
ATOM     16  C   UNL     1       3.033   3.695  17.181  0.00  0.00    +0.000 A 
ATOM     17  N   UNL     1       3.727   2.780  17.892  0.00  0.00    +0.000 NA
ENDBRANCH   1  14
BRANCH   6  18
ATOM     18  N   UNL     1       1.487  11.624  18.263  0.00  0.00    +0.000 N 
ATOM     19  C   UNL     1       0.338  12.375  18.405  0.00  0.00    +0.000 C 
ATOM     20  O   UNL     1       0.325  13.558  18.066  0.00  0.00    +0.000 OA
ATOM     21  N   UNL     1      -0.729  11.717  18.925  0.00  0.00    +0.000 N 
ATOM     22  H   UNL     1       2.263  12.145  17.880  0.00  0.00    +0.000 HD
ATOM     23  H   UNL     1      -0.562  10.737  19.121  0.00  0.00    +0.000 HD
BRANCH  21  24
ATOM     24  C   UNL     1      -2.061  12.215  19.205  0.00  0.00    +0.000 C 
ATOM     25  C   UNL     1      -3.074  11.278  18.514  0.00  0.00    +0.000 C 
ATOM     26  C   UNL     1      -4.448  11.914  18.300  0.00  0.00    +0.000 C 
ATOM     27  C   UNL     1      -5.148  12.332  19.588  0.00  0.00    +0.000 C 
ATOM     28  O   UNL     1      -4.437  13.377  20.262  0.00  0.00    +0.000 OA
ATOM     29  C   UNL     1      -3.541  12.843  21.152  0.00  0.00    +0.000 A 
ATOM     30  C   UNL     1      -3.854  12.925  22.509  0.00  0.00    +0.000 A 
ATOM     31  C   UNL     1      -3.003  12.349  23.449  0.00  0.00    +0.000 A 
ATOM     32  C   UNL     1      -1.837  11.715  23.028  0.00  0.00    +0.000 A 
ATOM     33  C   UNL     1      -1.510  11.674  21.668  0.00  0.00    +0.000 A 
ATOM     34  C   UNL     1      -2.354  12.249  20.701  0.00  0.00    +0.000 A 
ENDBRANCH  21  24
ENDBRANCH   6  18
TORSDOF 3
ENDMDL
MODEL 5
REMARK VINA RESULT:      -8.1      1.577      2.303
REMARK  Name = 
REMARK  4 active torsions:
REMARK  status: ('A' for Active; 'I' for Inactive)
REMARK    1  A    between atoms: C_1  and  C_2
REMARK    2  A    between atoms: C_4  and  C_5
REMARK    3  A    between atoms: C_10  and  N_11
REMARK    4  A    between atoms: N_14  and  C_15
REMARK                            x       y       z     vdW  Elec       q    Type
REMARK                         _______ _______ _______ _____ _____    ______ ____
ROOT
ATOM      1  C   UNL     1       2.555   6.613  18.659  0.00  0.00    +0.000 A 
ATOM      2  N   UNL     1       3.438   6.625  17.647  0.00  0.00    +0.000 NA
ATOM      3  N   UNL     1       3.455   7.904  17.226  0.00  0.00    +0.000 N 
ATOM      4  C   UNL     1       2.646   8.744  17.938  0.00  0.00    +0.000 A 
ATOM      5  C   UNL     1       2.383  10.118  17.851  0.00  0.00    +0.000 A 
ATOM      6  C   UNL     1       1.483  10.608  18.794  0.00  0.00    +0.000 A 
ATOM      7  N   UNL     1       0.906   9.820  19.732  0.00  0.00    +0.000 NA
ATOM      8  C   UNL     1       1.183   8.505  19.805  0.00  0.00    +0.000 A 
ATOM      9  C   UNL     1       2.053   7.925  18.893  0.00  0.00    +0.000 A 
ATOM     10  H   UNL     1       4.059   8.137  16.444  0.00  0.00    +0.000 HD
ENDROOT
BRANCH   1  14
ATOM     11  C   UNL     1       0.606   2.002  18.837  0.00  0.00    +0.000 C 
ATOM     12  C   UNL     1       1.271   3.175  19.494  0.00  0.00    +0.000 A 
ATOM     13  C   UNL     1       1.637   4.292  18.752  0.00  0.00    +0.000 A 
ATOM     14  C   UNL     1       2.227   5.388  19.398  0.00  0.00    +0.000 A 
ATOM     15  C   UNL     1       2.470   5.297  20.766  0.00  0.00    +0.000 A 
ATOM     16  C   UNL     1       2.087   4.141  21.426  0.00  0.00    +0.000 A 
ATOM     17  N   UNL     1       1.485   3.092  20.826  0.00  0.00    +0.000 NA
ENDBRANCH   1  14
BRANCH   6  18
ATOM     18  N   UNL     1       1.146  11.970  18.793  0.00  0.00    +0.000 N 
ATOM     19  C   UNL     1      -0.117  12.520  18.703  0.00  0.00    +0.000 C 
ATOM     20  O   UNL     1      -0.262  13.742  18.705  0.00  0.00    +0.000 OA
ATOM     21  N   UNL     1      -1.137  11.630  18.611  0.00  0.00    +0.000 N 
ATOM     22  H   UNL     1       1.879  12.660  18.866  0.00  0.00    +0.000 HD
ATOM     23  H   UNL     1      -0.845  10.659  18.590  0.00  0.00    +0.000 HD
BRANCH  21  24
ATOM     24  C   UNL     1      -2.561  11.878  18.512  0.00  0.00    +0.000 C 
ATOM     25  C   UNL     1      -3.235  10.588  18.003  0.00  0.00    +0.000 C 
ATOM     26  C   UNL     1      -4.617  10.820  17.390  0.00  0.00    +0.000 C 
ATOM     27  C   UNL     1      -5.635  11.412  18.359  0.00  0.00    +0.000 C 
ATOM     28  O   UNL     1      -5.265  12.733  18.772  0.00  0.00    +0.000 OA
ATOM     29  C   UNL     1      -4.505  12.677  19.911  0.00  0.00    +0.000 A 
ATOM     30  C   UNL     1      -5.110  13.060  21.109  0.00  0.00    +0.000 A 
ATOM     31  C   UNL     1      -4.396  12.969  22.301  0.00  0.00    +0.000 A 
ATOM     32  C   UNL     1      -3.079  12.517  22.285  0.00  0.00    +0.000 A 
ATOM     33  C   UNL     1      -2.467  12.175  21.075  0.00  0.00    +0.000 A 
ATOM     34  C   UNL     1      -3.168  12.259  19.858  0.00  0.00    +0.000 A 
ENDBRANCH  21  24
ENDBRANCH   6  18
TORSDOF 3
ENDMDL
MODEL 6
REMARK VINA RESULT:      -8.1      1.784      3.483
REMARK  Name = 
REMARK  4 active torsions:
REMARK  status: ('A' for Active; 'I' for Inactive)
REMARK    1  A    between atoms: C_1  and  C_2
REMARK    2  A    between atoms: C_4  and  C_5
REMARK    3  A    between atoms: C_10  and  N_11
REMARK    4  A    between atoms: N_14  and  C_15
REMARK                            x       y       z     vdW  Elec       q    Type
REMARK                         _______ _______ _______ _____ _____    ______ ____
ROOT
ATOM      1  C   UNL     1       2.012   8.550  18.302  0.00  0.00    +0.000 A 
ATOM      2  N   UNL     1       2.031   9.517  17.370  0.00  0.00    +0.000 NA
ATOM      3  N   UNL     1       1.437  10.571  17.961  0.00  0.00    +0.000 N 
ATOM      4  C   UNL     1       1.056  10.353  19.255  0.00  0.00    +0.000 A 
ATOM      5  C   UNL     1       0.437  11.162  20.218  0.00  0.00    +0.000 A 
ATOM      6  C   UNL     1       0.226  10.554  21.453  0.00  0.00    +0.000 A 
ATOM      7  N   UNL     1       0.596   9.278  21.711  0.00  0.00    +0.000 NA
ATOM      8  C   UNL     1       1.200   8.523  20.775  0.00  0.00    +0.000 A 
ATOM      9  C   UNL     1       1.432   9.038  19.509  0.00  0.00    +0.000 A 
ATOM     10  H   UNL     1       1.334  11.423  17.418  0.00  0.00    +0.000 HD
ENDROOT
BRANCH   1  14
ATOM     11  C   UNL     1       1.515   3.566  18.241  0.00  0.00    +0.000 C 
ATOM     12  C   UNL     1       2.331   4.809  18.042  0.00  0.00    +0.000 A 
ATOM     13  C   UNL     1       1.764   6.067  18.213  0.00  0.00    +0.000 A 
ATOM     14  C   UNL     1       2.558   7.211  18.054  0.00  0.00    +0.000 A 
ATOM     15  C   UNL     1       3.889   7.045  17.679  0.00  0.00    +0.000 A 
ATOM     16  C   UNL     1       4.370   5.757  17.514  0.00  0.00    +0.000 A 
ATOM     17  N   UNL     1       3.628   4.644  17.699  0.00  0.00    +0.000 NA
ENDBRANCH   1  14
BRANCH   6  18
ATOM     18  N   UNL     1      -0.391  11.275  22.487  0.00  0.00    +0.000 N 
ATOM     19  C   UNL     1      -1.587  11.961  22.432  0.00  0.00    +0.000 C 
ATOM     20  O   UNL     1      -2.004  12.560  23.423  0.00  0.00    +0.000 OA
ATOM     21  N   UNL     1      -2.229  11.920  21.237  0.00  0.00    +0.000 N 
ATOM     22  H   UNL     1       0.057  11.320  23.391  0.00  0.00    +0.000 HD
ATOM     23  H   UNL     1      -1.735  11.411  20.513  0.00  0.00    +0.000 HD
BRANCH  21  24
ATOM     24  C   UNL     1      -3.491  12.522  20.857  0.00  0.00    +0.000 C 
ATOM     25  C   UNL     1      -3.341  14.053  20.968  0.00  0.00    +0.000 C 
ATOM     26  C   UNL     1      -4.675  14.793  21.080  0.00  0.00    +0.000 C 
ATOM     27  C   UNL     1      -5.596  14.596  19.881  0.00  0.00    +0.000 C 
ATOM     28  O   UNL     1      -6.020  13.234  19.758  0.00  0.00    +0.000 OA
ATOM     29  C   UNL     1      -5.152  12.539  18.956  0.00  0.00    +0.000 A 
ATOM     30  C   UNL     1      -5.581  12.220  17.667  0.00  0.00    +0.000 A 
ATOM     31  C   UNL     1      -4.715  11.563  16.796  0.00  0.00    +0.000 A 
ATOM     32  C   UNL     1      -3.438  11.212  17.224  0.00  0.00    +0.000 A 
ATOM     33  C   UNL     1      -3.031  11.500  18.532  0.00  0.00    +0.000 A 
ATOM     34  C   UNL     1      -3.888  12.162  19.430  0.00  0.00    +0.000 A 
ENDBRANCH  21  24
ENDBRANCH   6  18
TORSDOF 3
ENDMDL
MODEL 7
REMARK VINA RESULT:      -8.0      6.195     10.196
REMARK  Name = 
REMARK  4 active torsions:
REMARK  status: ('A' for Active; 'I' for Inactive)
REMARK    1  A    between atoms: C_1  and  C_2
REMARK    2  A    between atoms: C_4  and  C_5
REMARK    3  A    between atoms: C_10  and  N_11
REMARK    4  A    between atoms: N_14  and  C_15
REMARK                            x       y       z     vdW  Elec       q    Type
REMARK                         _______ _______ _______ _____ _____    ______ ____
ROOT
ATOM      1  C   UNL     1       1.270  11.837  19.909  0.00  0.00    +0.000 A 
ATOM      2  N   UNL     1       1.348  11.217  18.719  0.00  0.00    +0.000 NA
ATOM      3  N   UNL     1       2.068  12.052  17.946  0.00  0.00    +0.000 N 
ATOM      4  C   UNL     1       2.498  13.183  18.584  0.00  0.00    +0.000 A 
ATOM      5  C   UNL     1       3.267  14.279  18.170  0.00  0.00    +0.000 A 
ATOM      6  C   UNL     1       3.500  15.241  19.149  0.00  0.00    +0.000 A 
ATOM      7  N   UNL     1       3.025  15.127  20.412  0.00  0.00    +0.000 NA
ATOM      8  C   UNL     1       2.298  14.060  20.791  0.00  0.00    +0.000 A 
ATOM      9  C   UNL     1       1.999  13.062  19.876  0.00  0.00    +0.000 A 
ATOM     10  H   UNL     1       2.239  11.778  16.985  0.00  0.00    +0.000 HD
ENDROOT
BRANCH   1  14
ATOM     11  C   UNL     1      -2.361  12.064  23.352  0.00  0.00    +0.000 C 
ATOM     12  C   UNL     1      -1.187  11.374  22.721  0.00  0.00    +0.000 A 
ATOM     13  C   UNL     1      -0.568  11.908  21.596  0.00  0.00    +0.000 A 
ATOM     14  C   UNL     1       0.547  11.261  21.047  0.00  0.00    +0.000 A 
ATOM     15  C   UNL     1       0.969  10.067  21.627  0.00  0.00    +0.000 A 
ATOM     16  C   UNL     1       0.286   9.596  22.736  0.00  0.00    +0.000 A 
ATOM     17  N   UNL     1      -0.767  10.228  23.299  0.00  0.00    +0.000 NA
ENDBRANCH   1  14
BRANCH   6  18
ATOM     18  N   UNL     1       4.256  16.382  18.838  0.00  0.00    +0.000 N 
ATOM     19  C   UNL     1       5.592  16.600  19.107  0.00  0.00    +0.000 C 
ATOM     20  O   UNL     1       6.125  17.660  18.782  0.00  0.00    +0.000 OA
ATOM     21  N   UNL     1       6.234  15.584  19.738  0.00  0.00    +0.000 N 
ATOM     22  H   UNL     1       3.811  17.154  18.363  0.00  0.00    +0.000 HD
ATOM     23  H   UNL     1       5.644  14.792  19.965  0.00  0.00    +0.000 HD
BRANCH  21  24
ATOM     24  C   UNL     1       7.620  15.495  20.149  0.00  0.00    +0.000 C 
ATOM     25  C   UNL     1       7.656  14.938  21.587  0.00  0.00    +0.000 C 
ATOM     26  C   UNL     1       8.961  15.237  22.328  0.00  0.00    +0.000 C 
ATOM     27  C   UNL     1      10.200  14.642  21.669  0.00  0.00    +0.000 C 
ATOM     28  O   UNL     1      10.446  15.223  20.383  0.00  0.00    +0.000 OA
ATOM     29  C   UNL     1       9.817  14.496  19.406  0.00  0.00    +0.000 A 
ATOM     30  C   UNL     1      10.611  13.690  18.591  0.00  0.00    +0.000 A 
ATOM     31  C   UNL     1      10.014  12.890  17.619  0.00  0.00    +0.000 A 
ATOM     32  C   UNL     1       8.631  12.917  17.457  0.00  0.00    +0.000 A 
ATOM     33  C   UNL     1       7.846  13.759  18.252  0.00  0.00    +0.000 A 
ATOM     34  C   UNL     1       8.427  14.576  19.239  0.00  0.00    +0.000 A 
ENDBRANCH  21  24
ENDBRANCH   6  18
TORSDOF 3
ENDMDL
MODEL 8
REMARK VINA RESULT:      -8.0      1.595      2.241
REMARK  Name = 
REMARK  4 active torsions:
REMARK  status: ('A' for Active; 'I' for Inactive)
REMARK    1  A    between atoms: C_1  and  C_2
REMARK    2  A    between atoms: C_4  and  C_5
REMARK    3  A    between atoms: C_10  and  N_11
REMARK    4  A    between atoms: N_14  and  C_15
REMARK                            x       y       z     vdW  Elec       q    Type
REMARK                         _______ _______ _______ _____ _____    ______ ____
ROOT
ATOM      1  C   UNL     1       2.762   6.223  19.466  0.00  0.00    +0.000 A 
ATOM      2  N   UNL     1       2.285   5.803  20.649  0.00  0.00    +0.000 NA
ATOM      3  N   UNL     1       1.594   6.854  21.130  0.00  0.00    +0.000 N 
ATOM      4  C   UNL     1       1.566   7.939  20.300  0.00  0.00    +0.000 A 
ATOM      5  C   UNL     1       0.964   9.202  20.398  0.00  0.00    +0.000 A 
ATOM      6  C   UNL     1       1.168  10.040  19.305  0.00  0.00    +0.000 A 
ATOM      7  N   UNL     1       1.889   9.665  18.222  0.00  0.00    +0.000 NA
ATOM      8  C   UNL     1       2.447   8.443  18.144  0.00  0.00    +0.000 A 
ATOM      9  C   UNL     1       2.314   7.549  19.195  0.00  0.00    +0.000 A 
ATOM     10  H   UNL     1       1.152   6.755  22.038  0.00  0.00    +0.000 HD
ENDROOT
BRANCH   1  14
ATOM     11  C   UNL     1       7.252   4.735  17.818  0.00  0.00    +0.000 C 
ATOM     12  C   UNL     1       5.754   4.665  17.797  0.00  0.00    +0.000 A 
ATOM     13  C   UNL     1       4.993   5.431  18.673  0.00  0.00    +0.000 A 
ATOM     14  C   UNL     1       3.594   5.372  18.609  0.00  0.00    +0.000 A 
ATOM     15  C   UNL     1       3.011   4.501  17.692  0.00  0.00    +0.000 A 
ATOM     16  C   UNL     1       3.843   3.762  16.866  0.00  0.00    +0.000 A 
ATOM     17  N   UNL     1       5.191   3.835  16.891  0.00  0.00    +0.000 NA
ENDBRANCH   1  14
BRANCH   6  18
ATOM     18  N   UNL     1       0.613  11.329  19.303  0.00  0.00    +0.000 N 
ATOM     19  C   UNL     1      -0.419  11.795  18.513  0.00  0.00    +0.000 C 
ATOM     20  O   UNL     1      -0.798  12.961  18.613  0.00  0.00    +0.000 OA
ATOM     21  N   UNL     1      -0.948  10.890  17.650  0.00  0.00    +0.000 N 
ATOM     22  H   UNL     1       0.979  12.025  19.936  0.00  0.00    +0.000 HD
ATOM     23  H   UNL     1      -0.500   9.982  17.669  0.00  0.00    +0.000 HD
BRANCH  21  24
ATOM     24  C   UNL     1      -2.032  11.058  16.703  0.00  0.00    +0.000 C 
ATOM     25  C   UNL     1      -2.200   9.731  15.933  0.00  0.00    +0.000 C 
ATOM     26  C   UNL     1      -2.939   9.885  14.603  0.00  0.00    +0.000 C 
ATOM     27  C   UNL     1      -4.361  10.416  14.740  0.00  0.00    +0.000 C 
ATOM     28  O   UNL     1      -4.379  11.756  15.248  0.00  0.00    +0.000 OA
ATOM     29  C   UNL     1      -4.461  11.742  16.616  0.00  0.00    +0.000 A 
ATOM     30  C   UNL     1      -5.684  12.087  17.192  0.00  0.00    +0.000 A 
ATOM     31  C   UNL     1      -5.834  12.036  18.575  0.00  0.00    +0.000 A 
ATOM     32  C   UNL     1      -4.756  11.660  19.373  0.00  0.00    +0.000 A 
ATOM     33  C   UNL     1      -3.521  11.355  18.791  0.00  0.00    +0.000 A 
ATOM     34  C   UNL     1      -3.346  11.401  17.395  0.00  0.00    +0.000 A 
ENDBRANCH  21  24
ENDBRANCH   6  18
TORSDOF 3
ENDMDL
MODEL 9
REMARK VINA RESULT:      -8.0      2.561      4.400
REMARK  Name = 
REMARK  4 active torsions:
REMARK  status: ('A' for Active; 'I' for Inactive)
REMARK    1  A    between atoms: C_1  and  C_2
REMARK    2  A    between atoms: C_4  and  C_5
REMARK    3  A    between atoms: C_10  and  N_11
REMARK    4  A    between atoms: N_14  and  C_15
REMARK                            x       y       z     vdW  Elec       q    Type
REMARK                         _______ _______ _______ _____ _____    ______ ____
ROOT
ATOM      1  C   UNL     1       3.834   4.649  18.183  0.00  0.00    +0.000 A 
ATOM      2  N   UNL     1       3.287   3.423  18.240  0.00  0.00    +0.000 NA
ATOM      3  N   UNL     1       2.261   3.549  19.103  0.00  0.00    +0.000 N 
ATOM      4  C   UNL     1       2.086   4.813  19.592  0.00  0.00    +0.000 A 
ATOM      5  C   UNL     1       1.155   5.374  20.478  0.00  0.00    +0.000 A 
ATOM      6  C   UNL     1       1.314   6.736  20.717  0.00  0.00    +0.000 A 
ATOM      7  N   UNL     1       2.292   7.471  20.135  0.00  0.00    +0.000 NA
ATOM      8  C   UNL     1       3.167   6.914  19.278  0.00  0.00    +0.000 A 
ATOM      9  C   UNL     1       3.098   5.557  18.996  0.00  0.00    +0.000 A 
ATOM     10  H   UNL     1       1.708   2.722  19.305  0.00  0.00    +0.000 HD
ENDROOT
BRANCH   1  14
ATOM     11  C   UNL     1       7.843   7.458  17.119  0.00  0.00    +0.000 C 
ATOM     12  C   UNL     1       6.928   6.307  16.823  0.00  0.00    +0.000 A 
ATOM     13  C   UNL     1       5.867   6.005  17.670  0.00  0.00    +0.000 A 
ATOM     14  C   UNL     1       5.007   4.945  17.352  0.00  0.00    +0.000 A 
ATOM     15  C   UNL     1       5.278   4.194  16.211  0.00  0.00    +0.000 A 
ATOM     16  C   UNL     1       6.365   4.553  15.430  0.00  0.00    +0.000 A 
ATOM     17  N   UNL     1       7.181   5.594  15.704  0.00  0.00    +0.000 NA
ENDBRANCH   1  14
BRANCH   6  18
ATOM     18  N   UNL     1       0.438   7.397  21.592  0.00  0.00    +0.000 N 
ATOM     19  C   UNL     1      -0.067   8.675  21.464  0.00  0.00    +0.000 C 
ATOM     20  O   UNL     1      -0.824   9.131  22.320  0.00  0.00    +0.000 OA
ATOM     21  N   UNL     1       0.336   9.355  20.361  0.00  0.00    +0.000 N 
ATOM     22  H   UNL     1       0.114   6.918  22.419  0.00  0.00    +0.000 HD
ATOM     23  H   UNL     1       0.987   8.849  19.772  0.00  0.00    +0.000 HD
BRANCH  21  24
ATOM     24  C   UNL     1      -0.014  10.694  19.935  0.00  0.00    +0.000 C 
ATOM     25  C   UNL     1       1.292  11.441  19.590  0.00  0.00    +0.000 C 
ATOM     26  C   UNL     1       1.148  12.964  19.601  0.00  0.00    +0.000 C 
ATOM     27  C   UNL     1       0.137  13.499  18.592  0.00  0.00    +0.000 C 
ATOM     28  O   UNL     1      -1.195  13.071  18.899  0.00  0.00    +0.000 OA
ATOM     29  C   UNL     1      -1.473  11.892  18.257  0.00  0.00    +0.000 A 
ATOM     30  C   UNL     1      -2.326  11.944  17.155  0.00  0.00    +0.000 A 
ATOM     31  C   UNL     1      -2.596  10.782  16.436  0.00  0.00    +0.000 A 
ATOM     32  C   UNL     1      -2.029   9.575  16.836  0.00  0.00    +0.000 A 
ATOM     33  C   UNL     1      -1.206   9.524  17.967  0.00  0.00    +0.000 A 
ATOM     34  C   UNL     1      -0.920  10.685  18.709  0.00  0.00    +0.000 A 
ENDBRANCH  21  24
ENDBRANCH   6  18
TORSDOF 3
ENDMDL
