MODEL 1
REMARK VINA RESULT:      -8.0      0.000      0.000
REMARK  Name = 
REMARK  6 active torsions:
REMARK  status: ('A' for Active; 'I' for Inactive)
REMARK    1  A    between atoms: C_5  and  C_6
REMARK    2  A    between atoms: C_6  and  C_7
REMARK    3  A    between atoms: C_6  and  SE_13
REMARK    4  A    between atoms: C_7  and  N_8
REMARK    5  A    between atoms: SE_13  and  C_14
REMARK    6  A    between atoms: C_14  and  C_15
REMARK                            x       y       z     vdW  Elec       q    Type
REMARK                         _______ _______ _______ _____ _____    ______ ____
ROOT
ATOM      1  C   UNL     1       5.081   4.232  16.411  0.00  0.00    +0.000 C 
ENDROOT
BRANCH   1   6
ATOM      2 CL   UNL     1       8.720   8.522  18.857  0.00  0.00    +0.000 Cl
ATOM      3  C   UNL     1       7.672   7.296  18.166  0.00  0.00    +0.000 A 
ATOM      4  C   UNL     1       7.801   5.968  18.562  0.00  0.00    +0.000 A 
ATOM      5  C   UNL     1       6.973   4.988  18.017  0.00  0.00    +0.000 A 
ATOM      6  C   UNL     1       5.992   5.307  17.042  0.00  0.00    +0.000 A 
ATOM      7  C   UNL     1       5.875   6.669  16.653  0.00  0.00    +0.000 A 
ATOM      8 CL   UNL     1       4.713   7.209  15.443  0.00  0.00    +0.000 Cl
ATOM      9  C   UNL     1       6.710   7.645  17.218  0.00  0.00    +0.000 A 
ENDBRANCH   1   6
BRANCH   1  10
ATOM     10  C   UNL     1       5.818   3.214  15.504  0.00  0.00    +0.000 C 
BRANCH  10  11
ATOM     11  N   UNL     1       6.386   3.799  14.280  0.00  0.00    +0.000 N 
ATOM     12  C   UNL     1       7.284   4.799  14.242  0.00  0.00    +0.000 A 
ATOM     13  N   UNL     1       7.565   5.141  12.971  0.00  0.00    +0.000 NA
ATOM     14  C   UNL     1       6.802   4.298  12.246  0.00  0.00    +0.000 A 
ATOM     15  N   UNL     1       6.083   3.473  13.033  0.00  0.00    +0.000 NA
ENDBRANCH  10  11
ENDBRANCH   1  10
BRANCH   1  16
ATOM     16 SE   UNL     1       4.207   3.250  17.896  0.00  0.00    +0.000 Se
BRANCH  16  17
ATOM     17  C   UNL     1       2.364   3.930  17.767  0.00  0.00    +0.000 C 
BRANCH  17  18
ATOM     18  C   UNL     1       2.216   5.160  18.649  0.00  0.00    +0.000 A 
ATOM     19  C   UNL     1       2.559   6.431  18.140  0.00  0.00    +0.000 A 
ATOM     20  C   UNL     1       2.409   7.580  18.927  0.00  0.00    +0.000 A 
ATOM     21  C   UNL     1       1.928   7.477  20.232  0.00  0.00    +0.000 A 
ATOM     22  C   UNL     1       1.598   6.227  20.758  0.00  0.00    +0.000 A 
ATOM     23  C   UNL     1       1.739   5.067  19.979  0.00  0.00    +0.000 A 
ATOM     24 CL   UNL     1       1.326   3.525  20.717  0.00  0.00    +0.000 Cl
ENDBRANCH  17  18
ENDBRANCH  16  17
ENDBRANCH   1  16
TORSDOF 6
ENDMDL
MODEL 2
REMARK VINA RESULT:      -7.6      3.435      5.245
REMARK  Name = 
REMARK  6 active torsions:
REMARK  status: ('A' for Active; 'I' for Inactive)
REMARK    1  A    between atoms: C_5  and  C_6
REMARK    2  A    between atoms: C_6  and  C_7
REMARK    3  A    between atoms: C_6  and  SE_13
REMARK    4  A    between atoms: C_7  and  N_8
REMARK    5  A    between atoms: SE_13  and  C_14
REMARK    6  A    between atoms: C_14  and  C_15
REMARK                            x       y       z     vdW  Elec       q    Type
REMARK                         _______ _______ _______ _____ _____    ______ ____
ROOT
ATOM      1  C   UNL     1       4.697   6.137  17.860  0.00  0.00    +0.000 C 
ENDROOT
BRANCH   1   6
ATOM      2 CL   UNL     1       7.256   3.857  12.773  0.00  0.00    +0.000 Cl
ATOM      3  C   UNL     1       6.527   4.500  14.234  0.00  0.00    +0.000 A 
ATOM      4  C   UNL     1       5.219   4.160  14.565  0.00  0.00    +0.000 A 
ATOM      5  C   UNL     1       4.632   4.668  15.723  0.00  0.00    +0.000 A 
ATOM      6  C   UNL     1       5.337   5.548  16.586  0.00  0.00    +0.000 A 
ATOM      7  C   UNL     1       6.673   5.880  16.230  0.00  0.00    +0.000 A 
ATOM      8 CL   UNL     1       7.663   6.972  17.196  0.00  0.00    +0.000 Cl
ATOM      9  C   UNL     1       7.252   5.354  15.065  0.00  0.00    +0.000 A 
ENDBRANCH   1   6
BRANCH   1  10
ATOM     10  C   UNL     1       3.148   6.082  17.889  0.00  0.00    +0.000 C 
BRANCH  10  11
ATOM     11  N   UNL     1       2.513   7.284  18.448  0.00  0.00    +0.000 N 
ATOM     12  C   UNL     1       2.144   7.442  19.732  0.00  0.00    +0.000 A 
ATOM     13  N   UNL     1       1.545   8.633  19.914  0.00  0.00    +0.000 NA
ATOM     14  C   UNL     1       1.575   9.188  18.684  0.00  0.00    +0.000 A 
ATOM     15  N   UNL     1       2.167   8.377  17.785  0.00  0.00    +0.000 NA
ENDBRANCH  10  11
ENDBRANCH   1  10
BRANCH   1  16
ATOM     16 SE   UNL     1       5.403   5.113  19.405  0.00  0.00    +0.000 Se
BRANCH  16  17
ATOM     17  C   UNL     1       4.730   3.307  19.001  0.00  0.00    +0.000 C 
BRANCH  17  18
ATOM     18  C   UNL     1       3.374   3.114  19.661  0.00  0.00    +0.000 A 
ATOM     19  C   UNL     1       3.264   3.175  21.066  0.00  0.00    +0.000 A 
ATOM     20  C   UNL     1       2.020   3.023  21.694  0.00  0.00    +0.000 A 
ATOM     21  C   UNL     1       0.875   2.796  20.932  0.00  0.00    +0.000 A 
ATOM     22  C   UNL     1       0.966   2.717  19.541  0.00  0.00    +0.000 A 
ATOM     23  C   UNL     1       2.205   2.872  18.899  0.00  0.00    +0.000 A 
ATOM     24 CL   UNL     1       2.246   2.736  17.146  0.00  0.00    +0.000 Cl
ENDBRANCH  17  18
ENDBRANCH  16  17
ENDBRANCH   1  16
TORSDOF 6
ENDMDL
MODEL 3
REMARK VINA RESULT:      -7.4      1.357      1.999
REMARK  Name = 
REMARK  6 active torsions:
REMARK  status: ('A' for Active; 'I' for Inactive)
REMARK    1  A    between atoms: C_5  and  C_6
REMARK    2  A    between atoms: C_6  and  C_7
REMARK    3  A    between atoms: C_6  and  SE_13
REMARK    4  A    between atoms: C_7  and  N_8
REMARK    5  A    between atoms: SE_13  and  C_14
REMARK    6  A    between atoms: C_14  and  C_15
REMARK                            x       y       z     vdW  Elec       q    Type
REMARK                         _______ _______ _______ _____ _____    ______ ____
ROOT
ATOM      1  C   UNL     1       5.288   4.135  15.862  0.00  0.00    +0.000 C 
ENDROOT
BRANCH   1   6
ATOM      2 CL   UNL     1       8.621   8.241  18.970  0.00  0.00    +0.000 Cl
ATOM      3  C   UNL     1       7.660   7.065  18.089  0.00  0.00    +0.000 A 
ATOM      4  C   UNL     1       7.903   5.706  18.257  0.00  0.00    +0.000 A 
ATOM      5  C   UNL     1       7.144   4.765  17.560  0.00  0.00    +0.000 A 
ATOM      6  C   UNL     1       6.122   5.160  16.658  0.00  0.00    +0.000 A 
ATOM      7  C   UNL     1       5.890   6.554  16.504  0.00  0.00    +0.000 A 
ATOM      8 CL   UNL     1       4.666   7.191  15.408  0.00  0.00    +0.000 Cl
ATOM      9  C   UNL     1       6.656   7.488  17.219  0.00  0.00    +0.000 A 
ENDBRANCH   1   6
BRANCH   1  10
ATOM     10  C   UNL     1       6.101   3.291  14.846  0.00  0.00    +0.000 C 
BRANCH  10  11
ATOM     11  N   UNL     1       6.742   4.081  13.785  0.00  0.00    +0.000 N 
ATOM     12  C   UNL     1       6.627   3.847  12.465  0.00  0.00    +0.000 A 
ATOM     13  N   UNL     1       7.376   4.715  11.759  0.00  0.00    +0.000 NA
ATOM     14  C   UNL     1       7.940   5.486  12.711  0.00  0.00    +0.000 A 
ATOM     15  N   UNL     1       7.557   5.112  13.948  0.00  0.00    +0.000 NA
ENDBRANCH  10  11
ENDBRANCH   1  10
BRANCH   1  16
ATOM     16 SE   UNL     1       4.440   2.913  17.174  0.00  0.00    +0.000 Se
BRANCH  16  17
ATOM     17  C   UNL     1       2.605   3.626  17.225  0.00  0.00    +0.000 C 
BRANCH  17  18
ATOM     18  C   UNL     1       2.158   3.769  18.671  0.00  0.00    +0.000 A 
ATOM     19  C   UNL     1       1.546   2.679  19.325  0.00  0.00    +0.000 A 
ATOM     20  C   UNL     1       1.147   2.780  20.665  0.00  0.00    +0.000 A 
ATOM     21  C   UNL     1       1.342   3.970  21.364  0.00  0.00    +0.000 A 
ATOM     22  C   UNL     1       1.931   5.065  20.730  0.00  0.00    +0.000 A 
ATOM     23  C   UNL     1       2.340   4.976  19.389  0.00  0.00    +0.000 A 
ATOM     24 CL   UNL     1       3.054   6.403  18.650  0.00  0.00    +0.000 Cl
ENDBRANCH  17  18
ENDBRANCH  16  17
ENDBRANCH   1  16
TORSDOF 6
ENDMDL
MODEL 4
REMARK VINA RESULT:      -7.3      4.293      5.991
REMARK  Name = 
REMARK  6 active torsions:
REMARK  status: ('A' for Active; 'I' for Inactive)
REMARK    1  A    between atoms: C_5  and  C_6
REMARK    2  A    between atoms: C_6  and  C_7
REMARK    3  A    between atoms: C_6  and  SE_13
REMARK    4  A    between atoms: C_7  and  N_8
REMARK    5  A    between atoms: SE_13  and  C_14
REMARK    6  A    between atoms: C_14  and  C_15
REMARK                            x       y       z     vdW  Elec       q    Type
REMARK                         _______ _______ _______ _____ _____    ______ ____
ROOT
ATOM      1  C   UNL     1       1.838   6.282  19.882  0.00  0.00    +0.000 C 
ENDROOT
BRANCH   1   6
ATOM      2 CL   UNL     1       7.198   6.206  16.901  0.00  0.00    +0.000 Cl
ATOM      3  C   UNL     1       5.669   6.235  17.761  0.00  0.00    +0.000 A 
ATOM      4  C   UNL     1       5.472   5.397  18.854  0.00  0.00    +0.000 A 
ATOM      5  C   UNL     1       4.258   5.413  19.542  0.00  0.00    +0.000 A 
ATOM      6  C   UNL     1       3.195   6.266  19.147  0.00  0.00    +0.000 A 
ATOM      7  C   UNL     1       3.419   7.116  18.030  0.00  0.00    +0.000 A 
ATOM      8 CL   UNL     1       2.185   8.214  17.416  0.00  0.00    +0.000 Cl
ATOM      9  C   UNL     1       4.648   7.093  17.353  0.00  0.00    +0.000 A 
ENDBRANCH   1   6
BRANCH   1  10
ATOM     10  C   UNL     1       1.587   5.058  20.801  0.00  0.00    +0.000 C 
BRANCH  10  11
ATOM     11  N   UNL     1       1.467   3.781  20.082  0.00  0.00    +0.000 N 
ATOM     12  C   UNL     1       1.952   2.601  20.508  0.00  0.00    +0.000 A 
ATOM     13  N   UNL     1       1.723   1.634  19.601  0.00  0.00    +0.000 NA
ATOM     14  C   UNL     1       1.073   2.283  18.613  0.00  0.00    +0.000 A 
ATOM     15  N   UNL     1       0.907   3.590  18.898  0.00  0.00    +0.000 NA
ENDBRANCH  10  11
ENDBRANCH   1  10
BRANCH   1  16
ATOM     16 SE   UNL     1       1.781   7.931  20.983  0.00  0.00    +0.000 Se
BRANCH  16  17
ATOM     17  C   UNL     1      -0.161   8.160  21.220  0.00  0.00    +0.000 C 
BRANCH  17  18
ATOM     18  C   UNL     1      -0.469   9.628  21.472  0.00  0.00    +0.000 A 
ATOM     19  C   UNL     1      -0.683  10.081  22.791  0.00  0.00    +0.000 A 
ATOM     20  C   UNL     1      -0.945  11.433  23.050  0.00  0.00    +0.000 A 
ATOM     21  C   UNL     1      -1.010  12.346  21.999  0.00  0.00    +0.000 A 
ATOM     22  C   UNL     1      -0.817  11.914  20.685  0.00  0.00    +0.000 A 
ATOM     23  C   UNL     1      -0.548  10.563  20.413  0.00  0.00    +0.000 A 
ATOM     24 CL   UNL     1      -0.340  10.089  18.732  0.00  0.00    +0.000 Cl
ENDBRANCH  17  18
ENDBRANCH  16  17
ENDBRANCH   1  16
TORSDOF 6
ENDMDL
MODEL 5
REMARK VINA RESULT:      -7.3      1.874      3.032
REMARK  Name = 
REMARK  6 active torsions:
REMARK  status: ('A' for Active; 'I' for Inactive)
REMARK    1  A    between atoms: C_5  and  C_6
REMARK    2  A    between atoms: C_6  and  C_7
REMARK    3  A    between atoms: C_6  and  SE_13
REMARK    4  A    between atoms: C_7  and  N_8
REMARK    5  A    between atoms: SE_13  and  C_14
REMARK    6  A    between atoms: C_14  and  C_15
REMARK                            x       y       z     vdW  Elec       q    Type
REMARK                         _______ _______ _______ _____ _____    ______ ____
ROOT
ATOM      1  C   UNL     1       6.206   5.681  17.330  0.00  0.00    +0.000 C 
ENDROOT
BRANCH   1   6
ATOM      2 CL   UNL     1       9.487  10.618  18.906  0.00  0.00    +0.000 Cl
ATOM      3  C   UNL     1       8.556   9.204  18.447  0.00  0.00    +0.000 A 
ATOM      4  C   UNL     1       7.571   9.309  17.470  0.00  0.00    +0.000 A 
ATOM      5  C   UNL     1       6.825   8.190  17.100  0.00  0.00    +0.000 A 
ATOM      6  C   UNL     1       7.036   6.926  17.710  0.00  0.00    +0.000 A 
ATOM      7  C   UNL     1       8.049   6.840  18.703  0.00  0.00    +0.000 A 
ATOM      8 CL   UNL     1       8.411   5.341  19.556  0.00  0.00    +0.000 Cl
ATOM      9  C   UNL     1       8.797   7.974  19.058  0.00  0.00    +0.000 A 
ENDBRANCH   1   6
BRANCH   1  10
ATOM     10  C   UNL     1       7.021   4.540  16.668  0.00  0.00    +0.000 C 
BRANCH  10  11
ATOM     11  N   UNL     1       6.996   4.557  15.199  0.00  0.00    +0.000 N 
ATOM     12  C   UNL     1       6.245   3.754  14.425  0.00  0.00    +0.000 A 
ATOM     13  N   UNL     1       6.488   3.983  13.121  0.00  0.00    +0.000 NA
ATOM     14  C   UNL     1       7.414   4.963  13.144  0.00  0.00    +0.000 A 
ATOM     15  N   UNL     1       7.727   5.324  14.404  0.00  0.00    +0.000 NA
ENDBRANCH  10  11
ENDBRANCH   1  10
BRANCH   1  16
ATOM     16 SE   UNL     1       5.375   4.993  18.994  0.00  0.00    +0.000 Se
BRANCH  16  17
ATOM     17  C   UNL     1       3.549   5.711  18.831  0.00  0.00    +0.000 C 
BRANCH  17  18
ATOM     18  C   UNL     1       2.546   4.635  19.217  0.00  0.00    +0.000 A 
ATOM     19  C   UNL     1       1.993   4.627  20.515  0.00  0.00    +0.000 A 
ATOM     20  C   UNL     1       1.050   3.659  20.885  0.00  0.00    +0.000 A 
ATOM     21  C   UNL     1       0.656   2.682  19.972  0.00  0.00    +0.000 A 
ATOM     22  C   UNL     1       1.204   2.664  18.688  0.00  0.00    +0.000 A 
ATOM     23  C   UNL     1       2.146   3.631  18.303  0.00  0.00    +0.000 A 
ATOM     24 CL   UNL     1       2.810   3.531  16.677  0.00  0.00    +0.000 Cl
ENDBRANCH  17  18
ENDBRANCH  16  17
ENDBRANCH   1  16
TORSDOF 6
ENDMDL
MODEL 6
REMARK VINA RESULT:      -7.3      4.288      5.885
REMARK  Name = 
REMARK  6 active torsions:
REMARK  status: ('A' for Active; 'I' for Inactive)
REMARK    1  A    between atoms: C_5  and  C_6
REMARK    2  A    between atoms: C_6  and  C_7
REMARK    3  A    between atoms: C_6  and  SE_13
REMARK    4  A    between atoms: C_7  and  N_8
REMARK    5  A    between atoms: SE_13  and  C_14
REMARK    6  A    between atoms: C_14  and  C_15
REMARK                            x       y       z     vdW  Elec       q    Type
REMARK                         _______ _______ _______ _____ _____    ______ ____
ROOT
ATOM      1  C   UNL     1       1.822   6.278  19.940  0.00  0.00    +0.000 C 
ENDROOT
BRANCH   1   6
ATOM      2 CL   UNL     1       7.106   6.188  16.826  0.00  0.00    +0.000 Cl
ATOM      3  C   UNL     1       5.599   6.221  17.724  0.00  0.00    +0.000 A 
ATOM      4  C   UNL     1       5.431   5.392  18.828  0.00  0.00    +0.000 A 
ATOM      5  C   UNL     1       4.235   5.411  19.546  0.00  0.00    +0.000 A 
ATOM      6  C   UNL     1       3.160   6.258  19.171  0.00  0.00    +0.000 A 
ATOM      7  C   UNL     1       3.355   7.099  18.042  0.00  0.00    +0.000 A 
ATOM      8 CL   UNL     1       2.103   8.190  17.451  0.00  0.00    +0.000 Cl
ATOM      9  C   UNL     1       4.567   7.074  17.335  0.00  0.00    +0.000 A 
ENDBRANCH   1   6
BRANCH   1  10
ATOM     10  C   UNL     1       1.577   5.039  20.840  0.00  0.00    +0.000 C 
BRANCH  10  11
ATOM     11  N   UNL     1       1.469   3.772  20.103  0.00  0.00    +0.000 N 
ATOM     12  C   UNL     1       2.079   2.622  20.441  0.00  0.00    +0.000 A 
ATOM     13  N   UNL     1       1.819   1.660  19.536  0.00  0.00    +0.000 NA
ATOM     14  C   UNL     1       1.021   2.279  18.643  0.00  0.00    +0.000 A 
ATOM     15  N   UNL     1       0.797   3.565  18.981  0.00  0.00    +0.000 NA
ENDBRANCH  10  11
ENDBRANCH   1  10
BRANCH   1  16
ATOM     16 SE   UNL     1       1.815   7.905  21.075  0.00  0.00    +0.000 Se
BRANCH  16  17
ATOM     17  C   UNL     1      -0.107   8.333  21.109  0.00  0.00    +0.000 C 
BRANCH  17  18
ATOM     18  C   UNL     1      -0.314   9.765  20.640  0.00  0.00    +0.000 A 
ATOM     19  C   UNL     1      -0.168  10.081  19.273  0.00  0.00    +0.000 A 
ATOM     20  C   UNL     1      -0.377  11.389  18.815  0.00  0.00    +0.000 A 
ATOM     21  C   UNL     1      -0.720  12.398  19.714  0.00  0.00    +0.000 A 
ATOM     22  C   UNL     1      -0.854  12.108  21.073  0.00  0.00    +0.000 A 
ATOM     23  C   UNL     1      -0.652  10.801  21.544  0.00  0.00    +0.000 A 
ATOM     24 CL   UNL     1      -0.814  10.515  23.272  0.00  0.00    +0.000 Cl
ENDBRANCH  17  18
ENDBRANCH  16  17
ENDBRANCH   1  16
TORSDOF 6
ENDMDL
MODEL 7
REMARK VINA RESULT:      -7.2      4.453      6.285
REMARK  Name = 
REMARK  6 active torsions:
REMARK  status: ('A' for Active; 'I' for Inactive)
REMARK    1  A    between atoms: C_5  and  C_6
REMARK    2  A    between atoms: C_6  and  C_7
REMARK    3  A    between atoms: C_6  and  SE_13
REMARK    4  A    between atoms: C_7  and  N_8
REMARK    5  A    between atoms: SE_13  and  C_14
REMARK    6  A    between atoms: C_14  and  C_15
REMARK                            x       y       z     vdW  Elec       q    Type
REMARK                         _______ _______ _______ _____ _____    ______ ____
ROOT
ATOM      1  C   UNL     1       2.417   6.604  18.376  0.00  0.00    +0.000 C 
ENDROOT
BRANCH   1   6
ATOM      2 CL   UNL     1       7.265   4.460  15.289  0.00  0.00    +0.000 Cl
ATOM      3  C   UNL     1       5.874   5.078  16.162  0.00  0.00    +0.000 A 
ATOM      4  C   UNL     1       5.881   6.383  16.645  0.00  0.00    +0.000 A 
ATOM      5  C   UNL     1       4.780   6.880  17.341  0.00  0.00    +0.000 A 
ATOM      6  C   UNL     1       3.636   6.078  17.588  0.00  0.00    +0.000 A 
ATOM      7  C   UNL     1       3.649   4.749  17.084  0.00  0.00    +0.000 A 
ATOM      8 CL   UNL     1       2.307   3.633  17.328  0.00  0.00    +0.000 Cl
ATOM      9  C   UNL     1       4.761   4.266  16.378  0.00  0.00    +0.000 A 
ENDBRANCH   1   6
BRANCH   1  10
ATOM     10  C   UNL     1       2.528   6.450  19.914  0.00  0.00    +0.000 C 
BRANCH  10  11
ATOM     11  N   UNL     1       2.207   5.103  20.409  0.00  0.00    +0.000 N 
ATOM     12  C   UNL     1       0.987   4.538  20.387  0.00  0.00    +0.000 A 
ATOM     13  N   UNL     1       1.014   3.320  20.959  0.00  0.00    +0.000 NA
ATOM     14  C   UNL     1       2.306   3.175  21.320  0.00  0.00    +0.000 A 
ATOM     15  N   UNL     1       3.042   4.253  20.986  0.00  0.00    +0.000 NA
ENDBRANCH  10  11
ENDBRANCH   1  10
BRANCH   1  16
ATOM     16 SE   UNL     1       2.215   8.528  17.938  0.00  0.00    +0.000 Se
BRANCH  16  17
ATOM     17  C   UNL     1       0.981   9.111  19.357  0.00  0.00    +0.000 C 
BRANCH  17  18
ATOM     18  C   UNL     1       0.007  10.133  18.792  0.00  0.00    +0.000 A 
ATOM     19  C   UNL     1      -1.037   9.708  17.943  0.00  0.00    +0.000 A 
ATOM     20  C   UNL     1      -1.960  10.629  17.428  0.00  0.00    +0.000 A 
ATOM     21  C   UNL     1      -1.847  11.982  17.743  0.00  0.00    +0.000 A 
ATOM     22  C   UNL     1      -0.812  12.424  18.569  0.00  0.00    +0.000 A 
ATOM     23  C   UNL     1       0.117  11.511  19.095  0.00  0.00    +0.000 A 
ATOM     24 CL   UNL     1       1.408  12.143  20.108  0.00  0.00    +0.000 Cl
ENDBRANCH  17  18
ENDBRANCH  16  17
ENDBRANCH   1  16
TORSDOF 6
ENDMDL
MODEL 8
REMARK VINA RESULT:      -7.2      2.675      4.675
REMARK  Name = 
REMARK  6 active torsions:
REMARK  status: ('A' for Active; 'I' for Inactive)
REMARK    1  A    between atoms: C_5  and  C_6
REMARK    2  A    between atoms: C_6  and  C_7
REMARK    3  A    between atoms: C_6  and  SE_13
REMARK    4  A    between atoms: C_7  and  N_8
REMARK    5  A    between atoms: SE_13  and  C_14
REMARK    6  A    between atoms: C_14  and  C_15
REMARK                            x       y       z     vdW  Elec       q    Type
REMARK                         _______ _______ _______ _____ _____    ______ ____
ROOT
ATOM      1  C   UNL     1       3.680   6.420  17.761  0.00  0.00    +0.000 C 
ENDROOT
BRANCH   1   6
ATOM      2 CL   UNL     1       0.197  11.061  19.751  0.00  0.00    +0.000 Cl
ATOM      3  C   UNL     1       1.203   9.738  19.187  0.00  0.00    +0.000 A 
ATOM      4  C   UNL     1       1.952   9.883  18.024  0.00  0.00    +0.000 A 
ATOM      5  C   UNL     1       2.752   8.835  17.568  0.00  0.00    +0.000 A 
ATOM      6  C   UNL     1       2.817   7.598  18.261  0.00  0.00    +0.000 A 
ATOM      7  C   UNL     1       2.046   7.473  19.449  0.00  0.00    +0.000 A 
ATOM      8 CL   UNL     1       2.016   5.992  20.403  0.00  0.00    +0.000 Cl
ATOM      9  C   UNL     1       1.252   8.539  19.898  0.00  0.00    +0.000 A 
ENDBRANCH   1   6
BRANCH   1  10
ATOM     10  C   UNL     1       4.604   6.761  16.564  0.00  0.00    +0.000 C 
BRANCH  10  11
ATOM     11  N   UNL     1       5.493   5.662  16.158  0.00  0.00    +0.000 N 
ATOM     12  C   UNL     1       6.828   5.642  16.321  0.00  0.00    +0.000 A 
ATOM     13  N   UNL     1       7.356   4.519  15.799  0.00  0.00    +0.000 NA
ATOM     14  C   UNL     1       6.280   3.862  15.322  0.00  0.00    +0.000 A 
ATOM     15  N   UNL     1       5.140   4.546  15.539  0.00  0.00    +0.000 NA
ENDBRANCH  10  11
ENDBRANCH   1  10
BRANCH   1  16
ATOM     16 SE   UNL     1       4.800   5.818  19.283  0.00  0.00    +0.000 Se
BRANCH  16  17
ATOM     17  C   UNL     1       4.761   3.865  19.031  0.00  0.00    +0.000 C 
BRANCH  17  18
ATOM     18  C   UNL     1       3.466   3.308  19.601  0.00  0.00    +0.000 A 
ATOM     19  C   UNL     1       3.362   3.056  20.986  0.00  0.00    +0.000 A 
ATOM     20  C   UNL     1       2.171   2.564  21.536  0.00  0.00    +0.000 A 
ATOM     21  C   UNL     1       1.076   2.306  20.714  0.00  0.00    +0.000 A 
ATOM     22  C   UNL     1       1.164   2.534  19.340  0.00  0.00    +0.000 A 
ATOM     23  C   UNL     1       2.350   3.031  18.776  0.00  0.00    +0.000 A 
ATOM     24 CL   UNL     1       2.395   3.271  17.034  0.00  0.00    +0.000 Cl
ENDBRANCH  17  18
ENDBRANCH  16  17
ENDBRANCH   1  16
TORSDOF 6
ENDMDL
MODEL 9
REMARK VINA RESULT:      -7.1      4.135      6.083
REMARK  Name = 
REMARK  6 active torsions:
REMARK  status: ('A' for Active; 'I' for Inactive)
REMARK    1  A    between atoms: C_5  and  C_6
REMARK    2  A    between atoms: C_6  and  C_7
REMARK    3  A    between atoms: C_6  and  SE_13
REMARK    4  A    between atoms: C_7  and  N_8
REMARK    5  A    between atoms: SE_13  and  C_14
REMARK    6  A    between atoms: C_14  and  C_15
REMARK                            x       y       z     vdW  Elec       q    Type
REMARK                         _______ _______ _______ _____ _____    ______ ____
ROOT
ATOM      1  C   UNL     1       2.397   6.868  18.483  0.00  0.00    +0.000 C 
ENDROOT
BRANCH   1   6
ATOM      2 CL   UNL     1       7.129   4.356  15.496  0.00  0.00    +0.000 Cl
ATOM      3  C   UNL     1       5.772   5.080  16.341  0.00  0.00    +0.000 A 
ATOM      4  C   UNL     1       5.882   6.368  16.855  0.00  0.00    +0.000 A 
ATOM      5  C   UNL     1       4.808   6.949  17.529  0.00  0.00    +0.000 A 
ATOM      6  C   UNL     1       3.588   6.249  17.721  0.00  0.00    +0.000 A 
ATOM      7  C   UNL     1       3.497   4.936  17.185  0.00  0.00    +0.000 A 
ATOM      8 CL   UNL     1       2.052   3.943  17.361  0.00  0.00    +0.000 Cl
ATOM      9  C   UNL     1       4.584   4.368  16.502  0.00  0.00    +0.000 A 
ENDBRANCH   1   6
BRANCH   1  10
ATOM     10  C   UNL     1       2.428   6.646  20.017  0.00  0.00    +0.000 C 
BRANCH  10  11
ATOM     11  N   UNL     1       2.143   5.265  20.431  0.00  0.00    +0.000 N 
ATOM     12  C   UNL     1       3.068   4.353  20.783  0.00  0.00    +0.000 A 
ATOM     13  N   UNL     1       2.490   3.169  21.060  0.00  0.00    +0.000 NA
ATOM     14  C   UNL     1       1.177   3.410  20.865  0.00  0.00    +0.000 A 
ATOM     15  N   UNL     1       0.954   4.684  20.487  0.00  0.00    +0.000 NA
ENDBRANCH  10  11
ENDBRANCH   1  10
BRANCH   1  16
ATOM     16 SE   UNL     1       2.408   8.817  18.118  0.00  0.00    +0.000 Se
BRANCH  16  17
ATOM     17  C   UNL     1       0.497   9.250  18.314  0.00  0.00    +0.000 C 
BRANCH  17  18
ATOM     18  C   UNL     1       0.252   9.839  19.694  0.00  0.00    +0.000 A 
ATOM     19  C   UNL     1      -0.068   8.987  20.772  0.00  0.00    +0.000 A 
ATOM     20  C   UNL     1      -0.276   9.505  22.057  0.00  0.00    +0.000 A 
ATOM     21  C   UNL     1      -0.180  10.878  22.281  0.00  0.00    +0.000 A 
ATOM     22  C   UNL     1       0.121  11.739  21.225  0.00  0.00    +0.000 A 
ATOM     23  C   UNL     1       0.336  11.232  19.933  0.00  0.00    +0.000 A 
ATOM     24 CL   UNL     1       0.687  12.380  18.647  0.00  0.00    +0.000 Cl
ENDBRANCH  17  18
ENDBRANCH  16  17
ENDBRANCH   1  16
TORSDOF 6
ENDMDL
