MODEL 1
REMARK VINA RESULT:      -8.6      0.000      0.000
REMARK  Name = 
REMARK  7 active torsions:
REMARK  status: ('A' for Active; 'I' for Inactive)
REMARK    1  A    between atoms: C_1  and  C_2
REMARK    2  A    between atoms: C_2  and  N_3
REMARK    3  A    between atoms: C_2  and  C_19
REMARK    4  A    between atoms: C_9  and  N_10
REMARK    5  A    between atoms: C_15  and  C_16
REMARK    6  A    between atoms: N_21  and  C_22
REMARK    7  A    between atoms: C_25  and  C_26
REMARK                            x       y       z     vdW  Elec       q    Type
REMARK                         _______ _______ _______ _____ _____    ______ ____
ROOT
ATOM      1  N   UNL     1       1.720   6.761  19.695  0.00  0.00    +0.000 N 
ATOM      2  C   UNL     1       2.617   5.724  19.770  0.00  0.00    +0.000 A 
ATOM      3  N   UNL     1       2.177   4.654  20.449  0.00  0.00    +0.000 NA
ATOM      4  C   UNL     1       2.943   3.547  20.421  0.00  0.00    +0.000 A 
ATOM      5  C   UNL     1       4.127   3.478  19.736  0.00  0.00    +0.000 A 
ATOM      6  F   UNL     1       4.846   2.346  19.729  0.00  0.00    +0.000 F 
ATOM      7  C   UNL     1       4.538   4.633  19.097  0.00  0.00    +0.000 A 
ATOM      8  N   UNL     1       3.784   5.753  19.108  0.00  0.00    +0.000 NA
ATOM      9  H   UNL     1       1.096   6.736  20.489  0.00  0.00    +0.000 HD
ENDROOT
BRANCH   7  10
ATOM     10  N   UNL     1       5.730   4.653  18.342  0.00  0.00    +0.000 N 
ATOM     11  C   UNL     1       6.943   5.083  18.829  0.00  0.00    +0.000 C 
ATOM     12  O   UNL     1       7.225   5.458  19.954  0.00  0.00    +0.000 OA
ATOM     13  O   UNL     1       7.898   4.961  17.855  0.00  0.00    +0.000 OA
ATOM     14  C   UNL     1       7.267   4.601  16.624  0.00  0.00    +0.000 C 
ATOM     15  C   UNL     1       5.851   4.188  16.990  0.00  0.00    +0.000 C 
BRANCH  15  16
ATOM     16  C   UNL     1       4.861   4.823  16.017  0.00  0.00    +0.000 C 
ATOM     17  F   UNL     1       4.998   6.175  16.063  0.00  0.00    +0.000 F 
ENDBRANCH  15  16
ENDBRANCH   7  10
BRANCH   1  19
ATOM     18  C   UNL     1       2.404   8.006  17.750  0.00  0.00    +0.000 C 
ATOM     19  C   UNL     1       2.157   8.076  19.268  0.00  0.00    +0.000 C 
BRANCH  19  20
ATOM     20  C   UNL     1       1.276   9.263  19.567  0.00  0.00    +0.000 A 
ATOM     21  C   UNL     1       0.458   9.922  18.676  0.00  0.00    +0.000 A 
ATOM     22  N   UNL     1      -0.488  10.566  19.438  0.00  0.00    +0.000 N 
ATOM     23  C   UNL     1       0.009  10.535  20.725  0.00  0.00    +0.000 A 
ATOM     24  N   UNL     1       1.049   9.735  20.841  0.00  0.00    +0.000 NA
BRANCH  22  25
ATOM     25  C   UNL     1      -1.765  11.014  18.996  0.00  0.00    +0.000 A 
ATOM     26  C   UNL     1      -2.393  10.375  17.916  0.00  0.00    +0.000 A 
ATOM     27  C   UNL     1      -3.708  10.694  17.569  0.00  0.00    +0.000 A 
ATOM     28  C   UNL     1      -4.421  11.657  18.289  0.00  0.00    +0.000 A 
ATOM     29  C   UNL     1      -3.782  12.321  19.345  0.00  0.00    +0.000 A 
ATOM     30  C   UNL     1      -2.463  12.005  19.698  0.00  0.00    +0.000 A 
BRANCH  28  31
ATOM     31  C   UNL     1      -5.838  11.994  17.903  0.00  0.00    +0.000 C 
ATOM     32  F   UNL     1      -5.933  12.573  16.673  0.00  0.00    +0.000 F 
ATOM     33  F   UNL     1      -6.654  10.903  17.858  0.00  0.00    +0.000 F 
ENDBRANCH  28  31
ENDBRANCH  22  25
ENDBRANCH  19  20
ENDBRANCH   1  19
TORSDOF 6
ENDMDL
MODEL 2
REMARK VINA RESULT:      -8.4      2.273      2.704
REMARK  Name = 
REMARK  7 active torsions:
REMARK  status: ('A' for Active; 'I' for Inactive)
REMARK    1  A    between atoms: C_1  and  C_2
REMARK    2  A    between atoms: C_2  and  N_3
REMARK    3  A    between atoms: C_2  and  C_19
REMARK    4  A    between atoms: C_9  and  N_10
REMARK    5  A    between atoms: C_15  and  C_16
REMARK    6  A    between atoms: N_21  and  C_22
REMARK    7  A    between atoms: C_25  and  C_26
REMARK                            x       y       z     vdW  Elec       q    Type
REMARK                         _______ _______ _______ _____ _____    ______ ____
ROOT
ATOM      1  N   UNL     1       1.525   6.519  18.655  0.00  0.00    +0.000 N 
ATOM      2  C   UNL     1       2.278   5.389  18.448  0.00  0.00    +0.000 A 
ATOM      3  N   UNL     1       1.586   4.241  18.493  0.00  0.00    +0.000 NA
ATOM      4  C   UNL     1       2.234   3.115  18.140  0.00  0.00    +0.000 A 
ATOM      5  C   UNL     1       3.544   3.103  17.741  0.00  0.00    +0.000 A 
ATOM      6  F   UNL     1       4.139   1.955  17.386  0.00  0.00    +0.000 F 
ATOM      7  C   UNL     1       4.206   4.317  17.762  0.00  0.00    +0.000 A 
ATOM      8  N   UNL     1       3.575   5.460  18.109  0.00  0.00    +0.000 NA
ATOM      9  H   UNL     1       0.717   6.296  19.218  0.00  0.00    +0.000 HD
ENDROOT
BRANCH   7  10
ATOM     10  N   UNL     1       5.550   4.412  17.342  0.00  0.00    +0.000 N 
ATOM     11  C   UNL     1       6.601   4.690  18.185  0.00  0.00    +0.000 C 
ATOM     12  O   UNL     1       6.591   4.846  19.394  0.00  0.00    +0.000 OA
ATOM     13  O   UNL     1       7.771   4.695  17.472  0.00  0.00    +0.000 OA
ATOM     14  C   UNL     1       7.470   4.589  16.079  0.00  0.00    +0.000 C 
ATOM     15  C   UNL     1       6.007   4.187  16.001  0.00  0.00    +0.000 C 
BRANCH  15  16
ATOM     16  C   UNL     1       5.295   5.032  14.947  0.00  0.00    +0.000 C 
ATOM     17  F   UNL     1       5.257   6.325  15.364  0.00  0.00    +0.000 F 
ENDBRANCH  15  16
ENDBRANCH   7  10
BRANCH   1  19
ATOM     18  C   UNL     1       2.027   8.662  17.678  0.00  0.00    +0.000 C 
ATOM     19  C   UNL     1       2.170   7.786  18.936  0.00  0.00    +0.000 C 
BRANCH  19  20
ATOM     20  C   UNL     1       1.718   8.576  20.138  0.00  0.00    +0.000 A 
ATOM     21  C   UNL     1       1.196   9.851  20.132  0.00  0.00    +0.000 A 
ATOM     22  N   UNL     1       0.487   9.974  21.304  0.00  0.00    +0.000 N 
ATOM     23  C   UNL     1       0.897   8.911  22.082  0.00  0.00    +0.000 A 
ATOM     24  N   UNL     1       1.611   8.037  21.401  0.00  0.00    +0.000 NA
BRANCH  22  25
ATOM     25  C   UNL     1      -0.554  10.909  21.565  0.00  0.00    +0.000 A 
ATOM     26  C   UNL     1      -1.152  11.603  20.502  0.00  0.00    +0.000 A 
ATOM     27  C   UNL     1      -2.276  12.403  20.719  0.00  0.00    +0.000 A 
ATOM     28  C   UNL     1      -2.824  12.530  21.999  0.00  0.00    +0.000 A 
ATOM     29  C   UNL     1      -2.205  11.866  23.067  0.00  0.00    +0.000 A 
ATOM     30  C   UNL     1      -1.078  11.061  22.856  0.00  0.00    +0.000 A 
BRANCH  28  31
ATOM     31  C   UNL     1      -4.036  13.398  22.220  0.00  0.00    +0.000 C 
ATOM     32  F   UNL     1      -5.201  12.690  22.249  0.00  0.00    +0.000 F 
ATOM     33  F   UNL     1      -3.994  14.084  23.397  0.00  0.00    +0.000 F 
ENDBRANCH  28  31
ENDBRANCH  22  25
ENDBRANCH  19  20
ENDBRANCH   1  19
TORSDOF 6
ENDMDL
MODEL 3
REMARK VINA RESULT:      -8.4      2.552      3.020
REMARK  Name = 
REMARK  7 active torsions:
REMARK  status: ('A' for Active; 'I' for Inactive)
REMARK    1  A    between atoms: C_1  and  C_2
REMARK    2  A    between atoms: C_2  and  N_3
REMARK    3  A    between atoms: C_2  and  C_19
REMARK    4  A    between atoms: C_9  and  N_10
REMARK    5  A    between atoms: C_15  and  C_16
REMARK    6  A    between atoms: N_21  and  C_22
REMARK    7  A    between atoms: C_25  and  C_26
REMARK                            x       y       z     vdW  Elec       q    Type
REMARK                         _______ _______ _______ _____ _____    ______ ____
ROOT
ATOM      1  N   UNL     1       1.715   7.020  19.493  0.00  0.00    +0.000 N 
ATOM      2  C   UNL     1       2.588   5.969  19.638  0.00  0.00    +0.000 A 
ATOM      3  N   UNL     1       2.112   4.944  20.359  0.00  0.00    +0.000 NA
ATOM      4  C   UNL     1       2.854   3.821  20.400  0.00  0.00    +0.000 A 
ATOM      5  C   UNL     1       4.049   3.693  19.743  0.00  0.00    +0.000 A 
ATOM      6  F   UNL     1       4.743   2.547  19.806  0.00  0.00    +0.000 F 
ATOM      7  C   UNL     1       4.497   4.806  19.057  0.00  0.00    +0.000 A 
ATOM      8  N   UNL     1       3.767   5.942  18.998  0.00  0.00    +0.000 NA
ATOM      9  H   UNL     1       1.075   7.047  20.275  0.00  0.00    +0.000 HD
ENDROOT
BRANCH   7  10
ATOM     10  N   UNL     1       5.703   4.765  18.326  0.00  0.00    +0.000 N 
ATOM     11  C   UNL     1       6.927   5.129  18.839  0.00  0.00    +0.000 C 
ATOM     12  O   UNL     1       7.206   5.487  19.970  0.00  0.00    +0.000 OA
ATOM     13  O   UNL     1       7.894   4.958  17.883  0.00  0.00    +0.000 OA
ATOM     14  C   UNL     1       7.269   4.633  16.639  0.00  0.00    +0.000 C 
ATOM     15  C   UNL     1       5.827   4.296  16.975  0.00  0.00    +0.000 C 
BRANCH  15  16
ATOM     16  C   UNL     1       4.891   4.984  15.985  0.00  0.00    +0.000 C 
ATOM     17  F   UNL     1       5.098   4.468  14.744  0.00  0.00    +0.000 F 
ENDBRANCH  15  16
ENDBRANCH   7  10
BRANCH   1  19
ATOM     18  C   UNL     1       2.621   8.110  17.547  0.00  0.00    +0.000 C 
ATOM     19  C   UNL     1       2.188   8.303  19.012  0.00  0.00    +0.000 C 
BRANCH  19  20
ATOM     20  C   UNL     1       1.267   9.493  19.099  0.00  0.00    +0.000 A 
ATOM     21  C   UNL     1       0.090   9.568  19.811  0.00  0.00    +0.000 A 
ATOM     22  N   UNL     1      -0.142  10.907  20.017  0.00  0.00    +0.000 N 
ATOM     23  C   UNL     1       0.709  11.554  19.146  0.00  0.00    +0.000 A 
ATOM     24  N   UNL     1       1.588  10.737  18.603  0.00  0.00    +0.000 NA
BRANCH  22  25
ATOM     25  C   UNL     1      -0.966  11.474  21.030  0.00  0.00    +0.000 A 
ATOM     26  C   UNL     1      -1.991  12.367  20.677  0.00  0.00    +0.000 A 
ATOM     27  C   UNL     1      -2.907  12.810  21.634  0.00  0.00    +0.000 A 
ATOM     28  C   UNL     1      -2.820  12.375  22.960  0.00  0.00    +0.000 A 
ATOM     29  C   UNL     1      -1.775  11.513  23.320  0.00  0.00    +0.000 A 
ATOM     30  C   UNL     1      -0.853  11.064  22.365  0.00  0.00    +0.000 A 
BRANCH  28  31
ATOM     31  C   UNL     1      -3.813  12.862  23.982  0.00  0.00    +0.000 C 
ATOM     32  F   UNL     1      -4.262  11.871  24.804  0.00  0.00    +0.000 F 
ATOM     33  F   UNL     1      -3.305  13.820  24.808  0.00  0.00    +0.000 F 
ENDBRANCH  28  31
ENDBRANCH  22  25
ENDBRANCH  19  20
ENDBRANCH   1  19
TORSDOF 6
ENDMDL
MODEL 4
REMARK VINA RESULT:      -8.4      0.585      1.156
REMARK  Name = 
REMARK  7 active torsions:
REMARK  status: ('A' for Active; 'I' for Inactive)
REMARK    1  A    between atoms: C_1  and  C_2
REMARK    2  A    between atoms: C_2  and  N_3
REMARK    3  A    between atoms: C_2  and  C_19
REMARK    4  A    between atoms: C_9  and  N_10
REMARK    5  A    between atoms: C_15  and  C_16
REMARK    6  A    between atoms: N_21  and  C_22
REMARK    7  A    between atoms: C_25  and  C_26
REMARK                            x       y       z     vdW  Elec       q    Type
REMARK                         _______ _______ _______ _____ _____    ______ ____
ROOT
ATOM      1  N   UNL     1       1.728   6.874  19.567  0.00  0.00    +0.000 N 
ATOM      2  C   UNL     1       2.617   5.833  19.678  0.00  0.00    +0.000 A 
ATOM      3  N   UNL     1       2.159   4.780  20.371  0.00  0.00    +0.000 NA
ATOM      4  C   UNL     1       2.918   3.668  20.378  0.00  0.00    +0.000 A 
ATOM      5  C   UNL     1       4.113   3.576  19.714  0.00  0.00    +0.000 A 
ATOM      6  F   UNL     1       4.823   2.440  19.742  0.00  0.00    +0.000 F 
ATOM      7  C   UNL     1       4.542   4.715  19.058  0.00  0.00    +0.000 A 
ATOM      8  N   UNL     1       3.795   5.841  19.034  0.00  0.00    +0.000 NA
ATOM      9  H   UNL     1       1.091   6.869  20.351  0.00  0.00    +0.000 HD
ENDROOT
BRANCH   7  10
ATOM     10  N   UNL     1       5.745   4.712  18.322  0.00  0.00    +0.000 N 
ATOM     11  C   UNL     1       6.959   5.114  18.831  0.00  0.00    +0.000 C 
ATOM     12  O   UNL     1       7.231   5.477  19.962  0.00  0.00    +0.000 OA
ATOM     13  O   UNL     1       7.927   4.974  17.872  0.00  0.00    +0.000 OA
ATOM     14  C   UNL     1       7.308   4.633  16.630  0.00  0.00    +0.000 C 
ATOM     15  C   UNL     1       5.878   4.250  16.970  0.00  0.00    +0.000 C 
BRANCH  15  16
ATOM     16  C   UNL     1       4.918   4.912  15.985  0.00  0.00    +0.000 C 
ATOM     17  F   UNL     1       4.978   4.255  14.796  0.00  0.00    +0.000 F 
ENDBRANCH  15  16
ENDBRANCH   7  10
BRANCH   1  19
ATOM     18  C   UNL     1       2.606   8.034  17.647  0.00  0.00    +0.000 C 
ATOM     19  C   UNL     1       2.181   8.177  19.120  0.00  0.00    +0.000 C 
BRANCH  19  20
ATOM     20  C   UNL     1       1.244   9.351  19.249  0.00  0.00    +0.000 A 
ATOM     21  C   UNL     1       0.334   9.781  18.308  0.00  0.00    +0.000 A 
ATOM     22  N   UNL     1      -0.606  10.510  18.998  0.00  0.00    +0.000 N 
ATOM     23  C   UNL     1      -0.035  10.754  20.229  0.00  0.00    +0.000 A 
ATOM     24  N   UNL     1       1.060  10.047  20.423  0.00  0.00    +0.000 NA
BRANCH  22  25
ATOM     25  C   UNL     1      -1.933  10.796  18.568  0.00  0.00    +0.000 A 
ATOM     26  C   UNL     1      -2.725  11.694  19.299  0.00  0.00    +0.000 A 
ATOM     27  C   UNL     1      -3.966  12.107  18.811  0.00  0.00    +0.000 A 
ATOM     28  C   UNL     1      -4.444  11.631  17.585  0.00  0.00    +0.000 A 
ATOM     29  C   UNL     1      -3.669  10.705  16.873  0.00  0.00    +0.000 A 
ATOM     30  C   UNL     1      -2.422  10.288  17.357  0.00  0.00    +0.000 A 
BRANCH  28  31
ATOM     31  C   UNL     1      -5.786  12.082  17.070  0.00  0.00    +0.000 C 
ATOM     32  F   UNL     1      -6.830  11.446  17.673  0.00  0.00    +0.000 F 
ATOM     33  F   UNL     1      -6.011  13.413  17.257  0.00  0.00    +0.000 F 
ENDBRANCH  28  31
ENDBRANCH  22  25
ENDBRANCH  19  20
ENDBRANCH   1  19
TORSDOF 6
ENDMDL
MODEL 5
REMARK VINA RESULT:      -8.3      4.302      9.689
REMARK  Name = 
REMARK  7 active torsions:
REMARK  status: ('A' for Active; 'I' for Inactive)
REMARK    1  A    between atoms: C_1  and  C_2
REMARK    2  A    between atoms: C_2  and  N_3
REMARK    3  A    between atoms: C_2  and  C_19
REMARK    4  A    between atoms: C_9  and  N_10
REMARK    5  A    between atoms: C_15  and  C_16
REMARK    6  A    between atoms: N_21  and  C_22
REMARK    7  A    between atoms: C_25  and  C_26
REMARK                            x       y       z     vdW  Elec       q    Type
REMARK                         _______ _______ _______ _____ _____    ______ ____
ROOT
ATOM      1  N   UNL     1       0.297   9.732  19.756  0.00  0.00    +0.000 N 
ATOM      2  C   UNL     1       0.390  11.057  19.405  0.00  0.00    +0.000 A 
ATOM      3  N   UNL     1      -0.619  11.504  18.642  0.00  0.00    +0.000 NA
ATOM      4  C   UNL     1      -0.670  12.828  18.401  0.00  0.00    +0.000 A 
ATOM      5  C   UNL     1       0.250  13.712  18.899  0.00  0.00    +0.000 A 
ATOM      6  F   UNL     1       0.145  15.024  18.640  0.00  0.00    +0.000 F 
ATOM      7  C   UNL     1       1.285  13.173  19.640  0.00  0.00    +0.000 A 
ATOM      8  N   UNL     1       1.354  11.849  19.898  0.00  0.00    +0.000 NA
ATOM      9  H   UNL     1      -0.235   9.228  19.060  0.00  0.00    +0.000 HD
ENDROOT
BRANCH   7  10
ATOM     10  N   UNL     1       2.267  14.005  20.219  0.00  0.00    +0.000 N 
ATOM     11  C   UNL     1       2.146  14.590  21.459  0.00  0.00    +0.000 C 
ATOM     12  O   UNL     1       1.250  14.470  22.276  0.00  0.00    +0.000 OA
ATOM     13  O   UNL     1       3.273  15.319  21.732  0.00  0.00    +0.000 OA
ATOM     14  C   UNL     1       4.096  15.364  20.566  0.00  0.00    +0.000 C 
ATOM     15  C   UNL     1       3.534  14.315  19.621  0.00  0.00    +0.000 C 
BRANCH  15  16
ATOM     16  C   UNL     1       3.437  14.890  18.210  0.00  0.00    +0.000 C 
ATOM     17  F   UNL     1       4.614  14.682  17.563  0.00  0.00    +0.000 F 
ENDBRANCH  15  16
ENDBRANCH   7  10
BRANCH   1  19
ATOM     18  C   UNL     1       1.210   8.903  21.824  0.00  0.00    +0.000 C 
ATOM     19  C   UNL     1       1.444   9.040  20.308  0.00  0.00    +0.000 C 
BRANCH  19  20
ATOM     20  C   UNL     1       1.814   7.690  19.746  0.00  0.00    +0.000 A 
ATOM     21  C   UNL     1       2.249   7.427  18.465  0.00  0.00    +0.000 A 
ATOM     22  N   UNL     1       2.922   6.231  18.534  0.00  0.00    +0.000 N 
ATOM     23  C   UNL     1       2.568   5.692  19.753  0.00  0.00    +0.000 A 
ATOM     24  N   UNL     1       1.930   6.555  20.517  0.00  0.00    +0.000 NA
BRANCH  22  25
ATOM     25  C   UNL     1       3.891   5.754  17.606  0.00  0.00    +0.000 A 
ATOM     26  C   UNL     1       4.078   4.373  17.439  0.00  0.00    +0.000 A 
ATOM     27  C   UNL     1       4.907   3.886  16.427  0.00  0.00    +0.000 A 
ATOM     28  C   UNL     1       5.568   4.764  15.562  0.00  0.00    +0.000 A 
ATOM     29  C   UNL     1       5.410   6.144  15.752  0.00  0.00    +0.000 A 
ATOM     30  C   UNL     1       4.579   6.639  16.765  0.00  0.00    +0.000 A 
BRANCH  28  31
ATOM     31  C   UNL     1       6.462   4.225  14.475  0.00  0.00    +0.000 C 
ATOM     32  F   UNL     1       5.769   3.740  13.407  0.00  0.00    +0.000 F 
ATOM     33  F   UNL     1       7.310   5.163  13.967  0.00  0.00    +0.000 F 
ENDBRANCH  28  31
ENDBRANCH  22  25
ENDBRANCH  19  20
ENDBRANCH   1  19
TORSDOF 6
ENDMDL
MODEL 6
REMARK VINA RESULT:      -8.2      1.713      2.121
REMARK  Name = 
REMARK  7 active torsions:
REMARK  status: ('A' for Active; 'I' for Inactive)
REMARK    1  A    between atoms: C_1  and  C_2
REMARK    2  A    between atoms: C_2  and  N_3
REMARK    3  A    between atoms: C_2  and  C_19
REMARK    4  A    between atoms: C_9  and  N_10
REMARK    5  A    between atoms: C_15  and  C_16
REMARK    6  A    between atoms: N_21  and  C_22
REMARK    7  A    between atoms: C_25  and  C_26
REMARK                            x       y       z     vdW  Elec       q    Type
REMARK                         _______ _______ _______ _____ _____    ______ ____
ROOT
ATOM      1  N   UNL     1       1.644   6.385  20.174  0.00  0.00    +0.000 N 
ATOM      2  C   UNL     1       2.553   5.360  20.086  0.00  0.00    +0.000 A 
ATOM      3  N   UNL     1       2.139   4.200  20.617  0.00  0.00    +0.000 NA
ATOM      4  C   UNL     1       2.917   3.118  20.419  0.00  0.00    +0.000 A 
ATOM      5  C   UNL     1       4.087   3.161  19.707  0.00  0.00    +0.000 A 
ATOM      6  F   UNL     1       4.817   2.051  19.528  0.00  0.00    +0.000 F 
ATOM      7  C   UNL     1       4.471   4.399  19.228  0.00  0.00    +0.000 A 
ATOM      8  N   UNL     1       3.705   5.497  19.410  0.00  0.00    +0.000 NA
ATOM      9  H   UNL     1       1.037   6.240  20.968  0.00  0.00    +0.000 HD
ENDROOT
BRANCH   7  10
ATOM     10  N   UNL     1       5.646   4.541  18.459  0.00  0.00    +0.000 N 
ATOM     11  C   UNL     1       6.823   5.066  18.942  0.00  0.00    +0.000 C 
ATOM     12  O   UNL     1       7.086   5.439  20.072  0.00  0.00    +0.000 OA
ATOM     13  O   UNL     1       7.771   5.049  17.954  0.00  0.00    +0.000 OA
ATOM     14  C   UNL     1       7.157   4.661  16.723  0.00  0.00    +0.000 C 
ATOM     15  C   UNL     1       5.788   4.118  17.096  0.00  0.00    +0.000 C 
BRANCH  15  16
ATOM     16  C   UNL     1       4.733   4.684  16.150  0.00  0.00    +0.000 C 
ATOM     17  F   UNL     1       5.144   4.506  14.866  0.00  0.00    +0.000 F 
ENDBRANCH  15  16
ENDBRANCH   7  10
BRANCH   1  19
ATOM     18  C   UNL     1       1.711   8.077  18.461  0.00  0.00    +0.000 C 
ATOM     19  C   UNL     1       2.057   7.752  19.926  0.00  0.00    +0.000 C 
BRANCH  19  20
ATOM     20  C   UNL     1       1.513   8.844  20.812  0.00  0.00    +0.000 A 
ATOM     21  C   UNL     1       0.904  10.009  20.399  0.00  0.00    +0.000 A 
ATOM     22  N   UNL     1       0.151  10.440  21.465  0.00  0.00    +0.000 N 
ATOM     23  C   UNL     1       0.608   9.710  22.543  0.00  0.00    +0.000 A 
ATOM     24  N   UNL     1       1.402   8.723  22.180  0.00  0.00    +0.000 NA
BRANCH  22  25
ATOM     25  C   UNL     1      -0.961  11.328  21.408  0.00  0.00    +0.000 A 
ATOM     26  C   UNL     1      -1.451  11.753  20.163  0.00  0.00    +0.000 A 
ATOM     27  C   UNL     1      -2.632  12.494  20.080  0.00  0.00    +0.000 A 
ATOM     28  C   UNL     1      -3.345  12.829  21.236  0.00  0.00    +0.000 A 
ATOM     29  C   UNL     1      -2.836  12.436  22.481  0.00  0.00    +0.000 A 
ATOM     30  C   UNL     1      -1.652  11.691  22.571  0.00  0.00    +0.000 A 
BRANCH  28  31
ATOM     31  C   UNL     1      -4.617  13.631  21.133  0.00  0.00    +0.000 C 
ATOM     32  F   UNL     1      -5.666  12.908  20.649  0.00  0.00    +0.000 F 
ATOM     33  F   UNL     1      -5.035  14.126  22.332  0.00  0.00    +0.000 F 
ENDBRANCH  28  31
ENDBRANCH  22  25
ENDBRANCH  19  20
ENDBRANCH   1  19
TORSDOF 6
ENDMDL
MODEL 7
REMARK VINA RESULT:      -8.2      2.248      2.747
REMARK  Name = 
REMARK  7 active torsions:
REMARK  status: ('A' for Active; 'I' for Inactive)
REMARK    1  A    between atoms: C_1  and  C_2
REMARK    2  A    between atoms: C_2  and  N_3
REMARK    3  A    between atoms: C_2  and  C_19
REMARK    4  A    between atoms: C_9  and  N_10
REMARK    5  A    between atoms: C_15  and  C_16
REMARK    6  A    between atoms: N_21  and  C_22
REMARK    7  A    between atoms: C_25  and  C_26
REMARK                            x       y       z     vdW  Elec       q    Type
REMARK                         _______ _______ _______ _____ _____    ______ ____
ROOT
ATOM      1  N   UNL     1       1.546   6.468  18.735  0.00  0.00    +0.000 N 
ATOM      2  C   UNL     1       2.296   5.339  18.513  0.00  0.00    +0.000 A 
ATOM      3  N   UNL     1       1.606   4.190  18.573  0.00  0.00    +0.000 NA
ATOM      4  C   UNL     1       2.248   3.065  18.205  0.00  0.00    +0.000 A 
ATOM      5  C   UNL     1       3.550   3.054  17.780  0.00  0.00    +0.000 A 
ATOM      6  F   UNL     1       4.138   1.907  17.412  0.00  0.00    +0.000 F 
ATOM      7  C   UNL     1       4.210   4.269  17.786  0.00  0.00    +0.000 A 
ATOM      8  N   UNL     1       3.585   5.411  18.146  0.00  0.00    +0.000 NA
ATOM      9  H   UNL     1       0.750   6.244  19.315  0.00  0.00    +0.000 HD
ENDROOT
BRANCH   7  10
ATOM     10  N   UNL     1       5.545   4.366  17.339  0.00  0.00    +0.000 N 
ATOM     11  C   UNL     1       6.611   4.660  18.157  0.00  0.00    +0.000 C 
ATOM     12  O   UNL     1       6.625   4.832  19.363  0.00  0.00    +0.000 OA
ATOM     13  O   UNL     1       7.767   4.662  17.420  0.00  0.00    +0.000 OA
ATOM     14  C   UNL     1       7.439   4.535  16.035  0.00  0.00    +0.000 C 
ATOM     15  C   UNL     1       5.976   4.125  15.992  0.00  0.00    +0.000 C 
BRANCH  15  16
ATOM     16  C   UNL     1       5.240   4.952  14.941  0.00  0.00    +0.000 C 
ATOM     17  F   UNL     1       5.254   6.260  15.313  0.00  0.00    +0.000 F 
ENDBRANCH  15  16
ENDBRANCH   7  10
BRANCH   1  19
ATOM     18  C   UNL     1       2.101   8.579  17.718  0.00  0.00    +0.000 C 
ATOM     19  C   UNL     1       2.196   7.736  19.003  0.00  0.00    +0.000 C 
BRANCH  19  20
ATOM     20  C   UNL     1       1.715   8.562  20.169  0.00  0.00    +0.000 A 
ATOM     21  C   UNL     1       1.096   9.791  20.103  0.00  0.00    +0.000 A 
ATOM     22  N   UNL     1       0.411   9.931  21.287  0.00  0.00    +0.000 N 
ATOM     23  C   UNL     1       0.922   8.953  22.113  0.00  0.00    +0.000 A 
ATOM     24  N   UNL     1       1.683   8.095  21.465  0.00  0.00    +0.000 NA
BRANCH  22  25
ATOM     25  C   UNL     1      -0.693  10.800  21.524  0.00  0.00    +0.000 A 
ATOM     26  C   UNL     1      -1.177  10.973  22.830  0.00  0.00    +0.000 A 
ATOM     27  C   UNL     1      -2.151  11.935  23.104  0.00  0.00    +0.000 A 
ATOM     28  C   UNL     1      -2.664  12.741  22.084  0.00  0.00    +0.000 A 
ATOM     29  C   UNL     1      -2.207  12.543  20.773  0.00  0.00    +0.000 A 
ATOM     30  C   UNL     1      -1.229  11.580  20.491  0.00  0.00    +0.000 A 
BRANCH  28  31
ATOM     31  C   UNL     1      -3.717  13.774  22.393  0.00  0.00    +0.000 C 
ATOM     32  F   UNL     1      -3.258  15.053  22.282  0.00  0.00    +0.000 F 
ATOM     33  F   UNL     1      -4.798  13.700  21.566  0.00  0.00    +0.000 F 
ENDBRANCH  28  31
ENDBRANCH  22  25
ENDBRANCH  19  20
ENDBRANCH   1  19
TORSDOF 6
ENDMDL
MODEL 8
REMARK VINA RESULT:      -8.2      4.070     10.671
REMARK  Name = 
REMARK  7 active torsions:
REMARK  status: ('A' for Active; 'I' for Inactive)
REMARK    1  A    between atoms: C_1  and  C_2
REMARK    2  A    between atoms: C_2  and  N_3
REMARK    3  A    between atoms: C_2  and  C_19
REMARK    4  A    between atoms: C_9  and  N_10
REMARK    5  A    between atoms: C_15  and  C_16
REMARK    6  A    between atoms: N_21  and  C_22
REMARK    7  A    between atoms: C_25  and  C_26
REMARK                            x       y       z     vdW  Elec       q    Type
REMARK                         _______ _______ _______ _____ _____    ______ ____
ROOT
ATOM      1  N   UNL     1      -0.097  12.011  18.365  0.00  0.00    +0.000 N 
ATOM      2  C   UNL     1      -0.652  12.926  19.227  0.00  0.00    +0.000 A 
ATOM      3  N   UNL     1      -0.200  14.179  19.076  0.00  0.00    +0.000 NA
ATOM      4  C   UNL     1      -0.820  15.147  19.777  0.00  0.00    +0.000 A 
ATOM      5  C   UNL     1      -1.873  14.901  20.618  0.00  0.00    +0.000 A 
ATOM      6  F   UNL     1      -2.464  15.904  21.284  0.00  0.00    +0.000 F 
ATOM      7  C   UNL     1      -2.254  13.579  20.757  0.00  0.00    +0.000 A 
ATOM      8  N   UNL     1      -1.650  12.592  20.060  0.00  0.00    +0.000 NA
ATOM      9  H   UNL     1       0.824  12.316  18.085  0.00  0.00    +0.000 HD
ENDROOT
BRANCH   7  10
ATOM     10  N   UNL     1      -3.346  13.227  21.578  0.00  0.00    +0.000 N 
ATOM     11  C   UNL     1      -3.232  12.501  22.741  0.00  0.00    +0.000 C 
ATOM     12  O   UNL     1      -2.224  12.090  23.289  0.00  0.00    +0.000 OA
ATOM     13  O   UNL     1      -4.470  12.345  23.307  0.00  0.00    +0.000 OA
ATOM     14  C   UNL     1      -5.462  12.833  22.403  0.00  0.00    +0.000 C 
ATOM     15  C   UNL     1      -4.708  13.614  21.341  0.00  0.00    +0.000 C 
BRANCH  15  16
ATOM     16  C   UNL     1      -5.232  13.243  19.956  0.00  0.00    +0.000 C 
ATOM     17  F   UNL     1      -5.486  11.908  19.919  0.00  0.00    +0.000 F 
ENDBRANCH  15  16
ENDBRANCH   7  10
BRANCH   1  19
ATOM     18  C   UNL     1      -1.245  10.053  17.559  0.00  0.00    +0.000 C 
ATOM     19  C   UNL     1      -0.253  10.591  18.607  0.00  0.00    +0.000 C 
BRANCH  19  20
ATOM     20  C   UNL     1       0.977   9.718  18.612  0.00  0.00    +0.000 A 
ATOM     21  C   UNL     1       1.365   8.854  19.611  0.00  0.00    +0.000 A 
ATOM     22  N   UNL     1       2.205   7.942  19.016  0.00  0.00    +0.000 N 
ATOM     23  C   UNL     1       2.532   8.501  17.799  0.00  0.00    +0.000 A 
ATOM     24  N   UNL     1       1.789   9.550  17.512  0.00  0.00    +0.000 NA
BRANCH  22  25
ATOM     25  C   UNL     1       2.520   6.642  19.505  0.00  0.00    +0.000 A 
ATOM     26  C   UNL     1       1.661   6.012  20.418  0.00  0.00    +0.000 A 
ATOM     27  C   UNL     1       1.868   4.681  20.786  0.00  0.00    +0.000 A 
ATOM     28  C   UNL     1       2.937   3.953  20.254  0.00  0.00    +0.000 A 
ATOM     29  C   UNL     1       3.816   4.593  19.371  0.00  0.00    +0.000 A 
ATOM     30  C   UNL     1       3.613   5.928  18.996  0.00  0.00    +0.000 A 
BRANCH  28  31
ATOM     31  C   UNL     1       3.151   2.518  20.662  0.00  0.00    +0.000 C 
ATOM     32  F   UNL     1       4.423   2.083  20.435  0.00  0.00    +0.000 F 
ATOM     33  F   UNL     1       2.919   2.298  21.986  0.00  0.00    +0.000 F 
ENDBRANCH  28  31
ENDBRANCH  22  25
ENDBRANCH  19  20
ENDBRANCH   1  19
TORSDOF 6
ENDMDL
MODEL 9
REMARK VINA RESULT:      -8.1      1.225      1.330
REMARK  Name = 
REMARK  7 active torsions:
REMARK  status: ('A' for Active; 'I' for Inactive)
REMARK    1  A    between atoms: C_1  and  C_2
REMARK    2  A    between atoms: C_2  and  N_3
REMARK    3  A    between atoms: C_2  and  C_19
REMARK    4  A    between atoms: C_9  and  N_10
REMARK    5  A    between atoms: C_15  and  C_16
REMARK    6  A    between atoms: N_21  and  C_22
REMARK    7  A    between atoms: C_25  and  C_26
REMARK                            x       y       z     vdW  Elec       q    Type
REMARK                         _______ _______ _______ _____ _____    ______ ____
ROOT
ATOM      1  N   UNL     1       1.608   6.468  18.582  0.00  0.00    +0.000 N 
ATOM      2  C   UNL     1       2.365   5.332  18.431  0.00  0.00    +0.000 A 
ATOM      3  N   UNL     1       1.685   4.185  18.577  0.00  0.00    +0.000 NA
ATOM      4  C   UNL     1       2.333   3.042  18.282  0.00  0.00    +0.000 A 
ATOM      5  C   UNL     1       3.631   3.012  17.845  0.00  0.00    +0.000 A 
ATOM      6  F   UNL     1       4.225   1.846  17.551  0.00  0.00    +0.000 F 
ATOM      7  C   UNL     1       4.281   4.229  17.760  0.00  0.00    +0.000 A 
ATOM      8  N   UNL     1       3.650   5.388  18.047  0.00  0.00    +0.000 NA
ATOM      9  H   UNL     1       0.819   6.279  19.184  0.00  0.00    +0.000 HD
ENDROOT
BRANCH   7  10
ATOM     10  N   UNL     1       5.610   4.305  17.294  0.00  0.00    +0.000 N 
ATOM     11  C   UNL     1       6.688   4.619  18.089  0.00  0.00    +0.000 C 
ATOM     12  O   UNL     1       6.717   4.829  19.289  0.00  0.00    +0.000 OA
ATOM     13  O   UNL     1       7.834   4.592  17.339  0.00  0.00    +0.000 OA
ATOM     14  C   UNL     1       7.488   4.424  15.963  0.00  0.00    +0.000 C 
ATOM     15  C   UNL     1       6.024   4.020  15.950  0.00  0.00    +0.000 C 
BRANCH  15  16
ATOM     16  C   UNL     1       5.278   4.817  14.883  0.00  0.00    +0.000 C 
ATOM     17  F   UNL     1       5.489   4.242  13.669  0.00  0.00    +0.000 F 
ENDBRANCH  15  16
ENDBRANCH   7  10
BRANCH   1  19
ATOM     18  C   UNL     1       3.051   8.044  17.472  0.00  0.00    +0.000 C 
ATOM     19  C   UNL     1       2.249   7.756  18.755  0.00  0.00    +0.000 C 
BRANCH  19  20
ATOM     20  C   UNL     1       1.391   8.954  19.076  0.00  0.00    +0.000 A 
ATOM     21  C   UNL     1       0.584   9.643  18.199  0.00  0.00    +0.000 A 
ATOM     22  N   UNL     1      -0.348  10.292  18.974  0.00  0.00    +0.000 N 
ATOM     23  C   UNL     1       0.150  10.228  20.259  0.00  0.00    +0.000 A 
ATOM     24  N   UNL     1       1.175   9.407  20.359  0.00  0.00    +0.000 NA
BRANCH  22  25
ATOM     25  C   UNL     1      -1.618  10.771  18.542  0.00  0.00    +0.000 A 
ATOM     26  C   UNL     1      -2.257  10.165  17.449  0.00  0.00    +0.000 A 
ATOM     27  C   UNL     1      -3.566  10.514  17.110  0.00  0.00    +0.000 A 
ATOM     28  C   UNL     1      -4.263  11.475  17.850  0.00  0.00    +0.000 A 
ATOM     29  C   UNL     1      -3.611  12.106  18.919  0.00  0.00    +0.000 A 
ATOM     30  C   UNL     1      -2.298  11.759  19.265  0.00  0.00    +0.000 A 
BRANCH  28  31
ATOM     31  C   UNL     1      -5.674  11.844  17.472  0.00  0.00    +0.000 C 
ATOM     32  F   UNL     1      -6.488  12.016  18.552  0.00  0.00    +0.000 F 
ATOM     33  F   UNL     1      -5.751  13.007  16.766  0.00  0.00    +0.000 F 
ENDBRANCH  28  31
ENDBRANCH  22  25
ENDBRANCH  19  20
ENDBRANCH   1  19
TORSDOF 6
ENDMDL
