MODEL 1
REMARK VINA RESULT:      -7.1      0.000      0.000
REMARK  Name = 
REMARK  9 active torsions:
REMARK  status: ('A' for Active; 'I' for Inactive)
REMARK    1  A    between atoms: C_1  and  O_2
REMARK    2  A    between atoms: O_2  and  C_3
REMARK    3  A    between atoms: C_3  and  C_5
REMARK    4  A    between atoms: C_7  and  S_8
REMARK    5  A    between atoms: S_8  and  N_11
REMARK    6  A    between atoms: N_14  and  C_15
REMARK    7  A    between atoms: C_20  and  O_21
REMARK    8  A    between atoms: O_21  and  C_22
REMARK    9  A    between atoms: N_26  and  C_27
REMARK                            x       y       z     vdW  Elec       q    Type
REMARK                         _______ _______ _______ _____ _____    ______ ____
ROOT
ATOM      1  N   UNL     1       2.517   2.967  20.071  0.00  0.00    +0.000 NA
ATOM      2  C   UNL     1       2.723   4.054  21.068  0.00  0.00    +0.000 C 
ATOM      3  C   UNL     1       3.034   5.419  20.427  0.00  0.00    +0.000 C 
ATOM      4  N   UNL     1       2.025   5.785  19.405  0.00  0.00    +0.000 N 
ATOM      5  C   UNL     1       1.748   4.734  18.398  0.00  0.00    +0.000 C 
ATOM      6  C   UNL     1       1.433   3.391  19.105  0.00  0.00    +0.000 C 
ENDROOT
BRANCH   4   7
ATOM      7  C   UNL     1       1.886   7.137  19.054  0.00  0.00    +0.000 A 
ATOM      8  C   UNL     1       2.441   7.618  17.844  0.00  0.00    +0.000 A 
ATOM      9  C   UNL     1       2.472   8.976  17.506  0.00  0.00    +0.000 A 
ATOM     10  C   UNL     1       1.947   9.913  18.376  0.00  0.00    +0.000 A 
ATOM     11  C   UNL     1       1.368   9.483  19.562  0.00  0.00    +0.000 A 
ATOM     12  C   UNL     1       1.296   8.112  19.905  0.00  0.00    +0.000 A 
BRANCH  12  13
ATOM     13  O   UNL     1       0.734   7.732  21.105  0.00  0.00    +0.000 OA
ATOM     14  C   UNL     1      -0.071   8.727  21.745  0.00  0.00    +0.000 C 
ENDBRANCH  12  13
ENDBRANCH   4   7
BRANCH   1  15
ATOM     15  S   UNL     1       3.906   2.323  19.309  0.00  0.00    +0.000 S 
ATOM     16  O   UNL     1       3.484   1.347  18.338  0.00  0.00    +0.000 OA
ATOM     17  O   UNL     1       4.853   1.981  20.357  0.00  0.00    +0.000 OA
BRANCH  15  20
ATOM     18  C   UNL     1       5.287   4.969  16.698  0.00  0.00    +0.000 A 
ATOM     19  C   UNL     1       4.434   3.920  17.054  0.00  0.00    +0.000 A 
ATOM     20  C   UNL     1       4.744   3.520  18.372  0.00  0.00    +0.000 A 
ATOM     21  C   UNL     1       5.768   4.340  18.813  0.00  0.00    +0.000 A 
ATOM     22  N   UNL     1       6.018   5.267  17.839  0.00  0.00    +0.000 N 
ATOM     23  C   UNL     1       6.864   6.429  18.037  0.00  0.00    +0.000 C 
BRANCH  18  24
ATOM     24  C   UNL     1       5.400   5.646  15.425  0.00  0.00    +0.000 C 
ATOM     25  O   UNL     1       5.188   6.838  15.215  0.00  0.00    +0.000 OA
BRANCH  24  27
ATOM     26  C   UNL     1       7.179   4.904  14.068  0.00  0.00    +0.000 C 
ATOM     27  O   UNL     1       5.826   4.754  14.479  0.00  0.00    +0.000 OA
ENDBRANCH  24  27
ENDBRANCH  18  24
ENDBRANCH  15  20
ENDBRANCH   1  15
TORSDOF 6
ENDMDL
MODEL 2
REMARK VINA RESULT:      -7.1      2.084      5.390
REMARK  Name = 
REMARK  9 active torsions:
REMARK  status: ('A' for Active; 'I' for Inactive)
REMARK    1  A    between atoms: C_1  and  O_2
REMARK    2  A    between atoms: O_2  and  C_3
REMARK    3  A    between atoms: C_3  and  C_5
REMARK    4  A    between atoms: C_7  and  S_8
REMARK    5  A    between atoms: S_8  and  N_11
REMARK    6  A    between atoms: N_14  and  C_15
REMARK    7  A    between atoms: C_20  and  O_21
REMARK    8  A    between atoms: O_21  and  C_22
REMARK    9  A    between atoms: N_26  and  C_27
REMARK                            x       y       z     vdW  Elec       q    Type
REMARK                         _______ _______ _______ _____ _____    ______ ____
ROOT
ATOM      1  N   UNL     1       2.652   1.969  19.622  0.00  0.00    +0.000 NA
ATOM      2  C   UNL     1       2.766   1.604  18.182  0.00  0.00    +0.000 C 
ATOM      3  C   UNL     1       3.291   2.752  17.301  0.00  0.00    +0.000 C 
ATOM      4  N   UNL     1       4.554   3.315  17.833  0.00  0.00    +0.000 N 
ATOM      5  C   UNL     1       4.521   3.672  19.271  0.00  0.00    +0.000 C 
ATOM      6  C   UNL     1       3.995   2.475  20.103  0.00  0.00    +0.000 C 
ENDROOT
BRANCH   4   7
ATOM      7  C   UNL     1       5.392   4.027  16.960  0.00  0.00    +0.000 A 
ATOM      8  C   UNL     1       5.087   4.096  15.580  0.00  0.00    +0.000 A 
ATOM      9  C   UNL     1       5.952   4.656  14.634  0.00  0.00    +0.000 A 
ATOM     10  C   UNL     1       7.172   5.169  15.037  0.00  0.00    +0.000 A 
ATOM     11  C   UNL     1       7.501   5.146  16.386  0.00  0.00    +0.000 A 
ATOM     12  C   UNL     1       6.623   4.616  17.361  0.00  0.00    +0.000 A 
BRANCH  12  13
ATOM     13  O   UNL     1       7.003   4.591  18.686  0.00  0.00    +0.000 OA
ATOM     14  C   UNL     1       7.730   5.739  19.135  0.00  0.00    +0.000 C 
ENDBRANCH  12  13
ENDBRANCH   4   7
BRANCH   1  15
ATOM     15  S   UNL     1       1.337   2.961  20.081  0.00  0.00    +0.000 S 
ATOM     16  O   UNL     1       1.106   2.789  21.492  0.00  0.00    +0.000 OA
ATOM     17  O   UNL     1       0.275   2.744  19.114  0.00  0.00    +0.000 OA
BRANCH  15  20
ATOM     18  C   UNL     1       2.145   6.687  18.991  0.00  0.00    +0.000 A 
ATOM     19  C   UNL     1       1.993   5.327  18.707  0.00  0.00    +0.000 A 
ATOM     20  C   UNL     1       1.708   4.648  19.913  0.00  0.00    +0.000 A 
ATOM     21  C   UNL     1       1.671   5.601  20.914  0.00  0.00    +0.000 A 
ATOM     22  N   UNL     1       1.836   6.830  20.337  0.00  0.00    +0.000 N 
ATOM     23  C   UNL     1       1.625   8.081  21.040  0.00  0.00    +0.000 C 
BRANCH  18  24
ATOM     24  C   UNL     1       2.521   7.758  18.096  0.00  0.00    +0.000 C 
ATOM     25  O   UNL     1       3.628   7.927  17.590  0.00  0.00    +0.000 OA
BRANCH  24  27
ATOM     26  C   UNL     1       1.673   9.949  17.903  0.00  0.00    +0.000 C 
ATOM     27  O   UNL     1       1.430   8.549  17.860  0.00  0.00    +0.000 OA
ENDBRANCH  24  27
ENDBRANCH  18  24
ENDBRANCH  15  20
ENDBRANCH   1  15
TORSDOF 6
ENDMDL
MODEL 3
REMARK VINA RESULT:      -7.0      2.550      3.965
REMARK  Name = 
REMARK  9 active torsions:
REMARK  status: ('A' for Active; 'I' for Inactive)
REMARK    1  A    between atoms: C_1  and  O_2
REMARK    2  A    between atoms: O_2  and  C_3
REMARK    3  A    between atoms: C_3  and  C_5
REMARK    4  A    between atoms: C_7  and  S_8
REMARK    5  A    between atoms: S_8  and  N_11
REMARK    6  A    between atoms: N_14  and  C_15
REMARK    7  A    between atoms: C_20  and  O_21
REMARK    8  A    between atoms: O_21  and  C_22
REMARK    9  A    between atoms: N_26  and  C_27
REMARK                            x       y       z     vdW  Elec       q    Type
REMARK                         _______ _______ _______ _____ _____    ______ ____
ROOT
ATOM      1  N   UNL     1       5.546   4.005  17.592  0.00  0.00    +0.000 NA
ATOM      2  C   UNL     1       5.453   4.283  19.053  0.00  0.00    +0.000 C 
ATOM      3  C   UNL     1       4.797   5.638  19.375  0.00  0.00    +0.000 C 
ATOM      4  N   UNL     1       3.489   5.787  18.696  0.00  0.00    +0.000 N 
ATOM      5  C   UNL     1       3.503   5.494  17.243  0.00  0.00    +0.000 C 
ATOM      6  C   UNL     1       4.164   4.116  16.987  0.00  0.00    +0.000 C 
ENDROOT
BRANCH   4   7
ATOM      7  C   UNL     1       2.569   6.715  19.208  0.00  0.00    +0.000 A 
ATOM      8  C   UNL     1       2.384   7.962  18.564  0.00  0.00    +0.000 A 
ATOM      9  C   UNL     1       1.601   8.989  19.101  0.00  0.00    +0.000 A 
ATOM     10  C   UNL     1       0.971   8.809  20.319  0.00  0.00    +0.000 A 
ATOM     11  C   UNL     1       1.104   7.592  20.973  0.00  0.00    +0.000 A 
ATOM     12  C   UNL     1       1.862   6.529  20.429  0.00  0.00    +0.000 A 
BRANCH  12  13
ATOM     13  O   UNL     1       1.987   5.346  21.126  0.00  0.00    +0.000 OA
ATOM     14  C   UNL     1       1.190   4.263  20.637  0.00  0.00    +0.000 C 
ENDBRANCH  12  13
ENDBRANCH   4   7
BRANCH   1  15
ATOM     15  S   UNL     1       6.755   4.832  16.709  0.00  0.00    +0.000 S 
ATOM     16  O   UNL     1       8.043   4.363  17.149  0.00  0.00    +0.000 OA
ATOM     17  O   UNL     1       6.419   6.245  16.737  0.00  0.00    +0.000 OA
BRANCH  15  20
ATOM     18  C   UNL     1       6.039   3.586  13.013  0.00  0.00    +0.000 A 
ATOM     19  C   UNL     1       5.792   3.565  14.388  0.00  0.00    +0.000 A 
ATOM     20  C   UNL     1       6.711   4.432  15.020  0.00  0.00    +0.000 A 
ATOM     21  C   UNL     1       7.494   4.986  14.024  0.00  0.00    +0.000 A 
ATOM     22  N   UNL     1       7.019   4.549  12.818  0.00  0.00    +0.000 N 
ATOM     23  C   UNL     1       7.442   5.097  11.544  0.00  0.00    +0.000 C 
BRANCH  18  24
ATOM     24  C   UNL     1       5.411   2.803  11.972  0.00  0.00    +0.000 C 
ATOM     25  O   UNL     1       5.926   1.880  11.346  0.00  0.00    +0.000 OA
BRANCH  24  27
ATOM     26  C   UNL     1       3.783   3.676  10.507  0.00  0.00    +0.000 C 
ATOM     27  O   UNL     1       4.118   3.223  11.813  0.00  0.00    +0.000 OA
ENDBRANCH  24  27
ENDBRANCH  18  24
ENDBRANCH  15  20
ENDBRANCH   1  15
TORSDOF 6
ENDMDL
MODEL 4
REMARK VINA RESULT:      -6.9      2.095      5.276
REMARK  Name = 
REMARK  9 active torsions:
REMARK  status: ('A' for Active; 'I' for Inactive)
REMARK    1  A    between atoms: C_1  and  O_2
REMARK    2  A    between atoms: O_2  and  C_3
REMARK    3  A    between atoms: C_3  and  C_5
REMARK    4  A    between atoms: C_7  and  S_8
REMARK    5  A    between atoms: S_8  and  N_11
REMARK    6  A    between atoms: N_14  and  C_15
REMARK    7  A    between atoms: C_20  and  O_21
REMARK    8  A    between atoms: O_21  and  C_22
REMARK    9  A    between atoms: N_26  and  C_27
REMARK                            x       y       z     vdW  Elec       q    Type
REMARK                         _______ _______ _______ _____ _____    ______ ____
ROOT
ATOM      1  N   UNL     1       2.891   2.072  19.757  0.00  0.00    +0.000 NA
ATOM      2  C   UNL     1       3.048   1.519  18.383  0.00  0.00    +0.000 C 
ATOM      3  C   UNL     1       3.481   2.572  17.347  0.00  0.00    +0.000 C 
ATOM      4  N   UNL     1       4.686   3.311  17.790  0.00  0.00    +0.000 N 
ATOM      5  C   UNL     1       4.609   3.863  19.163  0.00  0.00    +0.000 C 
ATOM      6  C   UNL     1       4.181   2.753  20.158  0.00  0.00    +0.000 C 
ENDROOT
BRANCH   4   7
ATOM      7  C   UNL     1       5.468   3.963  16.823  0.00  0.00    +0.000 A 
ATOM      8  C   UNL     1       5.017   4.046  15.484  0.00  0.00    +0.000 A 
ATOM      9  C   UNL     1       5.808   4.544  14.442  0.00  0.00    +0.000 A 
ATOM     10  C   UNL     1       7.095   4.977  14.704  0.00  0.00    +0.000 A 
ATOM     11  C   UNL     1       7.569   4.938  16.008  0.00  0.00    +0.000 A 
ATOM     12  C   UNL     1       6.771   4.471  17.079  0.00  0.00    +0.000 A 
BRANCH  12  13
ATOM     13  O   UNL     1       7.291   4.427  18.355  0.00  0.00    +0.000 OA
ATOM     14  C   UNL     1       7.841   5.658  18.834  0.00  0.00    +0.000 C 
ENDBRANCH  12  13
ENDBRANCH   4   7
BRANCH   1  15
ATOM     15  S   UNL     1       1.491   3.001  20.076  0.00  0.00    +0.000 S 
ATOM     16  O   UNL     1       1.156   2.857  21.469  0.00  0.00    +0.000 OA
ATOM     17  O   UNL     1       0.525   2.698  19.035  0.00  0.00    +0.000 OA
BRANCH  15  20
ATOM     18  C   UNL     1       2.126   6.745  18.932  0.00  0.00    +0.000 A 
ATOM     19  C   UNL     1       2.035   5.375  18.667  0.00  0.00    +0.000 A 
ATOM     20  C   UNL     1       1.785   4.701  19.883  0.00  0.00    +0.000 A 
ATOM     21  C   UNL     1       1.707   5.665  20.871  0.00  0.00    +0.000 A 
ATOM     22  N   UNL     1       1.815   6.893  20.276  0.00  0.00    +0.000 N 
ATOM     23  C   UNL     1       1.549   8.142  20.963  0.00  0.00    +0.000 C 
BRANCH  18  24
ATOM     24  C   UNL     1       2.451   7.819  18.020  0.00  0.00    +0.000 C 
ATOM     25  O   UNL     1       1.997   8.960  18.051  0.00  0.00    +0.000 OA
BRANCH  24  27
ATOM     26  C   UNL     1       4.729   7.391  17.593  0.00  0.00    +0.000 C 
ATOM     27  O   UNL     1       3.387   7.379  17.124  0.00  0.00    +0.000 OA
ENDBRANCH  24  27
ENDBRANCH  18  24
ENDBRANCH  15  20
ENDBRANCH   1  15
TORSDOF 6
ENDMDL
MODEL 5
REMARK VINA RESULT:      -6.9      1.049      1.781
REMARK  Name = 
REMARK  9 active torsions:
REMARK  status: ('A' for Active; 'I' for Inactive)
REMARK    1  A    between atoms: C_1  and  O_2
REMARK    2  A    between atoms: O_2  and  C_3
REMARK    3  A    between atoms: C_3  and  C_5
REMARK    4  A    between atoms: C_7  and  S_8
REMARK    5  A    between atoms: S_8  and  N_11
REMARK    6  A    between atoms: N_14  and  C_15
REMARK    7  A    between atoms: C_20  and  O_21
REMARK    8  A    between atoms: O_21  and  C_22
REMARK    9  A    between atoms: N_26  and  C_27
REMARK                            x       y       z     vdW  Elec       q    Type
REMARK                         _______ _______ _______ _____ _____    ______ ____
ROOT
ATOM      1  N   UNL     1       2.428   2.954  19.962  0.00  0.00    +0.000 NA
ATOM      2  C   UNL     1       2.557   3.992  21.022  0.00  0.00    +0.000 C 
ATOM      3  C   UNL     1       2.895   5.389  20.469  0.00  0.00    +0.000 C 
ATOM      4  N   UNL     1       1.952   5.797  19.402  0.00  0.00    +0.000 N 
ATOM      5  C   UNL     1       1.752   4.795  18.329  0.00  0.00    +0.000 C 
ATOM      6  C   UNL     1       1.405   3.417  18.948  0.00  0.00    +0.000 C 
ENDROOT
BRANCH   4   7
ATOM      7  C   UNL     1       1.821   7.164  19.108  0.00  0.00    +0.000 A 
ATOM      8  C   UNL     1       2.316   7.679  17.886  0.00  0.00    +0.000 A 
ATOM      9  C   UNL     1       2.356   9.047  17.595  0.00  0.00    +0.000 A 
ATOM     10  C   UNL     1       1.904   9.962  18.528  0.00  0.00    +0.000 A 
ATOM     11  C   UNL     1       1.386   9.499  19.730  0.00  0.00    +0.000 A 
ATOM     12  C   UNL     1       1.304   8.118  20.028  0.00  0.00    +0.000 A 
BRANCH  12  13
ATOM     13  O   UNL     1       0.805   7.706  21.245  0.00  0.00    +0.000 OA
ATOM     14  C   UNL     1      -0.267   8.497  21.765  0.00  0.00    +0.000 C 
ENDBRANCH  12  13
ENDBRANCH   4   7
BRANCH   1  15
ATOM     15  S   UNL     1       3.870   2.358  19.263  0.00  0.00    +0.000 S 
ATOM     16  O   UNL     1       3.540   1.239  18.418  0.00  0.00    +0.000 OA
ATOM     17  O   UNL     1       4.847   2.232  20.331  0.00  0.00    +0.000 OA
BRANCH  15  20
ATOM     18  C   UNL     1       5.871   5.213  17.374  0.00  0.00    +0.000 A 
ATOM     19  C   UNL     1       5.433   4.584  18.542  0.00  0.00    +0.000 A 
ATOM     20  C   UNL     1       4.590   3.510  18.182  0.00  0.00    +0.000 A 
ATOM     21  C   UNL     1       4.537   3.483  16.800  0.00  0.00    +0.000 A 
ATOM     22  N   UNL     1       5.386   4.446  16.325  0.00  0.00    +0.000 N 
ATOM     23  C   UNL     1       5.766   4.560  14.930  0.00  0.00    +0.000 C 
BRANCH  18  24
ATOM     24  C   UNL     1       6.681   6.403  17.240  0.00  0.00    +0.000 C 
ATOM     25  O   UNL     1       6.470   7.345  16.480  0.00  0.00    +0.000 OA
BRANCH  24  27
ATOM     26  C   UNL     1       8.276   7.597  18.501  0.00  0.00    +0.000 C 
ATOM     27  O   UNL     1       7.718   6.343  18.132  0.00  0.00    +0.000 OA
ENDBRANCH  24  27
ENDBRANCH  18  24
ENDBRANCH  15  20
ENDBRANCH   1  15
TORSDOF 6
ENDMDL
MODEL 6
REMARK VINA RESULT:      -6.9      1.888      5.535
REMARK  Name = 
REMARK  9 active torsions:
REMARK  status: ('A' for Active; 'I' for Inactive)
REMARK    1  A    between atoms: C_1  and  O_2
REMARK    2  A    between atoms: O_2  and  C_3
REMARK    3  A    between atoms: C_3  and  C_5
REMARK    4  A    between atoms: C_7  and  S_8
REMARK    5  A    between atoms: S_8  and  N_11
REMARK    6  A    between atoms: N_14  and  C_15
REMARK    7  A    between atoms: C_20  and  O_21
REMARK    8  A    between atoms: O_21  and  C_22
REMARK    9  A    between atoms: N_26  and  C_27
REMARK                            x       y       z     vdW  Elec       q    Type
REMARK                         _______ _______ _______ _____ _____    ______ ____
ROOT
ATOM      1  N   UNL     1       2.888   1.966  19.330  0.00  0.00    +0.000 NA
ATOM      2  C   UNL     1       3.252   1.966  17.886  0.00  0.00    +0.000 C 
ATOM      3  C   UNL     1       3.905   3.281  17.421  0.00  0.00    +0.000 C 
ATOM      4  N   UNL     1       5.050   3.657  18.284  0.00  0.00    +0.000 N 
ATOM      5  C   UNL     1       4.765   3.647  19.738  0.00  0.00    +0.000 C 
ATOM      6  C   UNL     1       4.121   2.296  20.143  0.00  0.00    +0.000 C 
ENDROOT
BRANCH   4   7
ATOM      7  C   UNL     1       6.015   4.538  17.772  0.00  0.00    +0.000 A 
ATOM      8  C   UNL     1       6.511   5.594  18.574  0.00  0.00    +0.000 A 
ATOM      9  C   UNL     1       7.355   6.595  18.082  0.00  0.00    +0.000 A 
ATOM     10  C   UNL     1       7.735   6.581  16.753  0.00  0.00    +0.000 A 
ATOM     11  C   UNL     1       7.294   5.549  15.935  0.00  0.00    +0.000 A 
ATOM     12  C   UNL     1       6.469   4.509  16.424  0.00  0.00    +0.000 A 
BRANCH  12  13
ATOM     13  O   UNL     1       6.034   3.518  15.570  0.00  0.00    +0.000 OA
ATOM     14  C   UNL     1       6.007   3.874  14.184  0.00  0.00    +0.000 C 
ENDBRANCH  12  13
ENDBRANCH   4   7
BRANCH   1  15
ATOM     15  S   UNL     1       1.500   2.851  19.792  0.00  0.00    +0.000 S 
ATOM     16  O   UNL     1       1.234   2.589  21.183  0.00  0.00    +0.000 OA
ATOM     17  O   UNL     1       0.486   2.624  18.777  0.00  0.00    +0.000 OA
BRANCH  15  20
ATOM     18  C   UNL     1       2.065   6.680  18.931  0.00  0.00    +0.000 A 
ATOM     19  C   UNL     1       1.979   5.335  18.561  0.00  0.00    +0.000 A 
ATOM     20  C   UNL     1       1.772   4.564  19.726  0.00  0.00    +0.000 A 
ATOM     21  C   UNL     1       1.715   5.446  20.790  0.00  0.00    +0.000 A 
ATOM     22  N   UNL     1       1.794   6.718  20.292  0.00  0.00    +0.000 N 
ATOM     23  C   UNL     1       1.538   7.905  21.083  0.00  0.00    +0.000 C 
BRANCH  18  24
ATOM     24  C   UNL     1       2.353   7.827  18.099  0.00  0.00    +0.000 C 
ATOM     25  O   UNL     1       3.462   8.179  17.705  0.00  0.00    +0.000 OA
BRANCH  24  27
ATOM     26  C   UNL     1       1.113   9.832  18.113  0.00  0.00    +0.000 C 
ATOM     27  O   UNL     1       1.179   8.452  17.777  0.00  0.00    +0.000 OA
ENDBRANCH  24  27
ENDBRANCH  18  24
ENDBRANCH  15  20
ENDBRANCH   1  15
TORSDOF 6
ENDMDL
MODEL 7
REMARK VINA RESULT:      -6.7      2.044      5.910
REMARK  Name = 
REMARK  9 active torsions:
REMARK  status: ('A' for Active; 'I' for Inactive)
REMARK    1  A    between atoms: C_1  and  O_2
REMARK    2  A    between atoms: O_2  and  C_3
REMARK    3  A    between atoms: C_3  and  C_5
REMARK    4  A    between atoms: C_7  and  S_8
REMARK    5  A    between atoms: S_8  and  N_11
REMARK    6  A    between atoms: N_14  and  C_15
REMARK    7  A    between atoms: C_20  and  O_21
REMARK    8  A    between atoms: O_21  and  C_22
REMARK    9  A    between atoms: N_26  and  C_27
REMARK                            x       y       z     vdW  Elec       q    Type
REMARK                         _______ _______ _______ _____ _____    ______ ____
ROOT
ATOM      1  N   UNL     1       3.034   2.194  19.890  0.00  0.00    +0.000 NA
ATOM      2  C   UNL     1       3.342   1.505  18.605  0.00  0.00    +0.000 C 
ATOM      3  C   UNL     1       3.688   2.475  17.461  0.00  0.00    +0.000 C 
ATOM      4  N   UNL     1       4.756   3.424  17.853  0.00  0.00    +0.000 N 
ATOM      5  C   UNL     1       4.528   4.122  19.140  0.00  0.00    +0.000 C 
ATOM      6  C   UNL     1       4.196   3.093  20.251  0.00  0.00    +0.000 C 
ENDROOT
BRANCH   4   7
ATOM      7  C   UNL     1       5.497   4.056  16.842  0.00  0.00    +0.000 A 
ATOM      8  C   UNL     1       4.973   4.152  15.531  0.00  0.00    +0.000 A 
ATOM      9  C   UNL     1       5.715   4.630  14.446  0.00  0.00    +0.000 A 
ATOM     10  C   UNL     1       7.026   5.030  14.632  0.00  0.00    +0.000 A 
ATOM     11  C   UNL     1       7.573   4.978  15.907  0.00  0.00    +0.000 A 
ATOM     12  C   UNL     1       6.826   4.530  17.023  0.00  0.00    +0.000 A 
BRANCH  12  13
ATOM     13  O   UNL     1       7.418   4.472  18.267  0.00  0.00    +0.000 OA
ATOM     14  C   UNL     1       7.797   5.734  18.823  0.00  0.00    +0.000 C 
ENDBRANCH  12  13
ENDBRANCH   4   7
BRANCH   1  15
ATOM     15  S   UNL     1       1.507   2.951  20.032  0.00  0.00    +0.000 S 
ATOM     16  O   UNL     1       1.046   2.797  21.387  0.00  0.00    +0.000 OA
ATOM     17  O   UNL     1       0.700   2.507  18.908  0.00  0.00    +0.000 OA
BRANCH  15  20
ATOM     18  C   UNL     1       1.672   6.907  20.238  0.00  0.00    +0.000 A 
ATOM     19  C   UNL     1       1.401   5.656  20.798  0.00  0.00    +0.000 A 
ATOM     20  C   UNL     1       1.612   4.669  19.810  0.00  0.00    +0.000 A 
ATOM     21  C   UNL     1       2.026   5.325  18.665  0.00  0.00    +0.000 A 
ATOM     22  N   UNL     1       2.153   6.655  18.961  0.00  0.00    +0.000 N 
ATOM     23  C   UNL     1       2.784   7.616  18.076  0.00  0.00    +0.000 C 
BRANCH  18  24
ATOM     24  C   UNL     1       1.519   8.215  20.835  0.00  0.00    +0.000 C 
ATOM     25  O   UNL     1       1.837   8.533  21.979  0.00  0.00    +0.000 OA
BRANCH  24  27
ATOM     26  C   UNL     1       0.690  10.376  20.389  0.00  0.00    +0.000 C 
ATOM     27  O   UNL     1       0.992   9.073  19.908  0.00  0.00    +0.000 OA
ENDBRANCH  24  27
ENDBRANCH  18  24
ENDBRANCH  15  20
ENDBRANCH   1  15
TORSDOF 6
ENDMDL
MODEL 8
REMARK VINA RESULT:      -6.7      2.344      7.246
REMARK  Name = 
REMARK  9 active torsions:
REMARK  status: ('A' for Active; 'I' for Inactive)
REMARK    1  A    between atoms: C_1  and  O_2
REMARK    2  A    between atoms: O_2  and  C_3
REMARK    3  A    between atoms: C_3  and  C_5
REMARK    4  A    between atoms: C_7  and  S_8
REMARK    5  A    between atoms: S_8  and  N_11
REMARK    6  A    between atoms: N_14  and  C_15
REMARK    7  A    between atoms: C_20  and  O_21
REMARK    8  A    between atoms: O_21  and  C_22
REMARK    9  A    between atoms: N_26  and  C_27
REMARK                            x       y       z     vdW  Elec       q    Type
REMARK                         _______ _______ _______ _____ _____    ______ ____
ROOT
ATOM      1  N   UNL     1       5.163   5.739  18.261  0.00  0.00    +0.000 NA
ATOM      2  C   UNL     1       6.008   4.552  17.952  0.00  0.00    +0.000 C 
ATOM      3  C   UNL     1       5.726   3.947  16.564  0.00  0.00    +0.000 C 
ATOM      4  N   UNL     1       5.796   4.973  15.497  0.00  0.00    +0.000 N 
ATOM      5  C   UNL     1       5.003   6.198  15.756  0.00  0.00    +0.000 C 
ATOM      6  C   UNL     1       5.339   6.762  17.160  0.00  0.00    +0.000 C 
ENDROOT
BRANCH   4   7
ATOM      7  C   UNL     1       6.014   4.553  14.175  0.00  0.00    +0.000 A 
ATOM      8  C   UNL     1       5.073   3.713  13.533  0.00  0.00    +0.000 A 
ATOM      9  C   UNL     1       5.298   3.136  12.278  0.00  0.00    +0.000 A 
ATOM     10  C   UNL     1       6.487   3.375  11.615  0.00  0.00    +0.000 A 
ATOM     11  C   UNL     1       7.427   4.215  12.196  0.00  0.00    +0.000 A 
ATOM     12  C   UNL     1       7.203   4.836  13.447  0.00  0.00    +0.000 A 
BRANCH  12  13
ATOM     13  O   UNL     1       8.175   5.643  13.999  0.00  0.00    +0.000 OA
ATOM     14  C   UNL     1       9.156   6.133  13.080  0.00  0.00    +0.000 C 
ENDBRANCH  12  13
ENDBRANCH   4   7
BRANCH   1  15
ATOM     15  S   UNL     1       3.531   5.456  18.685  0.00  0.00    +0.000 S 
ATOM     16  O   UNL     1       3.503   4.680  19.898  0.00  0.00    +0.000 OA
ATOM     17  O   UNL     1       2.846   5.004  17.486  0.00  0.00    +0.000 OA
BRANCH  15  20
ATOM     18  C   UNL     1       1.596   8.909  18.926  0.00  0.00    +0.000 A 
ATOM     19  C   UNL     1       2.312   7.947  18.208  0.00  0.00    +0.000 A 
ATOM     20  C   UNL     1       2.706   6.925  19.101  0.00  0.00    +0.000 A 
ATOM     21  C   UNL     1       2.211   7.265  20.347  0.00  0.00    +0.000 A 
ATOM     22  N   UNL     1       1.465   8.404  20.212  0.00  0.00    +0.000 N 
ATOM     23  C   UNL     1       0.607   8.928  21.256  0.00  0.00    +0.000 C 
BRANCH  18  24
ATOM     24  C   UNL     1       1.066  10.171  18.460  0.00  0.00    +0.000 C 
ATOM     25  O   UNL     1       1.640  11.256  18.488  0.00  0.00    +0.000 OA
BRANCH  24  27
ATOM     26  C   UNL     1      -1.215  10.767  18.494  0.00  0.00    +0.000 C 
ATOM     27  O   UNL     1      -0.182   9.966  17.935  0.00  0.00    +0.000 OA
ENDBRANCH  24  27
ENDBRANCH  18  24
ENDBRANCH  15  20
ENDBRANCH   1  15
TORSDOF 6
ENDMDL
MODEL 9
REMARK VINA RESULT:      -6.5      2.255      7.414
REMARK  Name = 
REMARK  9 active torsions:
REMARK  status: ('A' for Active; 'I' for Inactive)
REMARK    1  A    between atoms: C_1  and  O_2
REMARK    2  A    between atoms: O_2  and  C_3
REMARK    3  A    between atoms: C_3  and  C_5
REMARK    4  A    between atoms: C_7  and  S_8
REMARK    5  A    between atoms: S_8  and  N_11
REMARK    6  A    between atoms: N_14  and  C_15
REMARK    7  A    between atoms: C_20  and  O_21
REMARK    8  A    between atoms: O_21  and  C_22
REMARK    9  A    between atoms: N_26  and  C_27
REMARK                            x       y       z     vdW  Elec       q    Type
REMARK                         _______ _______ _______ _____ _____    ______ ____
ROOT
ATOM      1  N   UNL     1       5.084   5.658  18.306  0.00  0.00    +0.000 NA
ATOM      2  C   UNL     1       5.907   4.459  17.986  0.00  0.00    +0.000 C 
ATOM      3  C   UNL     1       5.631   3.886  16.583  0.00  0.00    +0.000 C 
ATOM      4  N   UNL     1       5.739   4.930  15.537  0.00  0.00    +0.000 N 
ATOM      5  C   UNL     1       4.968   6.166  15.808  0.00  0.00    +0.000 C 
ATOM      6  C   UNL     1       5.297   6.697  17.226  0.00  0.00    +0.000 C 
ENDROOT
BRANCH   4   7
ATOM      7  C   UNL     1       5.966   4.530  14.210  0.00  0.00    +0.000 A 
ATOM      8  C   UNL     1       5.036   3.688  13.553  0.00  0.00    +0.000 A 
ATOM      9  C   UNL     1       5.272   3.130  12.292  0.00  0.00    +0.000 A 
ATOM     10  C   UNL     1       6.461   3.392  11.636  0.00  0.00    +0.000 A 
ATOM     11  C   UNL     1       7.390   4.234  12.232  0.00  0.00    +0.000 A 
ATOM     12  C   UNL     1       7.154   4.835  13.491  0.00  0.00    +0.000 A 
BRANCH  12  13
ATOM     13  O   UNL     1       8.115   5.645  14.057  0.00  0.00    +0.000 OA
ATOM     14  C   UNL     1       9.161   6.061  13.173  0.00  0.00    +0.000 C 
ENDBRANCH  12  13
ENDBRANCH   4   7
BRANCH   1  15
ATOM     15  S   UNL     1       3.440   5.403  18.702  0.00  0.00    +0.000 S 
ATOM     16  O   UNL     1       3.376   4.740  19.980  0.00  0.00    +0.000 OA
ATOM     17  O   UNL     1       2.796   4.837  17.529  0.00  0.00    +0.000 OA
BRANCH  15  20
ATOM     18  C   UNL     1       1.552   8.649  19.976  0.00  0.00    +0.000 A 
ATOM     19  C   UNL     1       2.074   7.368  20.181  0.00  0.00    +0.000 A 
ATOM     20  C   UNL     1       2.595   6.897  18.955  0.00  0.00    +0.000 A 
ATOM     21  C   UNL     1       2.402   7.900  18.022  0.00  0.00    +0.000 A 
ATOM     22  N   UNL     1       1.866   8.982  18.666  0.00  0.00    +0.000 N 
ATOM     23  C   UNL     1       1.742  10.293  18.061  0.00  0.00    +0.000 C 
BRANCH  18  24
ATOM     24  C   UNL     1       0.846   9.494  20.913  0.00  0.00    +0.000 C 
ATOM     25  O   UNL     1       1.313  10.000  21.930  0.00  0.00    +0.000 OA
BRANCH  24  27
ATOM     26  C   UNL     1      -0.879  11.033  20.451  0.00  0.00    +0.000 C 
ATOM     27  O   UNL     1      -0.435   9.683  20.468  0.00  0.00    +0.000 OA
ENDBRANCH  24  27
ENDBRANCH  18  24
ENDBRANCH  15  20
ENDBRANCH   1  15
TORSDOF 6
ENDMDL
