MODEL 1
REMARK VINA RESULT:      -7.0      0.000      0.000
REMARK  Name = 
REMARK  4 active torsions:
REMARK  status: ('A' for Active; 'I' for Inactive)
REMARK    1  A    between atoms: N_1  and  C_2
REMARK    2  A    between atoms: C_10  and  C_11
REMARK    3  A    between atoms: C_17  and  S_18
REMARK    4  A    between atoms: S_18  and  N_19
REMARK                            x       y       z     vdW  Elec       q    Type
REMARK                         _______ _______ _______ _____ _____    ______ ____
ROOT
ATOM      1  C   UNL     1      -4.613  11.270  17.599  0.00  0.00    +0.000 C 
ATOM      2  N   UNL     1      -4.575  10.548  16.361  0.00  0.00    +0.000 N 
ATOM      3  C   UNL     1      -3.553  10.700  15.483  0.00  0.00    +0.000 C 
ATOM      4  S   UNL     1      -3.663  10.130  13.926  0.00  0.00    +0.000 S 
ATOM      5  N   UNL     1      -2.425  11.306  15.945  0.00  0.00    +0.000 N 
ATOM      6  N   UNL     1      -2.219  11.717  17.223  0.00  0.00    +0.000 NA
ATOM      7  C   UNL     1      -3.205  11.675  18.067  0.00  0.00    +0.000 C 
ATOM      8  N   UNL     1      -3.015  12.143  19.415  0.00  0.00    +0.000 N 
ATOM      9  C   UNL     1      -1.804  12.051  20.207  0.00  0.00    +0.000 A 
ATOM     10  C   UNL     1      -2.090  12.667  21.438  0.00  0.00    +0.000 A 
ATOM     11  C   UNL     1      -3.447  13.111  21.444  0.00  0.00    +0.000 A 
ATOM     12  C   UNL     1      -4.260  13.760  22.412  0.00  0.00    +0.000 A 
ATOM     13  C   UNL     1      -5.557  14.146  22.104  0.00  0.00    +0.000 A 
ATOM     14  F   UNL     1      -6.305  14.759  23.028  0.00  0.00    +0.000 F 
ATOM     15  C   UNL     1      -6.069  13.926  20.851  0.00  0.00    +0.000 A 
ATOM     16  C   UNL     1      -5.295  13.303  19.876  0.00  0.00    +0.000 A 
ATOM     17  C   UNL     1      -3.988  12.837  20.184  0.00  0.00    +0.000 A 
ATOM     18  H   UNL     1      -5.434  10.204  15.959  0.00  0.00    +0.000 HD
ATOM     19  H   UNL     1      -1.611  11.320  15.334  0.00  0.00    +0.000 HD
ENDROOT
BRANCH   9  20
ATOM     20  C   UNL     1      -0.558  11.300  19.815  0.00  0.00    +0.000 A 
ATOM     21  C   UNL     1       0.516  11.887  19.140  0.00  0.00    +0.000 A 
ATOM     22  C   UNL     1       1.569  11.129  18.602  0.00  0.00    +0.000 A 
ATOM     23  C   UNL     1       1.687   9.784  18.912  0.00  0.00    +0.000 A 
ATOM     24  C   UNL     1       0.740   9.207  19.742  0.00  0.00    +0.000 A 
ATOM     25  C   UNL     1      -0.391   9.942  20.134  0.00  0.00    +0.000 A 
ENDBRANCH   9  20
BRANCH   1  26
ATOM     26  N   UNL     1      -5.261  10.324  18.476  0.00  0.00    +0.000 NA
ATOM     27  H   UNL     1      -5.760  10.834  19.201  0.00  0.00    +0.000 HD
ATOM     28  H   UNL     1      -4.587   9.734  18.954  0.00  0.00    +0.000 HD
ENDBRANCH   1  26
BRANCH  10  29
ATOM     29  S   UNL     1      -1.036  12.897  22.821  0.00  0.00    +0.000 S 
ATOM     30  O   UNL     1      -1.716  13.789  23.726  0.00  0.00    +0.000 OA
ATOM     31  O   UNL     1      -0.615  11.574  23.219  0.00  0.00    +0.000 OA
BRANCH  29  32
ATOM     32  N   UNL     1       0.342  13.678  22.262  0.00  0.00    +0.000 NA
ATOM     33  H   UNL     1       0.470  14.629  22.594  0.00  0.00    +0.000 HD
ATOM     34  H   UNL     1       0.538  13.511  21.278  0.00  0.00    +0.000 HD
ENDBRANCH  29  32
ENDBRANCH  10  29
TORSDOF 4
ENDMDL
MODEL 2
REMARK VINA RESULT:      -6.9      3.330      4.988
REMARK  Name = 
REMARK  4 active torsions:
REMARK  status: ('A' for Active; 'I' for Inactive)
REMARK    1  A    between atoms: N_1  and  C_2
REMARK    2  A    between atoms: C_10  and  C_11
REMARK    3  A    between atoms: C_17  and  S_18
REMARK    4  A    between atoms: S_18  and  N_19
REMARK                            x       y       z     vdW  Elec       q    Type
REMARK                         _______ _______ _______ _____ _____    ______ ____
ROOT
ATOM      1  C   UNL     1      -0.941  14.142  20.033  0.00  0.00    +0.000 C 
ATOM      2  N   UNL     1       0.324  14.299  19.379  0.00  0.00    +0.000 N 
ATOM      3  C   UNL     1       1.026  13.231  18.927  0.00  0.00    +0.000 C 
ATOM      4  S   UNL     1       2.618  13.376  18.473  0.00  0.00    +0.000 S 
ATOM      5  N   UNL     1       0.359  12.049  18.829  0.00  0.00    +0.000 N 
ATOM      6  N   UNL     1      -0.961  11.866  19.091  0.00  0.00    +0.000 NA
ATOM      7  C   UNL     1      -1.642  12.840  19.614  0.00  0.00    +0.000 C 
ATOM      8  N   UNL     1      -3.033  12.651  19.934  0.00  0.00    +0.000 N 
ATOM      9  C   UNL     1      -3.989  11.833  19.214  0.00  0.00    +0.000 A 
ATOM     10  C   UNL     1      -5.204  11.936  19.915  0.00  0.00    +0.000 A 
ATOM     11  C   UNL     1      -5.037  12.814  21.029  0.00  0.00    +0.000 A 
ATOM     12  C   UNL     1      -5.916  13.291  22.039  0.00  0.00    +0.000 A 
ATOM     13  C   UNL     1      -5.444  14.100  23.064  0.00  0.00    +0.000 A 
ATOM     14  F   UNL     1      -6.286  14.536  24.008  0.00  0.00    +0.000 F 
ATOM     15  C   UNL     1      -4.116  14.436  23.129  0.00  0.00    +0.000 A 
ATOM     16  C   UNL     1      -3.227  13.975  22.162  0.00  0.00    +0.000 A 
ATOM     17  C   UNL     1      -3.694  13.202  21.065  0.00  0.00    +0.000 A 
ATOM     18  H   UNL     1       0.874  15.128  19.551  0.00  0.00    +0.000 HD
ATOM     19  H   UNL     1       0.838  11.271  18.381  0.00  0.00    +0.000 HD
ENDROOT
BRANCH   9  20
ATOM     20  C   UNL     1      -3.738  11.149  17.896  0.00  0.00    +0.000 A 
ATOM     21  C   UNL     1      -3.011   9.961  17.769  0.00  0.00    +0.000 A 
ATOM     22  C   UNL     1      -2.611   9.455  16.521  0.00  0.00    +0.000 A 
ATOM     23  C   UNL     1      -3.112  10.008  15.354  0.00  0.00    +0.000 A 
ATOM     24  C   UNL     1      -3.994  11.073  15.447  0.00  0.00    +0.000 A 
ATOM     25  C   UNL     1      -4.250  11.665  16.694  0.00  0.00    +0.000 A 
ENDBRANCH   9  20
BRANCH   1  26
ATOM     26  N   UNL     1      -1.642  15.334  19.616  0.00  0.00    +0.000 NA
ATOM     27  H   UNL     1      -1.028  16.136  19.732  0.00  0.00    +0.000 HD
ATOM     28  H   UNL     1      -2.456  15.511  20.198  0.00  0.00    +0.000 HD
ENDBRANCH   1  26
BRANCH  10  29
ATOM     29  S   UNL     1      -6.742  11.170  19.565  0.00  0.00    +0.000 S 
ATOM     30  O   UNL     1      -7.613  12.191  19.041  0.00  0.00    +0.000 OA
ATOM     31  O   UNL     1      -6.425   9.975  18.818  0.00  0.00    +0.000 OA
BRANCH  29  32
ATOM     32  N   UNL     1      -7.376  10.650  21.031  0.00  0.00    +0.000 NA
ATOM     33  H   UNL     1      -6.695  10.328  21.712  0.00  0.00    +0.000 HD
ATOM     34  H   UNL     1      -8.222  10.095  20.938  0.00  0.00    +0.000 HD
ENDBRANCH  29  32
ENDBRANCH  10  29
TORSDOF 4
ENDMDL
MODEL 3
REMARK VINA RESULT:      -6.6      3.323      6.346
REMARK  Name = 
REMARK  4 active torsions:
REMARK  status: ('A' for Active; 'I' for Inactive)
REMARK    1  A    between atoms: N_1  and  C_2
REMARK    2  A    between atoms: C_10  and  C_11
REMARK    3  A    between atoms: C_17  and  S_18
REMARK    4  A    between atoms: S_18  and  N_19
REMARK                            x       y       z     vdW  Elec       q    Type
REMARK                         _______ _______ _______ _____ _____    ______ ____
ROOT
ATOM      1  C   UNL     1       0.174  12.034  19.251  0.00  0.00    +0.000 C 
ATOM      2  N   UNL     1       1.374  12.350  19.968  0.00  0.00    +0.000 N 
ATOM      3  C   UNL     1       1.521  13.531  20.618  0.00  0.00    +0.000 C 
ATOM      4  S   UNL     1       3.008  14.035  21.164  0.00  0.00    +0.000 S 
ATOM      5  N   UNL     1       0.394  14.263  20.834  0.00  0.00    +0.000 N 
ATOM      6  N   UNL     1      -0.867  13.882  20.504  0.00  0.00    +0.000 NA
ATOM      7  C   UNL     1      -1.038  12.806  19.798  0.00  0.00    +0.000 C 
ATOM      8  N   UNL     1      -2.365  12.408  19.406  0.00  0.00    +0.000 N 
ATOM      9  C   UNL     1      -3.588  12.591  20.163  0.00  0.00    +0.000 A 
ATOM     10  C   UNL     1      -4.626  12.075  19.366  0.00  0.00    +0.000 A 
ATOM     11  C   UNL     1      -4.081  11.554  18.154  0.00  0.00    +0.000 A 
ATOM     12  C   UNL     1      -4.649  10.906  17.024  0.00  0.00    +0.000 A 
ATOM     13  C   UNL     1      -3.862  10.567  15.932  0.00  0.00    +0.000 A 
ATOM     14  F   UNL     1      -4.418   9.961  14.876  0.00  0.00    +0.000 F 
ATOM     15  C   UNL     1      -2.525  10.868  15.918  0.00  0.00    +0.000 A 
ATOM     16  C   UNL     1      -1.939  11.512  17.004  0.00  0.00    +0.000 A 
ATOM     17  C   UNL     1      -2.706  11.811  18.163  0.00  0.00    +0.000 A 
ATOM     18  H   UNL     1       2.238  11.891  19.720  0.00  0.00    +0.000 HD
ATOM     19  H   UNL     1       0.472  15.089  21.423  0.00  0.00    +0.000 HD
ENDROOT
BRANCH   9  20
ATOM     20  C   UNL     1      -3.673  13.094  21.581  0.00  0.00    +0.000 A 
ATOM     21  C   UNL     1      -3.286  12.340  22.692  0.00  0.00    +0.000 A 
ATOM     22  C   UNL     1      -3.566  12.742  24.008  0.00  0.00    +0.000 A 
ATOM     23  C   UNL     1      -4.051  14.016  24.256  0.00  0.00    +0.000 A 
ATOM     24  C   UNL     1      -4.266  14.867  23.185  0.00  0.00    +0.000 A 
ATOM     25  C   UNL     1      -4.135  14.389  21.871  0.00  0.00    +0.000 A 
ENDBRANCH   9  20
BRANCH   1  26
ATOM     26  N   UNL     1       0.081  10.606  19.440  0.00  0.00    +0.000 NA
ATOM     27  H   UNL     1       0.297  10.142  18.561  0.00  0.00    +0.000 HD
ATOM     28  H   UNL     1      -0.862  10.322  19.689  0.00  0.00    +0.000 HD
ENDBRANCH   1  26
BRANCH  10  29
ATOM     29  S   UNL     1      -6.345  12.014  19.708  0.00  0.00    +0.000 S 
ATOM     30  O   UNL     1      -6.489  11.583  21.075  0.00  0.00    +0.000 OA
ATOM     31  O   UNL     1      -6.884  13.269  19.239  0.00  0.00    +0.000 OA
BRANCH  29  32
ATOM     32  N   UNL     1      -6.999  10.825  18.718  0.00  0.00    +0.000 NA
ATOM     33  H   UNL     1      -6.385  10.042  18.512  0.00  0.00    +0.000 HD
ATOM     34  H   UNL     1      -7.544  11.191  17.942  0.00  0.00    +0.000 HD
ENDBRANCH  29  32
ENDBRANCH  10  29
TORSDOF 4
ENDMDL
MODEL 4
REMARK VINA RESULT:      -6.6      3.871      7.493
REMARK  Name = 
REMARK  4 active torsions:
REMARK  status: ('A' for Active; 'I' for Inactive)
REMARK    1  A    between atoms: N_1  and  C_2
REMARK    2  A    between atoms: C_10  and  C_11
REMARK    3  A    between atoms: C_17  and  S_18
REMARK    4  A    between atoms: S_18  and  N_19
REMARK                            x       y       z     vdW  Elec       q    Type
REMARK                         _______ _______ _______ _____ _____    ______ ____
ROOT
ATOM      1  C   UNL     1      -1.555  13.485  22.554  0.00  0.00    +0.000 C 
ATOM      2  N   UNL     1      -1.125  14.036  23.805  0.00  0.00    +0.000 N 
ATOM      3  C   UNL     1      -1.665  15.177  24.300  0.00  0.00    +0.000 C 
ATOM      4  S   UNL     1      -0.954  15.989  25.564  0.00  0.00    +0.000 S 
ATOM      5  N   UNL     1      -2.829  15.605  23.740  0.00  0.00    +0.000 N 
ATOM      6  N   UNL     1      -3.522  14.954  22.769  0.00  0.00    +0.000 NA
ATOM      7  C   UNL     1      -2.991  13.911  22.206  0.00  0.00    +0.000 C 
ATOM      8  N   UNL     1      -3.694  13.232  21.149  0.00  0.00    +0.000 N 
ATOM      9  C   UNL     1      -5.129  13.072  21.019  0.00  0.00    +0.000 A 
ATOM     10  C   UNL     1      -5.342  12.371  19.819  0.00  0.00    +0.000 A 
ATOM     11  C   UNL     1      -4.083  12.067  19.217  0.00  0.00    +0.000 A 
ATOM     12  C   UNL     1      -3.705  11.370  18.037  0.00  0.00    +0.000 A 
ATOM     13  C   UNL     1      -2.373  11.293  17.656  0.00  0.00    +0.000 A 
ATOM     14  F   UNL     1      -2.038  10.635  16.540  0.00  0.00    +0.000 F 
ATOM     15  C   UNL     1      -1.399  11.906  18.402  0.00  0.00    +0.000 A 
ATOM     16  C   UNL     1      -1.737  12.606  19.557  0.00  0.00    +0.000 A 
ATOM     17  C   UNL     1      -3.085  12.645  20.007  0.00  0.00    +0.000 A 
ATOM     18  H   UNL     1      -0.207  13.811  24.158  0.00  0.00    +0.000 HD
ATOM     19  H   UNL     1      -3.305  16.390  24.178  0.00  0.00    +0.000 HD
ENDROOT
BRANCH   9  20
ATOM     20  C   UNL     1      -6.149  13.456  22.059  0.00  0.00    +0.000 A 
ATOM     21  C   UNL     1      -6.958  14.593  21.965  0.00  0.00    +0.000 A 
ATOM     22  C   UNL     1      -7.747  15.044  23.035  0.00  0.00    +0.000 A 
ATOM     23  C   UNL     1      -7.916  14.250  24.157  0.00  0.00    +0.000 A 
ATOM     24  C   UNL     1      -7.280  13.020  24.204  0.00  0.00    +0.000 A 
ATOM     25  C   UNL     1      -6.368  12.663  23.198  0.00  0.00    +0.000 A 
ENDBRANCH   9  20
BRANCH   1  26
ATOM     26  N   UNL     1      -1.416  12.067  22.789  0.00  0.00    +0.000 NA
ATOM     27  H   UNL     1      -2.295  11.608  22.567  0.00  0.00    +0.000 HD
ATOM     28  H   UNL     1      -1.229  11.868  23.767  0.00  0.00    +0.000 HD
ENDBRANCH   1  26
BRANCH  10  29
ATOM     29  S   UNL     1      -6.858  11.881  19.088  0.00  0.00    +0.000 S 
ATOM     30  O   UNL     1      -7.699  13.051  19.036  0.00  0.00    +0.000 OA
ATOM     31  O   UNL     1      -6.501  11.141  17.900  0.00  0.00    +0.000 OA
BRANCH  29  32
ATOM     32  N   UNL     1      -7.571  10.776  20.132  0.00  0.00    +0.000 NA
ATOM     33  H   UNL     1      -7.452  10.971  21.122  0.00  0.00    +0.000 HD
ATOM     34  H   UNL     1      -7.459   9.808  19.844  0.00  0.00    +0.000 HD
ENDBRANCH  29  32
ENDBRANCH  10  29
TORSDOF 4
ENDMDL
MODEL 5
REMARK VINA RESULT:      -6.6      3.400      7.309
REMARK  Name = 
REMARK  4 active torsions:
REMARK  status: ('A' for Active; 'I' for Inactive)
REMARK    1  A    between atoms: N_1  and  C_2
REMARK    2  A    between atoms: C_10  and  C_11
REMARK    3  A    between atoms: C_17  and  S_18
REMARK    4  A    between atoms: S_18  and  N_19
REMARK                            x       y       z     vdW  Elec       q    Type
REMARK                         _______ _______ _______ _____ _____    ______ ____
ROOT
ATOM      1  C   UNL     1      -1.168  13.359  22.810  0.00  0.00    +0.000 C 
ATOM      2  N   UNL     1      -1.331  14.116  24.017  0.00  0.00    +0.000 N 
ATOM      3  C   UNL     1      -2.011  15.289  24.032  0.00  0.00    +0.000 C 
ATOM      4  S   UNL     1      -1.923  16.319  25.333  0.00  0.00    +0.000 S 
ATOM      5  N   UNL     1      -2.793  15.564  22.953  0.00  0.00    +0.000 N 
ATOM      6  N   UNL     1      -2.992  14.739  21.893  0.00  0.00    +0.000 NA
ATOM      7  C   UNL     1      -2.288  13.652  21.798  0.00  0.00    +0.000 C 
ATOM      8  N   UNL     1      -2.458  12.784  20.662  0.00  0.00    +0.000 N 
ATOM      9  C   UNL     1      -3.687  12.532  19.936  0.00  0.00    +0.000 A 
ATOM     10  C   UNL     1      -3.356  11.646  18.894  0.00  0.00    +0.000 A 
ATOM     11  C   UNL     1      -1.968  11.321  18.971  0.00  0.00    +0.000 A 
ATOM     12  C   UNL     1      -1.117  10.475  18.209  0.00  0.00    +0.000 A 
ATOM     13  C   UNL     1       0.243  10.411  18.477  0.00  0.00    +0.000 A 
ATOM     14  F   UNL     1       1.027   9.610  17.746  0.00  0.00    +0.000 F 
ATOM     15  C   UNL     1       0.793  11.180  19.470  0.00  0.00    +0.000 A 
ATOM     16  C   UNL     1      -0.010  12.028  20.227  0.00  0.00    +0.000 A 
ATOM     17  C   UNL     1      -1.416  12.064  20.020  0.00  0.00    +0.000 A 
ATOM     18  H   UNL     1      -0.672  13.996  24.772  0.00  0.00    +0.000 HD
ATOM     19  H   UNL     1      -3.398  16.381  23.004  0.00  0.00    +0.000 HD
ENDROOT
BRANCH   9  20
ATOM     20  C   UNL     1      -5.057  13.015  20.338  0.00  0.00    +0.000 A 
ATOM     21  C   UNL     1      -5.803  12.445  21.374  0.00  0.00    +0.000 A 
ATOM     22  C   UNL     1      -7.151  12.769  21.595  0.00  0.00    +0.000 A 
ATOM     23  C   UNL     1      -7.730  13.832  20.921  0.00  0.00    +0.000 A 
ATOM     24  C   UNL     1      -6.958  14.548  20.020  0.00  0.00    +0.000 A 
ATOM     25  C   UNL     1      -5.665  14.106  19.696  0.00  0.00    +0.000 A 
ENDBRANCH   9  20
BRANCH   1  26
ATOM     26  N   UNL     1      -1.178  12.003  23.305  0.00  0.00    +0.000 NA
ATOM     27  H   UNL     1      -2.137  11.665  23.322  0.00  0.00    +0.000 HD
ATOM     28  H   UNL     1      -0.841  11.952  24.262  0.00  0.00    +0.000 HD
ENDBRANCH   1  26
BRANCH  10  29
ATOM     29  S   UNL     1      -4.396  10.972  17.654  0.00  0.00    +0.000 S 
ATOM     30  O   UNL     1      -3.576  10.114  16.836  0.00  0.00    +0.000 OA
ATOM     31  O   UNL     1      -5.566  10.484  18.345  0.00  0.00    +0.000 OA
BRANCH  29  32
ATOM     32  N   UNL     1      -4.916  12.254  16.701  0.00  0.00    +0.000 NA
ATOM     33  H   UNL     1      -4.181  12.771  16.226  0.00  0.00    +0.000 HD
ATOM     34  H   UNL     1      -5.658  12.805  17.124  0.00  0.00    +0.000 HD
ENDBRANCH  29  32
ENDBRANCH  10  29
TORSDOF 4
ENDMDL
MODEL 6
REMARK VINA RESULT:      -6.5      3.519      6.268
REMARK  Name = 
REMARK  4 active torsions:
REMARK  status: ('A' for Active; 'I' for Inactive)
REMARK    1  A    between atoms: N_1  and  C_2
REMARK    2  A    between atoms: C_10  and  C_11
REMARK    3  A    between atoms: C_17  and  S_18
REMARK    4  A    between atoms: S_18  and  N_19
REMARK                            x       y       z     vdW  Elec       q    Type
REMARK                         _______ _______ _______ _____ _____    ______ ____
ROOT
ATOM      1  C   UNL     1       0.147  12.036  19.344  0.00  0.00    +0.000 C 
ATOM      2  N   UNL     1       1.339  12.344  20.078  0.00  0.00    +0.000 N 
ATOM      3  C   UNL     1       1.498  13.535  20.706  0.00  0.00    +0.000 C 
ATOM      4  S   UNL     1       2.983  14.021  21.271  0.00  0.00    +0.000 S 
ATOM      5  N   UNL     1       0.382  14.294  20.883  0.00  0.00    +0.000 N 
ATOM      6  N   UNL     1      -0.881  13.932  20.536  0.00  0.00    +0.000 NA
ATOM      7  C   UNL     1      -1.059  12.844  19.850  0.00  0.00    +0.000 C 
ATOM      8  N   UNL     1      -2.386  12.465  19.440  0.00  0.00    +0.000 N 
ATOM      9  C   UNL     1      -3.620  12.688  20.168  0.00  0.00    +0.000 A 
ATOM     10  C   UNL     1      -4.652  12.176  19.361  0.00  0.00    +0.000 A 
ATOM     11  C   UNL     1      -4.094  11.618  18.172  0.00  0.00    +0.000 A 
ATOM     12  C   UNL     1      -4.653  10.957  17.044  0.00  0.00    +0.000 A 
ATOM     13  C   UNL     1      -3.852  10.578  15.976  0.00  0.00    +0.000 A 
ATOM     14  F   UNL     1      -4.398   9.961  14.922  0.00  0.00    +0.000 F 
ATOM     15  C   UNL     1      -2.508  10.853  15.983  0.00  0.00    +0.000 A 
ATOM     16  C   UNL     1      -1.931  11.508  17.066  0.00  0.00    +0.000 A 
ATOM     17  C   UNL     1      -2.715  11.848  18.203  0.00  0.00    +0.000 A 
ATOM     18  H   UNL     1       2.198  11.862  19.858  0.00  0.00    +0.000 HD
ATOM     19  H   UNL     1       0.465  15.131  21.456  0.00  0.00    +0.000 HD
ENDROOT
BRANCH   9  20
ATOM     20  C   UNL     1      -3.722  13.224  21.572  0.00  0.00    +0.000 A 
ATOM     21  C   UNL     1      -4.167  14.514  21.876  0.00  0.00    +0.000 A 
ATOM     22  C   UNL     1      -4.057  15.062  23.165  0.00  0.00    +0.000 A 
ATOM     23  C   UNL     1      -3.698  14.257  24.234  0.00  0.00    +0.000 A 
ATOM     24  C   UNL     1      -3.435  12.917  24.000  0.00  0.00    +0.000 A 
ATOM     25  C   UNL     1      -3.391  12.430  22.683  0.00  0.00    +0.000 A 
ENDBRANCH   9  20
BRANCH   1  26
ATOM     26  N   UNL     1       0.022  10.615  19.562  0.00  0.00    +0.000 NA
ATOM     27  H   UNL     1      -0.391  10.189  18.736  0.00  0.00    +0.000 HD
ATOM     28  H   UNL     1      -0.606  10.409  20.333  0.00  0.00    +0.000 HD
ENDBRANCH   1  26
BRANCH  10  29
ATOM     29  S   UNL     1      -6.378  12.157  19.669  0.00  0.00    +0.000 S 
ATOM     30  O   UNL     1      -6.823  13.528  19.669  0.00  0.00    +0.000 OA
ATOM     31  O   UNL     1      -6.928  11.172  18.767  0.00  0.00    +0.000 OA
BRANCH  29  32
ATOM     32  N   UNL     1      -6.593  11.544  21.219  0.00  0.00    +0.000 NA
ATOM     33  H   UNL     1      -6.003  10.754  21.461  0.00  0.00    +0.000 HD
ATOM     34  H   UNL     1      -7.566  11.489  21.506  0.00  0.00    +0.000 HD
ENDBRANCH  29  32
ENDBRANCH  10  29
TORSDOF 4
ENDMDL
MODEL 7
REMARK VINA RESULT:      -6.5      3.402      5.019
REMARK  Name = 
REMARK  4 active torsions:
REMARK  status: ('A' for Active; 'I' for Inactive)
REMARK    1  A    between atoms: N_1  and  C_2
REMARK    2  A    between atoms: C_10  and  C_11
REMARK    3  A    between atoms: C_17  and  S_18
REMARK    4  A    between atoms: S_18  and  N_19
REMARK                            x       y       z     vdW  Elec       q    Type
REMARK                         _______ _______ _______ _____ _____    ______ ____
ROOT
ATOM      1  C   UNL     1      -1.318  14.646  20.418  0.00  0.00    +0.000 C 
ATOM      2  N   UNL     1      -0.036  14.929  19.841  0.00  0.00    +0.000 N 
ATOM      3  C   UNL     1       0.795  13.937  19.439  0.00  0.00    +0.000 C 
ATOM      4  S   UNL     1       2.389  14.240  19.082  0.00  0.00    +0.000 S 
ATOM      5  N   UNL     1       0.257  12.694  19.309  0.00  0.00    +0.000 N 
ATOM      6  N   UNL     1      -1.052  12.378  19.491  0.00  0.00    +0.000 NA
ATOM      7  C   UNL     1      -1.858  13.279  19.966  0.00  0.00    +0.000 C 
ATOM      8  N   UNL     1      -3.240  12.951  20.202  0.00  0.00    +0.000 N 
ATOM      9  C   UNL     1      -4.063  12.042  19.430  0.00  0.00    +0.000 A 
ATOM     10  C   UNL     1      -5.323  12.022  20.055  0.00  0.00    +0.000 A 
ATOM     11  C   UNL     1      -5.313  12.912  21.172  0.00  0.00    +0.000 A 
ATOM     12  C   UNL     1      -6.295  13.299  22.124  0.00  0.00    +0.000 A 
ATOM     13  C   UNL     1      -5.970  14.151  23.170  0.00  0.00    +0.000 A 
ATOM     14  F   UNL     1      -6.908  14.500  24.058  0.00  0.00    +0.000 F 
ATOM     15  C   UNL     1      -4.689  14.619  23.314  0.00  0.00    +0.000 A 
ATOM     16  C   UNL     1      -3.701  14.250  22.406  0.00  0.00    +0.000 A 
ATOM     17  C   UNL     1      -4.020  13.433  21.287  0.00  0.00    +0.000 A 
ATOM     18  H   UNL     1       0.416  15.809  20.042  0.00  0.00    +0.000 HD
ATOM     19  H   UNL     1       0.838  11.967  18.896  0.00  0.00    +0.000 HD
ENDROOT
BRANCH   9  20
ATOM     20  C   UNL     1      -3.664  11.386  18.133  0.00  0.00    +0.000 A 
ATOM     21  C   UNL     1      -4.223  11.718  16.896  0.00  0.00    +0.000 A 
ATOM     22  C   UNL     1      -3.992  10.957  15.739  0.00  0.00    +0.000 A 
ATOM     23  C   UNL     1      -3.022   9.968  15.740  0.00  0.00    +0.000 A 
ATOM     24  C   UNL     1      -2.306   9.739  16.904  0.00  0.00    +0.000 A 
ATOM     25  C   UNL     1      -2.666  10.398  18.091  0.00  0.00    +0.000 A 
ENDBRANCH   9  20
BRANCH   1  26
ATOM     26  N   UNL     1      -2.108  15.761  19.952  0.00  0.00    +0.000 NA
ATOM     27  H   UNL     1      -2.025  15.824  18.941  0.00  0.00    +0.000 HD
ATOM     28  H   UNL     1      -1.764  16.642  20.323  0.00  0.00    +0.000 HD
ENDBRANCH   1  26
BRANCH  10  29
ATOM     29  S   UNL     1      -6.751  11.105  19.617  0.00  0.00    +0.000 S 
ATOM     30  O   UNL     1      -7.672  12.027  19.000  0.00  0.00    +0.000 OA
ATOM     31  O   UNL     1      -6.269   9.929  18.932  0.00  0.00    +0.000 OA
BRANCH  29  32
ATOM     32  N   UNL     1      -7.444  10.562  21.048  0.00  0.00    +0.000 NA
ATOM     33  H   UNL     1      -8.129  11.185  21.465  0.00  0.00    +0.000 HD
ATOM     34  H   UNL     1      -6.782  10.125  21.683  0.00  0.00    +0.000 HD
ENDBRANCH  29  32
ENDBRANCH  10  29
TORSDOF 4
ENDMDL
MODEL 8
REMARK VINA RESULT:      -6.4      3.438      7.194
REMARK  Name = 
REMARK  4 active torsions:
REMARK  status: ('A' for Active; 'I' for Inactive)
REMARK    1  A    between atoms: N_1  and  C_2
REMARK    2  A    between atoms: C_10  and  C_11
REMARK    3  A    between atoms: C_17  and  S_18
REMARK    4  A    between atoms: S_18  and  N_19
REMARK                            x       y       z     vdW  Elec       q    Type
REMARK                         _______ _______ _______ _____ _____    ______ ____
ROOT
ATOM      1  C   UNL     1      -1.572  13.052  22.774  0.00  0.00    +0.000 C 
ATOM      2  N   UNL     1      -1.934  13.730  23.984  0.00  0.00    +0.000 N 
ATOM      3  C   UNL     1      -2.660  14.875  23.965  0.00  0.00    +0.000 C 
ATOM      4  S   UNL     1      -2.800  15.829  25.318  0.00  0.00    +0.000 S 
ATOM      5  N   UNL     1      -3.297  15.184  22.803  0.00  0.00    +0.000 N 
ATOM      6  N   UNL     1      -3.311  14.415  21.683  0.00  0.00    +0.000 NA
ATOM      7  C   UNL     1      -2.552  13.362  21.631  0.00  0.00    +0.000 C 
ATOM      8  N   UNL     1      -2.525  12.556  20.438  0.00  0.00    +0.000 N 
ATOM      9  C   UNL     1      -3.629  12.302  19.534  0.00  0.00    +0.000 A 
ATOM     10  C   UNL     1      -3.117  11.492  18.504  0.00  0.00    +0.000 A 
ATOM     11  C   UNL     1      -1.740  11.213  18.758  0.00  0.00    +0.000 A 
ATOM     12  C   UNL     1      -0.755  10.444  18.081  0.00  0.00    +0.000 A 
ATOM     13  C   UNL     1       0.556  10.415  18.534  0.00  0.00    +0.000 A 
ATOM     14  F   UNL     1       1.469   9.687  17.880  0.00  0.00    +0.000 F 
ATOM     15  C   UNL     1       0.928  11.144  19.634  0.00  0.00    +0.000 A 
ATOM     16  C   UNL     1      -0.009  11.917  20.314  0.00  0.00    +0.000 A 
ATOM     17  C   UNL     1      -1.372  11.913  19.912  0.00  0.00    +0.000 A 
ATOM     18  H   UNL     1      -1.382  13.590  24.817  0.00  0.00    +0.000 HD
ATOM     19  H   UNL     1      -3.939  15.973  22.810  0.00  0.00    +0.000 HD
ENDROOT
BRANCH   9  20
ATOM     20  C   UNL     1      -5.061  12.710  19.764  0.00  0.00    +0.000 A 
ATOM     21  C   UNL     1      -5.617  13.891  19.263  0.00  0.00    +0.000 A 
ATOM     22  C   UNL     1      -6.882  14.353  19.661  0.00  0.00    +0.000 A 
ATOM     23  C   UNL     1      -7.717  13.537  20.406  0.00  0.00    +0.000 A 
ATOM     24  C   UNL     1      -7.271  12.274  20.761  0.00  0.00    +0.000 A 
ATOM     25  C   UNL     1      -5.945  11.897  20.493  0.00  0.00    +0.000 A 
ENDBRANCH   9  20
BRANCH   1  26
ATOM     26  N   UNL     1      -1.590  11.669  23.191  0.00  0.00    +0.000 NA
ATOM     27  H   UNL     1      -1.610  11.631  24.206  0.00  0.00    +0.000 HD
ATOM     28  H   UNL     1      -0.747  11.182  22.903  0.00  0.00    +0.000 HD
ENDBRANCH   1  26
BRANCH  10  29
ATOM     29  S   UNL     1      -3.944  10.854  17.096  0.00  0.00    +0.000 S 
ATOM     30  O   UNL     1      -3.761   9.424  17.110  0.00  0.00    +0.000 OA
ATOM     31  O   UNL     1      -5.255  11.459  17.102  0.00  0.00    +0.000 OA
BRANCH  29  32
ATOM     32  N   UNL     1      -3.154  11.464  15.745  0.00  0.00    +0.000 NA
ATOM     33  H   UNL     1      -3.549  12.314  15.355  0.00  0.00    +0.000 HD
ATOM     34  H   UNL     1      -2.867  10.750  15.081  0.00  0.00    +0.000 HD
ENDBRANCH  29  32
ENDBRANCH  10  29
TORSDOF 4
ENDMDL
MODEL 9
REMARK VINA RESULT:      -6.3      3.439      7.382
REMARK  Name = 
REMARK  4 active torsions:
REMARK  status: ('A' for Active; 'I' for Inactive)
REMARK    1  A    between atoms: N_1  and  C_2
REMARK    2  A    between atoms: C_10  and  C_11
REMARK    3  A    between atoms: C_17  and  S_18
REMARK    4  A    between atoms: S_18  and  N_19
REMARK                            x       y       z     vdW  Elec       q    Type
REMARK                         _______ _______ _______ _____ _____    ______ ____
ROOT
ATOM      1  C   UNL     1      -1.358  13.005  22.578  0.00  0.00    +0.000 C 
ATOM      2  N   UNL     1      -1.269  13.685  23.837  0.00  0.00    +0.000 N 
ATOM      3  C   UNL     1      -1.725  14.952  23.992  0.00  0.00    +0.000 C 
ATOM      4  S   UNL     1      -1.334  15.850  25.334  0.00  0.00    +0.000 S 
ATOM      5  N   UNL     1      -2.545  15.438  23.020  0.00  0.00    +0.000 N 
ATOM      6  N   UNL     1      -2.987  14.741  21.941  0.00  0.00    +0.000 NA
ATOM      7  C   UNL     1      -2.498  13.561  21.709  0.00  0.00    +0.000 C 
ATOM      8  N   UNL     1      -2.927  12.823  20.549  0.00  0.00    +0.000 N 
ATOM      9  C   UNL     1      -4.245  12.840  19.944  0.00  0.00    +0.000 A 
ATOM     10  C   UNL     1      -4.175  11.993  18.824  0.00  0.00    +0.000 A 
ATOM     11  C   UNL     1      -2.866  11.431  18.733  0.00  0.00    +0.000 A 
ATOM     12  C   UNL     1      -2.255  10.511  17.837  0.00  0.00    +0.000 A 
ATOM     13  C   UNL     1      -0.908  10.197  17.955  0.00  0.00    +0.000 A 
ATOM     14  F   UNL     1      -0.351   9.332  17.099  0.00  0.00    +0.000 F 
ATOM     15  C   UNL     1      -0.139  10.783  18.927  0.00  0.00    +0.000 A 
ATOM     16  C   UNL     1      -0.704  11.696  19.813  0.00  0.00    +0.000 A 
ATOM     17  C   UNL     1      -2.094  11.987  19.758  0.00  0.00    +0.000 A 
ATOM     18  H   UNL     1      -0.574  13.397  24.509  0.00  0.00    +0.000 HD
ATOM     19  H   UNL     1      -2.988  16.340  23.182  0.00  0.00    +0.000 HD
ENDROOT
BRANCH   9  20
ATOM     20  C   UNL     1      -5.462  13.517  20.517  0.00  0.00    +0.000 A 
ATOM     21  C   UNL     1      -6.281  12.938  21.491  0.00  0.00    +0.000 A 
ATOM     22  C   UNL     1      -7.519  13.492  21.857  0.00  0.00    +0.000 A 
ATOM     23  C   UNL     1      -7.873  14.756  21.416  0.00  0.00    +0.000 A 
ATOM     24  C   UNL     1      -6.993  15.446  20.598  0.00  0.00    +0.000 A 
ATOM     25  C   UNL     1      -5.838  14.809  20.114  0.00  0.00    +0.000 A 
ENDBRANCH   9  20
BRANCH   1  26
ATOM     26  N   UNL     1      -1.561  11.637  22.991  0.00  0.00    +0.000 NA
ATOM     27  H   UNL     1      -0.663  11.229  23.234  0.00  0.00    +0.000 HD
ATOM     28  H   UNL     1      -1.937  11.071  22.236  0.00  0.00    +0.000 HD
ENDBRANCH   1  26
BRANCH  10  29
ATOM     29  S   UNL     1      -5.431  11.602  17.664  0.00  0.00    +0.000 S 
ATOM     30  O   UNL     1      -6.251  10.577  18.259  0.00  0.00    +0.000 OA
ATOM     31  O   UNL     1      -5.977  12.868  17.234  0.00  0.00    +0.000 OA
BRANCH  29  32
ATOM     32  N   UNL     1      -4.669  10.940  16.321  0.00  0.00    +0.000 NA
ATOM     33  H   UNL     1      -3.660  11.051  16.293  0.00  0.00    +0.000 HD
ATOM     34  H   UNL     1      -5.167  11.097  15.449  0.00  0.00    +0.000 HD
ENDBRANCH  29  32
ENDBRANCH  10  29
TORSDOF 4
ENDMDL
