MODEL 1
REMARK VINA RESULT:      -6.9      0.000      0.000
REMARK  Name = 
REMARK  6 active torsions:
REMARK  status: ('A' for Active; 'I' for Inactive)
REMARK    1  A    between atoms: C_1  and  C_2
REMARK    2  A    between atoms: N_15  and  C1*_16
REMARK    3  A    between atoms: C4*_18  and  C5*_19
REMARK    4  A    between atoms: C5*_19  and  O5*_20
REMARK    5  A    between atoms: C3*_21  and  O3*_22
REMARK    6  A    between atoms: C2*_23  and  O2*_24
REMARK                            x       y       z     vdW  Elec       q    Type
REMARK                         _______ _______ _______ _____ _____    ______ ____
ROOT
ATOM      1  C   UNL     1       2.811   2.758  21.252  0.00  0.00    +0.000 C 
ATOM      2  C   UNL     1       2.546   3.123  19.790  0.00  0.00    +0.000 C 
ATOM      3  C   UNL     1       3.174   2.069  18.854  0.00  0.00    +0.000 C 
ATOM      4  C   UNL     1       3.115   2.498  17.384  0.00  0.00    +0.000 C 
ATOM      5  N   UNL     1       3.762   3.804  17.297  0.00  0.00    +0.000 N 
ATOM      6  C   UNL     1       4.542   4.082  16.225  0.00  0.00    +0.000 A 
ATOM      7  N   UNL     1       4.428   3.619  14.994  0.00  0.00    +0.000 NA
ATOM      8  C   UNL     1       5.541   4.077  14.320  0.00  0.00    +0.000 A 
ATOM      9  C   UNL     1       6.003   3.912  13.001  0.00  0.00    +0.000 A 
ATOM     10  N   UNL     1       5.334   3.177  12.031  0.00  0.00    +0.000 N 
ATOM     11  N   UNL     1       7.165   4.506  12.639  0.00  0.00    +0.000 NA
ATOM     12  C   UNL     1       7.846   5.202  13.570  0.00  0.00    +0.000 A 
ATOM     13  N   UNL     1       7.516   5.409  14.858  0.00  0.00    +0.000 NA
ATOM     14  C   UNL     1       6.346   4.826  15.160  0.00  0.00    +0.000 A 
ATOM     15  N   UNL     1       5.714   4.798  16.373  0.00  0.00    +0.000 N 
ATOM     16  C   UNL     1       3.036   4.863  17.996  0.00  0.00    +0.000 C 
ATOM     17  C   UNL     1       3.072   4.539  19.495  0.00  0.00    +0.000 C 
ATOM     18  H   UNL     1       4.346   3.058  12.226  0.00  0.00    +0.000 HD
ATOM     19  H   UNL     1       5.604   3.451  11.098  0.00  0.00    +0.000 HD
ENDROOT
BRANCH  15  20
ATOM     20  C1* UNL     1       6.276   5.261  17.621  0.00  0.00    +0.000 C 
ATOM     21  O4* UNL     1       5.951   6.653  17.826  0.00  0.00    +0.000 OA
ATOM     22  C4* UNL     1       7.111   7.303  18.403  0.00  0.00    +0.000 C 
ATOM     23  C3* UNL     1       8.093   6.192  18.775  0.00  0.00    +0.000 C 
ATOM     24  C2* UNL     1       7.786   5.094  17.767  0.00  0.00    +0.000 C 
BRANCH  23  25
ATOM     25  O3* UNL     1       7.822   5.671  20.093  0.00  0.00    +0.000 OA
ATOM     26  H3* UNL     1       6.858   5.598  20.217  0.00  0.00    +0.000 HD
ENDBRANCH  23  25
BRANCH  24  27
ATOM     27  O2* UNL     1       8.161   3.814  18.279  0.00  0.00    +0.000 OA
ATOM     28  H2* UNL     1       7.616   3.155  17.801  0.00  0.00    +0.000 HD
ENDBRANCH  24  27
BRANCH  22  29
ATOM     29  C5* UNL     1       7.677   8.294  17.387  0.00  0.00    +0.000 C 
BRANCH  29  30
ATOM     30  O5* UNL     1       8.333   9.362  18.069  0.00  0.00    +0.000 OA
ATOM     31  H5* UNL     1       9.081   8.952  18.547  0.00  0.00    +0.000 HD
ENDBRANCH  29  30
ENDBRANCH  22  29
ENDBRANCH  15  20
TORSDOF 5
ENDMDL
MODEL 2
REMARK VINA RESULT:      -6.4     12.633     14.623
REMARK  Name = 
REMARK  6 active torsions:
REMARK  status: ('A' for Active; 'I' for Inactive)
REMARK    1  A    between atoms: C_1  and  C_2
REMARK    2  A    between atoms: N_15  and  C1*_16
REMARK    3  A    between atoms: C4*_18  and  C5*_19
REMARK    4  A    between atoms: C5*_19  and  O5*_20
REMARK    5  A    between atoms: C3*_21  and  O3*_22
REMARK    6  A    between atoms: C2*_23  and  O2*_24
REMARK                            x       y       z     vdW  Elec       q    Type
REMARK                         _______ _______ _______ _____ _____    ______ ____
ROOT
ATOM      1  C   UNL     1       0.347  15.918  22.901  0.00  0.00    +0.000 C 
ATOM      2  C   UNL     1       0.024  14.695  22.042  0.00  0.00    +0.000 C 
ATOM      3  C   UNL     1      -0.636  15.132  20.718  0.00  0.00    +0.000 C 
ATOM      4  C   UNL     1      -1.167  13.938  19.917  0.00  0.00    +0.000 C 
ATOM      5  N   UNL     1      -2.072  13.206  20.798  0.00  0.00    +0.000 N 
ATOM      6  C   UNL     1      -3.206  12.675  20.281  0.00  0.00    +0.000 A 
ATOM      7  N   UNL     1      -3.413  12.234  19.054  0.00  0.00    +0.000 NA
ATOM      8  C   UNL     1      -4.758  11.938  18.986  0.00  0.00    +0.000 A 
ATOM      9  C   UNL     1      -5.586  11.454  17.957  0.00  0.00    +0.000 A 
ATOM     10  N   UNL     1      -5.138  11.149  16.679  0.00  0.00    +0.000 N 
ATOM     11  N   UNL     1      -6.902  11.264  18.216  0.00  0.00    +0.000 NA
ATOM     12  C   UNL     1      -7.367  11.579  19.439  0.00  0.00    +0.000 A 
ATOM     13  N   UNL     1      -6.679  12.066  20.489  0.00  0.00    +0.000 NA
ATOM     14  C   UNL     1      -5.379  12.209  20.193  0.00  0.00    +0.000 A 
ATOM     15  N   UNL     1      -4.388  12.703  20.997  0.00  0.00    +0.000 N 
ATOM     16  C   UNL     1      -1.403  12.588  21.941  0.00  0.00    +0.000 C 
ATOM     17  C   UNL     1      -0.865  13.716  22.830  0.00  0.00    +0.000 C 
ATOM     18  H   UNL     1      -4.141  10.969  16.635  0.00  0.00    +0.000 HD
ATOM     19  H   UNL     1      -5.757  10.507  16.205  0.00  0.00    +0.000 HD
ENDROOT
BRANCH  15  20
ATOM     20  C1* UNL     1      -4.587  13.325  22.285  0.00  0.00    +0.000 C 
ATOM     21  O4* UNL     1      -5.230  12.401  23.190  0.00  0.00    +0.000 OA
ATOM     22  C4* UNL     1      -6.191  13.144  23.981  0.00  0.00    +0.000 C 
ATOM     23  C3* UNL     1      -5.940  14.624  23.694  0.00  0.00    +0.000 C 
ATOM     24  C2* UNL     1      -5.389  14.623  22.275  0.00  0.00    +0.000 C 
BRANCH  23  25
ATOM     25  O3* UNL     1      -4.920  15.161  24.563  0.00  0.00    +0.000 OA
ATOM     26  H3* UNL     1      -4.110  14.628  24.474  0.00  0.00    +0.000 HD
ENDBRANCH  23  25
BRANCH  24  27
ATOM     27  O2* UNL     1      -4.583  15.779  22.041  0.00  0.00    +0.000 OA
ATOM     28  H2* UNL     1      -4.695  16.357  22.824  0.00  0.00    +0.000 HD
ENDBRANCH  24  27
BRANCH  22  29
ATOM     29  C5* UNL     1      -7.599  12.686  23.604  0.00  0.00    +0.000 C 
BRANCH  29  30
ATOM     30  O5* UNL     1      -7.646  11.261  23.554  0.00  0.00    +0.000 OA
ATOM     31  H5* UNL     1      -7.581  11.026  22.607  0.00  0.00    +0.000 HD
ENDBRANCH  29  30
ENDBRANCH  22  29
ENDBRANCH  15  20
TORSDOF 5
ENDMDL
MODEL 3
REMARK VINA RESULT:      -6.2      3.168      5.936
REMARK  Name = 
REMARK  6 active torsions:
REMARK  status: ('A' for Active; 'I' for Inactive)
REMARK    1  A    between atoms: C_1  and  C_2
REMARK    2  A    between atoms: N_15  and  C1*_16
REMARK    3  A    between atoms: C4*_18  and  C5*_19
REMARK    4  A    between atoms: C5*_19  and  O5*_20
REMARK    5  A    between atoms: C3*_21  and  O3*_22
REMARK    6  A    between atoms: C2*_23  and  O2*_24
REMARK                            x       y       z     vdW  Elec       q    Type
REMARK                         _______ _______ _______ _____ _____    ______ ____
ROOT
ATOM      1  C   UNL     1       2.401  11.139  18.206  0.00  0.00    +0.000 C 
ATOM      2  C   UNL     1       1.688   9.807  18.445  0.00  0.00    +0.000 C 
ATOM      3  C   UNL     1       1.904   9.339  19.899  0.00  0.00    +0.000 C 
ATOM      4  C   UNL     1       1.387   7.915  20.129  0.00  0.00    +0.000 C 
ATOM      5  N   UNL     1       2.047   7.061  19.145  0.00  0.00    +0.000 N 
ATOM      6  C   UNL     1       2.442   5.818  19.512  0.00  0.00    +0.000 A 
ATOM      7  N   UNL     1       1.898   5.025  20.415  0.00  0.00    +0.000 NA
ATOM      8  C   UNL     1       2.750   3.946  20.524  0.00  0.00    +0.000 A 
ATOM      9  C   UNL     1       2.736   2.786  21.321  0.00  0.00    +0.000 A 
ATOM     10  N   UNL     1       1.741   2.488  22.241  0.00  0.00    +0.000 N 
ATOM     11  N   UNL     1       3.746   1.893  21.188  0.00  0.00    +0.000 NA
ATOM     12  C   UNL     1       4.739   2.173  20.321  0.00  0.00    +0.000 A 
ATOM     13  N   UNL     1       4.869   3.252  19.528  0.00  0.00    +0.000 NA
ATOM     14  C   UNL     1       3.832   4.090  19.674  0.00  0.00    +0.000 A 
ATOM     15  N   UNL     1       3.638   5.297  19.058  0.00  0.00    +0.000 N 
ATOM     16  C   UNL     1       1.660   7.353  17.765  0.00  0.00    +0.000 C 
ATOM     17  C   UNL     1       2.172   8.759  17.427  0.00  0.00    +0.000 C 
ATOM     18  H   UNL     1       0.868   2.972  22.060  0.00  0.00    +0.000 HD
ATOM     19  H   UNL     1       1.701   1.501  22.448  0.00  0.00    +0.000 HD
ENDROOT
BRANCH  15  20
ATOM     20  C1* UNL     1       4.609   5.984  18.239  0.00  0.00    +0.000 C 
ATOM     21  O4* UNL     1       4.200   5.958  16.854  0.00  0.00    +0.000 OA
ATOM     22  C4* UNL     1       5.382   5.752  16.041  0.00  0.00    +0.000 C 
ATOM     23  C3* UNL     1       6.583   5.896  16.975  0.00  0.00    +0.000 C 
ATOM     24  C2* UNL     1       6.039   5.456  18.326  0.00  0.00    +0.000 C 
BRANCH  23  25
ATOM     25  O3* UNL     1       6.995   7.275  17.092  0.00  0.00    +0.000 OA
ATOM     26  H3* UNL     1       7.749   7.436  16.496  0.00  0.00    +0.000 HD
ENDBRANCH  23  25
BRANCH  24  27
ATOM     27  O2* UNL     1       6.788   6.041  19.393  0.00  0.00    +0.000 OA
ATOM     28  H2* UNL     1       6.549   6.991  19.410  0.00  0.00    +0.000 HD
ENDBRANCH  24  27
BRANCH  22  29
ATOM     29  C5* UNL     1       5.292   4.377  15.380  0.00  0.00    +0.000 C 
BRANCH  29  30
ATOM     30  O5* UNL     1       6.503   4.099  14.679  0.00  0.00    +0.000 OA
ATOM     31  H5* UNL     1       6.359   3.239  14.234  0.00  0.00    +0.000 HD
ENDBRANCH  29  30
ENDBRANCH  22  29
ENDBRANCH  15  20
TORSDOF 5
ENDMDL
MODEL 4
REMARK VINA RESULT:      -6.2     10.557     12.679
REMARK  Name = 
REMARK  6 active torsions:
REMARK  status: ('A' for Active; 'I' for Inactive)
REMARK    1  A    between atoms: C_1  and  C_2
REMARK    2  A    between atoms: N_15  and  C1*_16
REMARK    3  A    between atoms: C4*_18  and  C5*_19
REMARK    4  A    between atoms: C5*_19  and  O5*_20
REMARK    5  A    between atoms: C3*_21  and  O3*_22
REMARK    6  A    between atoms: C2*_23  and  O2*_24
REMARK                            x       y       z     vdW  Elec       q    Type
REMARK                         _______ _______ _______ _____ _____    ______ ____
ROOT
ATOM      1  C   UNL     1      -2.695   9.912  14.405  0.00  0.00    +0.000 C 
ATOM      2  C   UNL     1      -3.644  10.052  15.597  0.00  0.00    +0.000 C 
ATOM      3  C   UNL     1      -4.170  11.499  15.693  0.00  0.00    +0.000 C 
ATOM      4  C   UNL     1      -4.957  11.741  16.986  0.00  0.00    +0.000 C 
ATOM      5  N   UNL     1      -4.077  11.373  18.092  0.00  0.00    +0.000 N 
ATOM      6  C   UNL     1      -4.090  12.123  19.220  0.00  0.00    +0.000 A 
ATOM      7  N   UNL     1      -5.096  12.806  19.732  0.00  0.00    +0.000 NA
ATOM      8  C   UNL     1      -4.565  13.514  20.790  0.00  0.00    +0.000 A 
ATOM      9  C   UNL     1      -5.115  14.427  21.709  0.00  0.00    +0.000 A 
ATOM     10  N   UNL     1      -6.448  14.814  21.715  0.00  0.00    +0.000 N 
ATOM     11  N   UNL     1      -4.308  14.963  22.656  0.00  0.00    +0.000 NA
ATOM     12  C   UNL     1      -3.004  14.624  22.653  0.00  0.00    +0.000 A 
ATOM     13  N   UNL     1      -2.366  13.785  21.817  0.00  0.00    +0.000 NA
ATOM     14  C   UNL     1      -3.211  13.259  20.918  0.00  0.00    +0.000 A 
ATOM     15  N   UNL     1      -2.917  12.396  19.898  0.00  0.00    +0.000 N 
ATOM     16  C   UNL     1      -3.763   9.946  18.139  0.00  0.00    +0.000 C 
ATOM     17  C   UNL     1      -2.936   9.612  16.890  0.00  0.00    +0.000 C 
ATOM     18  H   UNL     1      -7.061  14.154  21.250  0.00  0.00    +0.000 HD
ATOM     19  H   UNL     1      -6.733  15.172  22.616  0.00  0.00    +0.000 HD
ENDROOT
BRANCH  15  20
ATOM     20  C1* UNL     1      -1.588  12.006  19.488  0.00  0.00    +0.000 C 
ATOM     21  O4* UNL     1      -0.739  11.839  20.646  0.00  0.00    +0.000 OA
ATOM     22  C4* UNL     1       0.572  12.362  20.319  0.00  0.00    +0.000 C 
ATOM     23  C3* UNL     1       0.568  12.642  18.817  0.00  0.00    +0.000 C 
ATOM     24  C2* UNL     1      -0.891  12.954  18.517  0.00  0.00    +0.000 C 
BRANCH  23  25
ATOM     25  O3* UNL     1       0.932  11.466  18.063  0.00  0.00    +0.000 OA
ATOM     26  H3* UNL     1       1.279  11.738  17.194  0.00  0.00    +0.000 HD
ENDBRANCH  23  25
BRANCH  24  27
ATOM     27  O2* UNL     1      -1.200  12.681  17.149  0.00  0.00    +0.000 OA
ATOM     28  H2* UNL     1      -1.580  13.506  16.782  0.00  0.00    +0.000 HD
ENDBRANCH  24  27
BRANCH  22  29
ATOM     29  C5* UNL     1       0.829  13.609  21.165  0.00  0.00    +0.000 C 
BRANCH  29  30
ATOM     30  O5* UNL     1       0.351  13.399  22.492  0.00  0.00    +0.000 OA
ATOM     31  H5* UNL     1      -0.100  12.530  22.478  0.00  0.00    +0.000 HD
ENDBRANCH  29  30
ENDBRANCH  22  29
ENDBRANCH  15  20
TORSDOF 5
ENDMDL
MODEL 5
REMARK VINA RESULT:      -6.2     11.884     13.988
REMARK  Name = 
REMARK  6 active torsions:
REMARK  status: ('A' for Active; 'I' for Inactive)
REMARK    1  A    between atoms: C_1  and  C_2
REMARK    2  A    between atoms: N_15  and  C1*_16
REMARK    3  A    between atoms: C4*_18  and  C5*_19
REMARK    4  A    between atoms: C5*_19  and  O5*_20
REMARK    5  A    between atoms: C3*_21  and  O3*_22
REMARK    6  A    between atoms: C2*_23  and  O2*_24
REMARK                            x       y       z     vdW  Elec       q    Type
REMARK                         _______ _______ _______ _____ _____    ______ ____
ROOT
ATOM      1  C   UNL     1      -0.636  16.145  24.093  0.00  0.00    +0.000 C 
ATOM      2  C   UNL     1      -0.440  14.926  23.191  0.00  0.00    +0.000 C 
ATOM      3  C   UNL     1      -0.469  15.348  21.708  0.00  0.00    +0.000 C 
ATOM      4  C   UNL     1      -0.486  14.139  20.765  0.00  0.00    +0.000 C 
ATOM      5  N   UNL     1      -1.628  13.316  21.152  0.00  0.00    +0.000 N 
ATOM      6  C   UNL     1      -2.363  12.715  20.186  0.00  0.00    +0.000 A 
ATOM      7  N   UNL     1      -1.961  12.293  19.002  0.00  0.00    +0.000 NA
ATOM      8  C   UNL     1      -3.105  11.897  18.340  0.00  0.00    +0.000 A 
ATOM      9  C   UNL     1      -3.342  11.380  17.053  0.00  0.00    +0.000 A 
ATOM     10  N   UNL     1      -2.345  11.146  16.116  0.00  0.00    +0.000 N 
ATOM     11  N   UNL     1      -4.614  11.083  16.695  0.00  0.00    +0.000 NA
ATOM     12  C   UNL     1      -5.602  11.328  17.577  0.00  0.00    +0.000 A 
ATOM     13  N   UNL     1      -5.499  11.836  18.819  0.00  0.00    +0.000 NA
ATOM     14  C   UNL     1      -4.220  12.087  19.137  0.00  0.00    +0.000 A 
ATOM     15  N   UNL     1      -3.738  12.632  20.295  0.00  0.00    +0.000 N 
ATOM     16  C   UNL     1      -1.495  12.719  22.480  0.00  0.00    +0.000 C 
ATOM     17  C   UNL     1      -1.506  13.860  23.506  0.00  0.00    +0.000 C 
ATOM     18  H   UNL     1      -1.423  11.044  16.525  0.00  0.00    +0.000 HD
ATOM     19  H   UNL     1      -2.631  10.472  15.421  0.00  0.00    +0.000 HD
ENDROOT
BRANCH  15  20
ATOM     20  C1* UNL     1      -4.543  13.201  21.351  0.00  0.00    +0.000 C 
ATOM     21  O4* UNL     1      -5.310  12.166  22.005  0.00  0.00    +0.000 OA
ATOM     22  C4* UNL     1      -6.625  12.702  22.298  0.00  0.00    +0.000 C 
ATOM     23  C3* UNL     1      -6.558  14.202  22.015  0.00  0.00    +0.000 C 
ATOM     24  C2* UNL     1      -5.500  14.312  20.927  0.00  0.00    +0.000 C 
BRANCH  23  25
ATOM     25  O3* UNL     1      -6.085  14.933  23.166  0.00  0.00    +0.000 OA
ATOM     26  H3* UNL     1      -5.584  15.714  22.867  0.00  0.00    +0.000 HD
ENDBRANCH  23  25
BRANCH  24  27
ATOM     27  O2* UNL     1      -4.894  15.606  20.934  0.00  0.00    +0.000 OA
ATOM     28  H2* UNL     1      -4.690  15.811  21.870  0.00  0.00    +0.000 HD
ENDBRANCH  24  27
BRANCH  22  29
ATOM     29  C5* UNL     1      -7.657  11.971  21.441  0.00  0.00    +0.000 C 
BRANCH  29  30
ATOM     30  O5* UNL     1      -7.158  10.685  21.075  0.00  0.00    +0.000 OA
ATOM     31  H5* UNL     1      -6.293  10.599  21.524  0.00  0.00    +0.000 HD
ENDBRANCH  29  30
ENDBRANCH  22  29
ENDBRANCH  15  20
TORSDOF 5
ENDMDL
MODEL 6
REMARK VINA RESULT:      -6.2     11.308     13.564
REMARK  Name = 
REMARK  6 active torsions:
REMARK  status: ('A' for Active; 'I' for Inactive)
REMARK    1  A    between atoms: C_1  and  C_2
REMARK    2  A    between atoms: N_15  and  C1*_16
REMARK    3  A    between atoms: C4*_18  and  C5*_19
REMARK    4  A    between atoms: C5*_19  and  O5*_20
REMARK    5  A    between atoms: C3*_21  and  O3*_22
REMARK    6  A    between atoms: C2*_23  and  O2*_24
REMARK                            x       y       z     vdW  Elec       q    Type
REMARK                         _______ _______ _______ _____ _____    ______ ____
ROOT
ATOM      1  C   UNL     1       2.274  13.513  19.978  0.00  0.00    +0.000 C 
ATOM      2  C   UNL     1       1.169  12.618  19.414  0.00  0.00    +0.000 C 
ATOM      3  C   UNL     1       0.164  13.460  18.600  0.00  0.00    +0.000 C 
ATOM      4  C   UNL     1      -1.069  12.647  18.190  0.00  0.00    +0.000 C 
ATOM      5  N   UNL     1      -1.639  12.096  19.416  0.00  0.00    +0.000 N 
ATOM      6  C   UNL     1      -2.987  12.043  19.549  0.00  0.00    +0.000 A 
ATOM      7  N   UNL     1      -3.893  11.905  18.600  0.00  0.00    +0.000 NA
ATOM      8  C   UNL     1      -5.113  12.061  19.225  0.00  0.00    +0.000 A 
ATOM      9  C   UNL     1      -6.441  12.044  18.761  0.00  0.00    +0.000 A 
ATOM     10  N   UNL     1      -6.797  11.838  17.435  0.00  0.00    +0.000 N 
ATOM     11  N   UNL     1      -7.444  12.234  19.651  0.00  0.00    +0.000 NA
ATOM     12  C   UNL     1      -7.124  12.465  20.939  0.00  0.00    +0.000 A 
ATOM     13  N   UNL     1      -5.898  12.524  21.491  0.00  0.00    +0.000 NA
ATOM     14  C   UNL     1      -4.942  12.302  20.577  0.00  0.00    +0.000 A 
ATOM     15  N   UNL     1      -3.586  12.316  20.764  0.00  0.00    +0.000 N 
ATOM     16  C   UNL     1      -0.778  11.113  20.071  0.00  0.00    +0.000 C 
ATOM     17  C   UNL     1       0.480  11.847  20.554  0.00  0.00    +0.000 C 
ATOM     18  H   UNL     1      -6.081  11.365  16.895  0.00  0.00    +0.000 HD
ATOM     19  H   UNL     1      -7.749  11.512  17.346  0.00  0.00    +0.000 HD
ENDROOT
BRANCH  15  20
ATOM     20  C1* UNL     1      -2.912  12.739  21.969  0.00  0.00    +0.000 C 
ATOM     21  O4* UNL     1      -3.385  11.974  23.099  0.00  0.00    +0.000 OA
ATOM     22  C4* UNL     1      -3.494  12.870  24.233  0.00  0.00    +0.000 C 
ATOM     23  C3* UNL     1      -2.830  14.182  23.817  0.00  0.00    +0.000 C 
ATOM     24  C2* UNL     1      -3.034  14.222  22.309  0.00  0.00    +0.000 C 
BRANCH  23  25
ATOM     25  O3* UNL     1      -1.409  14.155  24.069  0.00  0.00    +0.000 OA
ATOM     26  H3* UNL     1      -0.984  14.887  23.587  0.00  0.00    +0.000 HD
ENDBRANCH  23  25
BRANCH  24  27
ATOM     27  O2* UNL     1      -2.035  15.026  21.680  0.00  0.00    +0.000 OA
ATOM     28  H2* UNL     1      -1.352  15.199  22.361  0.00  0.00    +0.000 HD
ENDBRANCH  24  27
BRANCH  22  29
ATOM     29  C5* UNL     1      -4.969  13.028  24.596  0.00  0.00    +0.000 C 
BRANCH  29  30
ATOM     30  O5* UNL     1      -5.613  11.756  24.569  0.00  0.00    +0.000 OA
ATOM     31  H5* UNL     1      -5.102  11.214  23.934  0.00  0.00    +0.000 HD
ENDBRANCH  29  30
ENDBRANCH  22  29
ENDBRANCH  15  20
TORSDOF 5
ENDMDL
MODEL 7
REMARK VINA RESULT:      -6.1      9.770     12.016
REMARK  Name = 
REMARK  6 active torsions:
REMARK  status: ('A' for Active; 'I' for Inactive)
REMARK    1  A    between atoms: C_1  and  C_2
REMARK    2  A    between atoms: N_15  and  C1*_16
REMARK    3  A    between atoms: C4*_18  and  C5*_19
REMARK    4  A    between atoms: C5*_19  and  O5*_20
REMARK    5  A    between atoms: C3*_21  and  O3*_22
REMARK    6  A    between atoms: C2*_23  and  O2*_24
REMARK                            x       y       z     vdW  Elec       q    Type
REMARK                         _______ _______ _______ _____ _____    ______ ____
ROOT
ATOM      1  C   UNL     1      -2.838   9.856  13.997  0.00  0.00    +0.000 C 
ATOM      2  C   UNL     1      -3.682  10.024  15.261  0.00  0.00    +0.000 C 
ATOM      3  C   UNL     1      -3.986  11.517  15.505  0.00  0.00    +0.000 C 
ATOM      4  C   UNL     1      -4.650  11.754  16.866  0.00  0.00    +0.000 C 
ATOM      5  N   UNL     1      -3.768  11.174  17.874  0.00  0.00    +0.000 N 
ATOM      6  C   UNL     1      -3.603  11.818  19.055  0.00  0.00    +0.000 A 
ATOM      7  N   UNL     1      -4.467  12.589  19.688  0.00  0.00    +0.000 NA
ATOM      8  C   UNL     1      -3.776  13.123  20.756  0.00  0.00    +0.000 A 
ATOM      9  C   UNL     1      -4.131  14.021  21.780  0.00  0.00    +0.000 A 
ATOM     10  N   UNL     1      -5.391  14.589  21.911  0.00  0.00    +0.000 N 
ATOM     11  N   UNL     1      -3.199  14.356  22.703  0.00  0.00    +0.000 NA
ATOM     12  C   UNL     1      -1.961  13.840  22.581  0.00  0.00    +0.000 A 
ATOM     13  N   UNL     1      -1.503  12.995  21.639  0.00  0.00    +0.000 NA
ATOM     14  C   UNL     1      -2.468  12.671  20.766  0.00  0.00    +0.000 A 
ATOM     15  N   UNL     1      -2.364  11.866  19.665  0.00  0.00    +0.000 N 
ATOM     16  C   UNL     1      -3.661   9.718  17.789  0.00  0.00    +0.000 C 
ATOM     17  C   UNL     1      -2.969   9.380  16.463  0.00  0.00    +0.000 C 
ATOM     18  H   UNL     1      -6.120  14.063  21.443  0.00  0.00    +0.000 HD
ATOM     19  H   UNL     1      -5.566  14.904  22.854  0.00  0.00    +0.000 HD
ENDROOT
BRANCH  15  20
ATOM     20  C1* UNL     1      -1.133  11.331  19.132  0.00  0.00    +0.000 C 
ATOM     21  O4* UNL     1      -0.749  10.145  19.862  0.00  0.00    +0.000 OA
ATOM     22  C4* UNL     1       0.691  10.167  20.027  0.00  0.00    +0.000 C 
ATOM     23  C3* UNL     1       1.213  11.305  19.151  0.00  0.00    +0.000 C 
ATOM     24  C2* UNL     1       0.053  12.291  19.120  0.00  0.00    +0.000 C 
BRANCH  23  25
ATOM     25  O3* UNL     1       1.450  10.860  17.799  0.00  0.00    +0.000 OA
ATOM     26  H3* UNL     1       1.171   9.930  17.714  0.00  0.00    +0.000 HD
ENDBRANCH  23  25
BRANCH  24  27
ATOM     27  O2* UNL     1       0.106  13.102  17.945  0.00  0.00    +0.000 OA
ATOM     28  H2* UNL     1       0.295  14.014  18.247  0.00  0.00    +0.000 HD
ENDBRANCH  24  27
BRANCH  22  29
ATOM     29  C5* UNL     1       1.013  10.350  21.510  0.00  0.00    +0.000 C 
BRANCH  29  30
ATOM     30  O5* UNL     1      -0.194  10.351  22.270  0.00  0.00    +0.000 OA
ATOM     31  H5* UNL     1       0.022  10.806  23.109  0.00  0.00    +0.000 HD
ENDBRANCH  29  30
ENDBRANCH  22  29
ENDBRANCH  15  20
TORSDOF 5
ENDMDL
MODEL 8
REMARK VINA RESULT:      -6.0     11.901     14.011
REMARK  Name = 
REMARK  6 active torsions:
REMARK  status: ('A' for Active; 'I' for Inactive)
REMARK    1  A    between atoms: C_1  and  C_2
REMARK    2  A    between atoms: N_15  and  C1*_16
REMARK    3  A    between atoms: C4*_18  and  C5*_19
REMARK    4  A    between atoms: C5*_19  and  O5*_20
REMARK    5  A    between atoms: C3*_21  and  O3*_22
REMARK    6  A    between atoms: C2*_23  and  O2*_24
REMARK                            x       y       z     vdW  Elec       q    Type
REMARK                         _______ _______ _______ _____ _____    ______ ____
ROOT
ATOM      1  C   UNL     1      -1.894  16.188  25.018  0.00  0.00    +0.000 C 
ATOM      2  C   UNL     1      -1.517  14.877  24.327  0.00  0.00    +0.000 C 
ATOM      3  C   UNL     1      -0.935  15.159  22.927  0.00  0.00    +0.000 C 
ATOM      4  C   UNL     1      -0.737  13.873  22.116  0.00  0.00    +0.000 C 
ATOM      5  N   UNL     1      -2.029  13.195  22.075  0.00  0.00    +0.000 N 
ATOM      6  C   UNL     1      -2.411  12.573  20.934  0.00  0.00    +0.000 A 
ATOM      7  N   UNL     1      -1.644  12.009  20.020  0.00  0.00    +0.000 NA
ATOM      8  C   UNL     1      -2.491  11.656  18.990  0.00  0.00    +0.000 A 
ATOM      9  C   UNL     1      -2.284  11.043  17.740  0.00  0.00    +0.000 A 
ATOM     10  N   UNL     1      -1.043  10.634  17.273  0.00  0.00    +0.000 N 
ATOM     11  N   UNL     1      -3.353  10.828  16.936  0.00  0.00    +0.000 NA
ATOM     12  C   UNL     1      -4.564  11.241  17.355  0.00  0.00    +0.000 A 
ATOM     13  N   UNL     1      -4.879  11.853  18.512  0.00  0.00    +0.000 NA
ATOM     14  C   UNL     1      -3.795  12.017  19.285  0.00  0.00    +0.000 A 
ATOM     15  N   UNL     1      -3.724  12.624  20.509  0.00  0.00    +0.000 N 
ATOM     16  C   UNL     1      -2.478  12.715  23.381  0.00  0.00    +0.000 C 
ATOM     17  C   UNL     1      -2.741  13.944  24.262  0.00  0.00    +0.000 C 
ATOM     18  H   UNL     1      -0.363  10.490  18.011  0.00  0.00    +0.000 HD
ATOM     19  H   UNL     1      -1.123   9.926  16.558  0.00  0.00    +0.000 HD
ENDROOT
BRANCH  15  20
ATOM     20  C1* UNL     1      -4.795  13.359  21.142  0.00  0.00    +0.000 C 
ATOM     21  O4* UNL     1      -5.633  12.461  21.902  0.00  0.00    +0.000 OA
ATOM     22  C4* UNL     1      -7.010  12.880  21.730  0.00  0.00    +0.000 C 
ATOM     23  C3* UNL     1      -6.969  14.232  21.020  0.00  0.00    +0.000 C 
ATOM     24  C2* UNL     1      -5.686  14.166  20.203  0.00  0.00    +0.000 C 
BRANCH  23  25
ATOM     25  O3* UNL     1      -6.836  15.316  21.964  0.00  0.00    +0.000 OA
ATOM     26  H3* UNL     1      -6.149  15.089  22.618  0.00  0.00    +0.000 HD
ENDBRANCH  23  25
BRANCH  24  27
ATOM     27  O2* UNL     1      -5.182  15.477  19.940  0.00  0.00    +0.000 OA
ATOM     28  H2* UNL     1      -4.804  15.451  19.037  0.00  0.00    +0.000 HD
ENDBRANCH  24  27
BRANCH  22  29
ATOM     29  C5* UNL     1      -7.756  11.806  20.939  0.00  0.00    +0.000 C 
BRANCH  29  30
ATOM     30  O5* UNL     1      -6.879  10.716  20.658  0.00  0.00    +0.000 OA
ATOM     31  H5* UNL     1      -7.403  10.085  20.125  0.00  0.00    +0.000 HD
ENDBRANCH  29  30
ENDBRANCH  22  29
ENDBRANCH  15  20
TORSDOF 5
ENDMDL
MODEL 9
REMARK VINA RESULT:      -6.0     12.139     14.255
REMARK  Name = 
REMARK  6 active torsions:
REMARK  status: ('A' for Active; 'I' for Inactive)
REMARK    1  A    between atoms: C_1  and  C_2
REMARK    2  A    between atoms: N_15  and  C1*_16
REMARK    3  A    between atoms: C4*_18  and  C5*_19
REMARK    4  A    between atoms: C5*_19  and  O5*_20
REMARK    5  A    between atoms: C3*_21  and  O3*_22
REMARK    6  A    between atoms: C2*_23  and  O2*_24
REMARK                            x       y       z     vdW  Elec       q    Type
REMARK                         _______ _______ _______ _____ _____    ______ ____
ROOT
ATOM      1  C   UNL     1      -4.296  16.684  24.990  0.00  0.00    +0.000 C 
ATOM      2  C   UNL     1      -3.380  15.557  24.509  0.00  0.00    +0.000 C 
ATOM      3  C   UNL     1      -2.599  16.002  23.255  0.00  0.00    +0.000 C 
ATOM      4  C   UNL     1      -1.827  14.843  22.616  0.00  0.00    +0.000 C 
ATOM      5  N   UNL     1      -2.798  13.787  22.344  0.00  0.00    +0.000 N 
ATOM      6  C   UNL     1      -2.687  13.069  21.201  0.00  0.00    +0.000 A 
ATOM      7  N   UNL     1      -1.590  12.774  20.529  0.00  0.00    +0.000 NA
ATOM      8  C   UNL     1      -2.017  12.162  19.369  0.00  0.00    +0.000 A 
ATOM      9  C   UNL     1      -1.340  11.641  18.250  0.00  0.00    +0.000 A 
ATOM     10  N   UNL     1       0.041  11.647  18.106  0.00  0.00    +0.000 N 
ATOM     11  N   UNL     1      -2.067  11.090  17.249  0.00  0.00    +0.000 NA
ATOM     12  C   UNL     1      -3.410  11.097  17.352  0.00  0.00    +0.000 A 
ATOM     13  N   UNL     1      -4.163  11.583  18.356  0.00  0.00    +0.000 NA
ATOM     14  C   UNL     1      -3.398  12.090  19.335  0.00  0.00    +0.000 A 
ATOM     15  N   UNL     1      -3.811  12.695  20.491  0.00  0.00    +0.000 N 
ATOM     16  C   UNL     1      -3.373  13.197  23.552  0.00  0.00    +0.000 C 
ATOM     17  C   UNL     1      -4.203  14.282  24.249  0.00  0.00    +0.000 C 
ATOM     18  H   UNL     1       0.536  11.732  18.986  0.00  0.00    +0.000 HD
ATOM     19  H   UNL     1       0.355  10.946  17.451  0.00  0.00    +0.000 HD
ENDROOT
BRANCH  15  20
ATOM     20  C1* UNL     1      -5.175  13.052  20.808  0.00  0.00    +0.000 C 
ATOM     21  O4* UNL     1      -5.849  11.938  21.434  0.00  0.00    +0.000 OA
ATOM     22  C4* UNL     1      -7.205  11.893  20.926  0.00  0.00    +0.000 C 
ATOM     23  C3* UNL     1      -7.418  13.183  20.135  0.00  0.00    +0.000 C 
ATOM     24  C2* UNL     1      -6.023  13.526  19.631  0.00  0.00    +0.000 C 
BRANCH  23  25
ATOM     25  O3* UNL     1      -7.855  14.259  20.992  0.00  0.00    +0.000 OA
ATOM     26  H3* UNL     1      -8.338  13.887  21.752  0.00  0.00    +0.000 HD
ENDBRANCH  23  25
BRANCH  24  27
ATOM     27  O2* UNL     1      -5.902  14.927  19.380  0.00  0.00    +0.000 OA
ATOM     28  H2* UNL     1      -6.067  15.376  20.236  0.00  0.00    +0.000 HD
ENDBRANCH  24  27
BRANCH  22  29
ATOM     29  C5* UNL     1      -7.373  10.632  20.080  0.00  0.00    +0.000 C 
BRANCH  29  30
ATOM     30  O5* UNL     1      -7.290  10.964  18.696  0.00  0.00    +0.000 OA
ATOM     31  H5* UNL     1      -7.838  10.300  18.230  0.00  0.00    +0.000 HD
ENDBRANCH  29  30
ENDBRANCH  22  29
ENDBRANCH  15  20
TORSDOF 5
ENDMDL
