MODEL 1
REMARK VINA RESULT:      -7.7      0.000      0.000
REMARK  Name = 
REMARK  4 active torsions:
REMARK  status: ('A' for Active; 'I' for Inactive)
REMARK    1  A    between atoms: C_5  and  C_6
REMARK    2  A    between atoms: C_8  and  C_9
REMARK    3  A    between atoms: C_9  and  N_10
REMARK    4  A    between atoms: N_10  and  C_11
REMARK                            x       y       z     vdW  Elec       q    Type
REMARK                         _______ _______ _______ _____ _____    ______ ____
ROOT
ATOM      1  C   UNL     1       1.479   8.455  19.910  0.00  0.00    +0.000 A 
ATOM      2  N   UNL     1       1.895   7.218  20.122  0.00  0.00    +0.000 NA
ATOM      3  C   UNL     1       2.596   6.739  19.020  0.00  0.00    +0.000 A 
ATOM      4  C   UNL     1       2.687   7.630  17.968  0.00  0.00    +0.000 A 
ATOM      5  S   UNL     1       1.884   9.086  18.354  0.00  0.00    +0.000 S 
ENDROOT
BRANCH   1  10
ATOM      6  F   UNL     1      -1.543  11.565  23.490  0.00  0.00    +0.000 F 
ATOM      7  C   UNL     1      -0.824  10.819  22.642  0.00  0.00    +0.000 A 
ATOM      8  C   UNL     1      -0.113   9.729  23.125  0.00  0.00    +0.000 A 
ATOM      9  C   UNL     1       0.639   8.949  22.241  0.00  0.00    +0.000 A 
ATOM     10  C   UNL     1       0.691   9.256  20.869  0.00  0.00    +0.000 A 
ATOM     11  C   UNL     1      -0.050  10.359  20.407  0.00  0.00    +0.000 A 
ATOM     12  C   UNL     1      -0.800  11.142  21.291  0.00  0.00    +0.000 A 
ENDBRANCH   1  10
BRANCH   3  13
ATOM     13  C   UNL     1       3.152   5.344  19.046  0.00  0.00    +0.000 C 
BRANCH  13  14
ATOM     14  N   UNL     1       4.546   5.387  19.511  0.00  0.00    +0.000 NA
ATOM     15  H   UNL     1       4.649   4.668  20.232  0.00  0.00    +0.000 HD
BRANCH  14  16
ATOM     16  C   UNL     1       5.524   5.139  18.434  0.00  0.00    +0.000 C 
ATOM     17  C   UNL     1       6.225   6.473  18.091  0.00  0.00    +0.000 C 
ATOM     18  C   UNL     1       7.348   6.267  17.066  0.00  0.00    +0.000 C 
ATOM     19  C   UNL     1       6.907   5.409  15.940  0.00  0.00    +0.000 A 
ATOM     20  N   UNL     1       7.461   5.237  14.759  0.00  0.00    +0.000 NA
ATOM     21  C   UNL     1       6.637   4.320  14.162  0.00  0.00    +0.000 A 
ATOM     22  N   UNL     1       5.607   3.907  14.908  0.00  0.00    +0.000 NA
ATOM     23  N   UNL     1       5.805   4.611  16.032  0.00  0.00    +0.000 N 
ATOM     24  C   UNL     1       4.892   4.550  17.151  0.00  0.00    +0.000 C 
ENDBRANCH  14  16
ENDBRANCH  13  14
ENDBRANCH   3  13
TORSDOF 4
ENDMDL
MODEL 2
REMARK VINA RESULT:      -7.5      3.949      8.931
REMARK  Name = 
REMARK  4 active torsions:
REMARK  status: ('A' for Active; 'I' for Inactive)
REMARK    1  A    between atoms: C_5  and  C_6
REMARK    2  A    between atoms: C_8  and  C_9
REMARK    3  A    between atoms: C_9  and  N_10
REMARK    4  A    between atoms: N_10  and  C_11
REMARK                            x       y       z     vdW  Elec       q    Type
REMARK                         _______ _______ _______ _____ _____    ______ ____
ROOT
ATOM      1  C   UNL     1       4.200   4.483  18.529  0.00  0.00    +0.000 A 
ATOM      2  N   UNL     1       3.425   5.426  19.040  0.00  0.00    +0.000 NA
ATOM      3  C   UNL     1       2.663   4.921  20.089  0.00  0.00    +0.000 A 
ATOM      4  C   UNL     1       2.864   3.578  20.347  0.00  0.00    +0.000 A 
ATOM      5  S   UNL     1       4.017   2.933  19.268  0.00  0.00    +0.000 S 
ENDROOT
BRANCH   1  10
ATOM      6  F   UNL     1       7.668   5.152  14.153  0.00  0.00    +0.000 F 
ATOM      7  C   UNL     1       6.844   4.999  15.198  0.00  0.00    +0.000 A 
ATOM      8  C   UNL     1       7.118   5.661  16.387  0.00  0.00    +0.000 A 
ATOM      9  C   UNL     1       6.259   5.502  17.479  0.00  0.00    +0.000 A 
ATOM     10  C   UNL     1       5.123   4.676  17.393  0.00  0.00    +0.000 A 
ATOM     11  C   UNL     1       4.866   4.028  16.172  0.00  0.00    +0.000 A 
ATOM     12  C   UNL     1       5.726   4.184  15.079  0.00  0.00    +0.000 A 
ENDBRANCH   1  10
BRANCH   3  13
ATOM     13  C   UNL     1       1.702   5.825  20.808  0.00  0.00    +0.000 C 
BRANCH  13  14
ATOM     14  N   UNL     1       2.112   7.223  20.607  0.00  0.00    +0.000 NA
ATOM     15  H   UNL     1       2.490   7.296  19.659  0.00  0.00    +0.000 HD
BRANCH  14  16
ATOM     16  C   UNL     1       1.001   8.180  20.763  0.00  0.00    +0.000 C 
ATOM     17  C   UNL     1       1.105   9.240  19.643  0.00  0.00    +0.000 C 
ATOM     18  C   UNL     1      -0.095  10.196  19.665  0.00  0.00    +0.000 C 
ATOM     19  C   UNL     1      -0.388  10.671  21.040  0.00  0.00    +0.000 A 
ATOM     20  N   UNL     1      -1.128  11.687  21.429  0.00  0.00    +0.000 NA
ATOM     21  C   UNL     1      -1.054  11.617  22.794  0.00  0.00    +0.000 A 
ATOM     22  N   UNL     1      -0.317  10.611  23.277  0.00  0.00    +0.000 NA
ATOM     23  N   UNL     1       0.090  10.024  22.142  0.00  0.00    +0.000 N 
ATOM     24  C   UNL     1       0.986   8.889  22.137  0.00  0.00    +0.000 C 
ENDBRANCH  14  16
ENDBRANCH  13  14
ENDBRANCH   3  13
TORSDOF 4
ENDMDL
MODEL 3
REMARK VINA RESULT:      -7.4      3.945      8.940
REMARK  Name = 
REMARK  4 active torsions:
REMARK  status: ('A' for Active; 'I' for Inactive)
REMARK    1  A    between atoms: C_5  and  C_6
REMARK    2  A    between atoms: C_8  and  C_9
REMARK    3  A    between atoms: C_9  and  N_10
REMARK    4  A    between atoms: N_10  and  C_11
REMARK                            x       y       z     vdW  Elec       q    Type
REMARK                         _______ _______ _______ _____ _____    ______ ____
ROOT
ATOM      1  C   UNL     1       4.094   4.576  18.731  0.00  0.00    +0.000 A 
ATOM      2  N   UNL     1       3.280   5.523  19.166  0.00  0.00    +0.000 NA
ATOM      3  C   UNL     1       2.527   5.068  20.243  0.00  0.00    +0.000 A 
ATOM      4  C   UNL     1       2.775   3.756  20.600  0.00  0.00    +0.000 A 
ATOM      5  S   UNL     1       3.961   3.077  19.578  0.00  0.00    +0.000 S 
ENDROOT
BRANCH   1  10
ATOM      6  F   UNL     1       7.667   5.201  14.433  0.00  0.00    +0.000 F 
ATOM      7  C   UNL     1       6.815   5.046  15.454  0.00  0.00    +0.000 A 
ATOM      8  C   UNL     1       5.793   4.110  15.356  0.00  0.00    +0.000 A 
ATOM      9  C   UNL     1       4.902   3.947  16.421  0.00  0.00    +0.000 A 
ATOM     10  C   UNL     1       5.021   4.721  17.590  0.00  0.00    +0.000 A 
ATOM     11  C   UNL     1       6.073   5.652  17.665  0.00  0.00    +0.000 A 
ATOM     12  C   UNL     1       6.964   5.818  16.599  0.00  0.00    +0.000 A 
ENDBRANCH   1  10
BRANCH   3  13
ATOM     13  C   UNL     1       1.527   5.985  20.888  0.00  0.00    +0.000 C 
BRANCH  13  14
ATOM     14  N   UNL     1       1.984   7.375  20.745  0.00  0.00    +0.000 NA
ATOM     15  H   UNL     1       2.427   7.457  19.826  0.00  0.00    +0.000 HD
BRANCH  14  16
ATOM     16  C   UNL     1       0.889   8.358  20.846  0.00  0.00    +0.000 C 
ATOM     17  C   UNL     1       1.040   9.381  19.698  0.00  0.00    +0.000 C 
ATOM     18  C   UNL     1      -0.140  10.362  19.664  0.00  0.00    +0.000 C 
ATOM     19  C   UNL     1      -0.456  10.883  21.016  0.00  0.00    +0.000 A 
ATOM     20  N   UNL     1      -1.183  11.924  21.357  0.00  0.00    +0.000 NA
ATOM     21  C   UNL     1      -1.143  11.894  22.726  0.00  0.00    +0.000 A 
ATOM     22  N   UNL     1      -0.438  10.889  23.255  0.00  0.00    +0.000 NA
ATOM     23  N   UNL     1      -0.016  10.260  22.148  0.00  0.00    +0.000 N 
ATOM     24  C   UNL     1       0.856   9.108  22.198  0.00  0.00    +0.000 C 
ENDBRANCH  14  16
ENDBRANCH  13  14
ENDBRANCH   3  13
TORSDOF 4
ENDMDL
MODEL 4
REMARK VINA RESULT:      -7.4      0.903      1.395
REMARK  Name = 
REMARK  4 active torsions:
REMARK  status: ('A' for Active; 'I' for Inactive)
REMARK    1  A    between atoms: C_5  and  C_6
REMARK    2  A    between atoms: C_8  and  C_9
REMARK    3  A    between atoms: C_9  and  N_10
REMARK    4  A    between atoms: N_10  and  C_11
REMARK                            x       y       z     vdW  Elec       q    Type
REMARK                         _______ _______ _______ _____ _____    ______ ____
ROOT
ATOM      1  C   UNL     1       1.264   8.614  20.248  0.00  0.00    +0.000 A 
ATOM      2  N   UNL     1       1.774   7.476  20.685  0.00  0.00    +0.000 NA
ATOM      3  C   UNL     1       2.488   6.837  19.676  0.00  0.00    +0.000 A 
ATOM      4  C   UNL     1       2.490   7.505  18.466  0.00  0.00    +0.000 A 
ATOM      5  S   UNL     1       1.589   8.950  18.585  0.00  0.00    +0.000 S 
ENDROOT
BRANCH   1  10
ATOM      6  F   UNL     1      -1.885  12.045  23.400  0.00  0.00    +0.000 F 
ATOM      7  C   UNL     1      -1.134  11.234  22.645  0.00  0.00    +0.000 A 
ATOM      8  C   UNL     1      -0.826  11.603  21.343  0.00  0.00    +0.000 A 
ATOM      9  C   UNL     1      -0.041  10.756  20.553  0.00  0.00    +0.000 A 
ATOM     10  C   UNL     1       0.437   9.533  21.057  0.00  0.00    +0.000 A 
ATOM     11  C   UNL     1       0.119   9.193  22.384  0.00  0.00    +0.000 A 
ATOM     12  C   UNL     1      -0.668  10.037  23.175  0.00  0.00    +0.000 A 
ENDBRANCH   1  10
BRANCH   3  13
ATOM     13  C   UNL     1       3.146   5.516  19.956  0.00  0.00    +0.000 C 
BRANCH  13  14
ATOM     14  N   UNL     1       2.962   4.629  18.799  0.00  0.00    +0.000 NA
ATOM     15  H   UNL     1       2.330   5.103  18.149  0.00  0.00    +0.000 HD
BRANCH  14  16
ATOM     16  C   UNL     1       4.225   4.312  18.105  0.00  0.00    +0.000 C 
ATOM     17  C   UNL     1       5.367   5.104  18.779  0.00  0.00    +0.000 C 
ATOM     18  C   UNL     1       6.733   4.726  18.191  0.00  0.00    +0.000 C 
ATOM     19  C   UNL     1       6.698   4.692  16.709  0.00  0.00    +0.000 A 
ATOM     20  N   UNL     1       7.697   4.691  15.853  0.00  0.00    +0.000 NA
ATOM     21  C   UNL     1       7.064   4.621  14.640  0.00  0.00    +0.000 A 
ATOM     22  N   UNL     1       5.729   4.571  14.694  0.00  0.00    +0.000 NA
ATOM     23  N   UNL     1       5.524   4.613  16.019  0.00  0.00    +0.000 N 
ATOM     24  C   UNL     1       4.198   4.641  16.594  0.00  0.00    +0.000 C 
ENDBRANCH  14  16
ENDBRANCH  13  14
ENDBRANCH   3  13
TORSDOF 4
ENDMDL
MODEL 5
REMARK VINA RESULT:      -7.3      4.019      8.527
REMARK  Name = 
REMARK  4 active torsions:
REMARK  status: ('A' for Active; 'I' for Inactive)
REMARK    1  A    between atoms: C_5  and  C_6
REMARK    2  A    between atoms: C_8  and  C_9
REMARK    3  A    between atoms: C_9  and  N_10
REMARK    4  A    between atoms: N_10  and  C_11
REMARK                            x       y       z     vdW  Elec       q    Type
REMARK                         _______ _______ _______ _____ _____    ______ ____
ROOT
ATOM      1  C   UNL     1       4.021   3.919  18.110  0.00  0.00    +0.000 A 
ATOM      2  N   UNL     1       3.299   4.826  18.746  0.00  0.00    +0.000 NA
ATOM      3  C   UNL     1       2.447   4.221  19.664  0.00  0.00    +0.000 A 
ATOM      4  C   UNL     1       2.526   2.842  19.695  0.00  0.00    +0.000 A 
ATOM      5  S   UNL     1       3.677   2.288  18.563  0.00  0.00    +0.000 S 
ENDROOT
BRANCH   1  10
ATOM      6  F   UNL     1       7.864   5.088  14.175  0.00  0.00    +0.000 F 
ATOM      7  C   UNL     1       6.946   4.806  15.107  0.00  0.00    +0.000 A 
ATOM      8  C   UNL     1       5.680   4.391  14.716  0.00  0.00    +0.000 A 
ATOM      9  C   UNL     1       4.719   4.095  15.688  0.00  0.00    +0.000 A 
ATOM     10  C   UNL     1       5.014   4.218  17.058  0.00  0.00    +0.000 A 
ATOM     11  C   UNL     1       6.309   4.629  17.424  0.00  0.00    +0.000 A 
ATOM     12  C   UNL     1       7.270   4.928  16.452  0.00  0.00    +0.000 A 
ENDBRANCH   1  10
BRANCH   3  13
ATOM     13  C   UNL     1       1.527   5.072  20.492  0.00  0.00    +0.000 C 
BRANCH  13  14
ATOM     14  N   UNL     1       2.210   6.327  20.838  0.00  0.00    +0.000 NA
ATOM     15  H   UNL     1       3.099   6.340  20.331  0.00  0.00    +0.000 HD
BRANCH  14  16
ATOM     16  C   UNL     1       1.430   7.528  20.483  0.00  0.00    +0.000 C 
ATOM     17  C   UNL     1       2.048   8.156  19.212  0.00  0.00    +0.000 C 
ATOM     18  C   UNL     1       1.209   9.339  18.709  0.00  0.00    +0.000 C 
ATOM     19  C   UNL     1       0.832  10.250  19.817  0.00  0.00    +0.000 A 
ATOM     20  N   UNL     1       0.377  11.483  19.762  0.00  0.00    +0.000 NA
ATOM     21  C   UNL     1       0.180  11.799  21.079  0.00  0.00    +0.000 A 
ATOM     22  N   UNL     1       0.481  10.831  21.951  0.00  0.00    +0.000 NA
ATOM     23  N   UNL     1       0.888   9.858  21.122  0.00  0.00    +0.000 N 
ATOM     24  C   UNL     1       1.385   8.589  21.606  0.00  0.00    +0.000 C 
ENDBRANCH  14  16
ENDBRANCH  13  14
ENDBRANCH   3  13
TORSDOF 4
ENDMDL
MODEL 6
REMARK VINA RESULT:      -7.3      4.040      8.410
REMARK  Name = 
REMARK  4 active torsions:
REMARK  status: ('A' for Active; 'I' for Inactive)
REMARK    1  A    between atoms: C_5  and  C_6
REMARK    2  A    between atoms: C_8  and  C_9
REMARK    3  A    between atoms: C_9  and  N_10
REMARK    4  A    between atoms: N_10  and  C_11
REMARK                            x       y       z     vdW  Elec       q    Type
REMARK                         _______ _______ _______ _____ _____    ______ ____
ROOT
ATOM      1  C   UNL     1       4.085   3.906  17.854  0.00  0.00    +0.000 A 
ATOM      2  N   UNL     1       3.549   4.788  18.680  0.00  0.00    +0.000 NA
ATOM      3  C   UNL     1       2.614   4.180  19.511  0.00  0.00    +0.000 A 
ATOM      4  C   UNL     1       2.442   2.827  19.284  0.00  0.00    +0.000 A 
ATOM      5  S   UNL     1       3.458   2.305  18.016  0.00  0.00    +0.000 S 
ENDROOT
BRANCH   1  10
ATOM      6  F   UNL     1       7.892   5.073  13.883  0.00  0.00    +0.000 F 
ATOM      7  C   UNL     1       6.990   4.799  14.833  0.00  0.00    +0.000 A 
ATOM      8  C   UNL     1       7.354   4.893  16.169  0.00  0.00    +0.000 A 
ATOM      9  C   UNL     1       6.412   4.607  17.163  0.00  0.00    +0.000 A 
ATOM     10  C   UNL     1       5.102   4.219  16.829  0.00  0.00    +0.000 A 
ATOM     11  C   UNL     1       4.759   4.145  15.467  0.00  0.00    +0.000 A 
ATOM     12  C   UNL     1       5.701   4.428  14.472  0.00  0.00    +0.000 A 
ENDBRANCH   1  10
BRANCH   3  13
ATOM     13  C   UNL     1       1.875   5.006  20.524  0.00  0.00    +0.000 C 
BRANCH  13  14
ATOM     14  N   UNL     1       2.475   6.348  20.583  0.00  0.00    +0.000 NA
ATOM     15  H   UNL     1       3.342   6.318  20.041  0.00  0.00    +0.000 HD
BRANCH  14  16
ATOM     16  C   UNL     1       1.596   7.399  20.036  0.00  0.00    +0.000 C 
ATOM     17  C   UNL     1       2.299   8.043  18.819  0.00  0.00    +0.000 C 
ATOM     18  C   UNL     1       1.386   9.059  18.120  0.00  0.00    +0.000 C 
ATOM     19  C   UNL     1       0.730   9.963  19.095  0.00  0.00    +0.000 A 
ATOM     20  N   UNL     1       0.120  11.110  18.887  0.00  0.00    +0.000 NA
ATOM     21  C   UNL     1      -0.307  11.465  20.138  0.00  0.00    +0.000 A 
ATOM     22  N   UNL     1      -0.006  10.600  21.112  0.00  0.00    +0.000 NA
ATOM     23  N   UNL     1       0.648   9.654  20.421  0.00  0.00    +0.000 N 
ATOM     24  C   UNL     1       1.241   8.501  21.062  0.00  0.00    +0.000 C 
ENDBRANCH  14  16
ENDBRANCH  13  14
ENDBRANCH   3  13
TORSDOF 4
ENDMDL
MODEL 7
REMARK VINA RESULT:      -7.3      4.178      8.948
REMARK  Name = 
REMARK  4 active torsions:
REMARK  status: ('A' for Active; 'I' for Inactive)
REMARK    1  A    between atoms: C_5  and  C_6
REMARK    2  A    between atoms: C_8  and  C_9
REMARK    3  A    between atoms: C_9  and  N_10
REMARK    4  A    between atoms: N_10  and  C_11
REMARK                            x       y       z     vdW  Elec       q    Type
REMARK                         _______ _______ _______ _____ _____    ______ ____
ROOT
ATOM      1  C   UNL     1       5.797   4.694  16.587  0.00  0.00    +0.000 A 
ATOM      2  N   UNL     1       4.550   4.714  17.028  0.00  0.00    +0.000 NA
ATOM      3  C   UNL     1       4.519   4.862  18.411  0.00  0.00    +0.000 A 
ATOM      4  C   UNL     1       5.764   4.933  19.006  0.00  0.00    +0.000 A 
ATOM      5  S   UNL     1       6.993   4.813  17.827  0.00  0.00    +0.000 S 
ENDROOT
BRANCH   1  10
ATOM      6  F   UNL     1       7.357   4.154  11.212  0.00  0.00    +0.000 F 
ATOM      7  C   UNL     1       6.982   4.276  12.491  0.00  0.00    +0.000 A 
ATOM      8  C   UNL     1       5.845   3.616  12.936  0.00  0.00    +0.000 A 
ATOM      9  C   UNL     1       5.451   3.743  14.272  0.00  0.00    +0.000 A 
ATOM     10  C   UNL     1       6.188   4.535  15.172  0.00  0.00    +0.000 A 
ATOM     11  C   UNL     1       7.342   5.181  14.695  0.00  0.00    +0.000 A 
ATOM     12  C   UNL     1       7.736   5.058  13.358  0.00  0.00    +0.000 A 
ENDBRANCH   1  10
BRANCH   3  13
ATOM     13  C   UNL     1       3.197   4.900  19.121  0.00  0.00    +0.000 C 
BRANCH  13  14
ATOM     14  N   UNL     1       3.136   6.103  19.965  0.00  0.00    +0.000 NA
ATOM     15  H   UNL     1       4.064   6.534  19.948  0.00  0.00    +0.000 HD
BRANCH  14  16
ATOM     16  C   UNL     1       2.135   7.084  19.505  0.00  0.00    +0.000 C 
ATOM     17  C   UNL     1       2.747   7.902  18.345  0.00  0.00    +0.000 C 
ATOM     18  C   UNL     1       1.715   8.857  17.730  0.00  0.00    +0.000 C 
ATOM     19  C   UNL     1       0.965   9.595  18.775  0.00  0.00    +0.000 A 
ATOM     20  N   UNL     1       0.223  10.675  18.659  0.00  0.00    +0.000 NA
ATOM     21  C   UNL     1      -0.233  10.874  19.935  0.00  0.00    +0.000 A 
ATOM     22  N   UNL     1       0.177   9.975  20.836  0.00  0.00    +0.000 NA
ATOM     23  N   UNL     1       0.932   9.173  20.071  0.00  0.00    +0.000 N 
ATOM     24  C   UNL     1       1.661   8.049  20.616  0.00  0.00    +0.000 C 
ENDBRANCH  14  16
ENDBRANCH  13  14
ENDBRANCH   3  13
TORSDOF 4
ENDMDL
MODEL 8
REMARK VINA RESULT:      -7.3      0.930      1.816
REMARK  Name = 
REMARK  4 active torsions:
REMARK  status: ('A' for Active; 'I' for Inactive)
REMARK    1  A    between atoms: C_5  and  C_6
REMARK    2  A    between atoms: C_8  and  C_9
REMARK    3  A    between atoms: C_9  and  N_10
REMARK    4  A    between atoms: N_10  and  C_11
REMARK                            x       y       z     vdW  Elec       q    Type
REMARK                         _______ _______ _______ _____ _____    ______ ____
ROOT
ATOM      1  C   UNL     1       1.079   8.917  20.278  0.00  0.00    +0.000 A 
ATOM      2  N   UNL     1       1.537   7.743  20.678  0.00  0.00    +0.000 NA
ATOM      3  C   UNL     1       2.227   7.109  19.649  0.00  0.00    +0.000 A 
ATOM      4  C   UNL     1       2.265   7.817  18.464  0.00  0.00    +0.000 A 
ATOM      5  S   UNL     1       1.427   9.295  18.629  0.00  0.00    +0.000 S 
ENDROOT
BRANCH   1  10
ATOM      6  F   UNL     1      -1.940  12.371  23.531  0.00  0.00    +0.000 F 
ATOM      7  C   UNL     1      -1.219  11.554  22.753  0.00  0.00    +0.000 A 
ATOM      8  C   UNL     1      -0.772  12.004  21.518  0.00  0.00    +0.000 A 
ATOM      9  C   UNL     1      -0.018  11.153  20.704  0.00  0.00    +0.000 A 
ATOM     10  C   UNL     1       0.290   9.843  21.116  0.00  0.00    +0.000 A 
ATOM     11  C   UNL     1      -0.166   9.420  22.377  0.00  0.00    +0.000 A 
ATOM     12  C   UNL     1      -0.922  10.270  23.192  0.00  0.00    +0.000 A 
ENDBRANCH   1  10
BRANCH   3  13
ATOM     13  C   UNL     1       2.825   5.752  19.887  0.00  0.00    +0.000 C 
BRANCH  13  14
ATOM     14  N   UNL     1       4.253   5.785  19.540  0.00  0.00    +0.000 NA
ATOM     15  H   UNL     1       4.730   5.114  20.148  0.00  0.00    +0.000 HD
BRANCH  14  16
ATOM     16  C   UNL     1       4.516   5.436  18.130  0.00  0.00    +0.000 C 
ATOM     17  C   UNL     1       4.382   3.904  17.971  0.00  0.00    +0.000 C 
ATOM     18  C   UNL     1       4.516   3.482  16.502  0.00  0.00    +0.000 C 
ATOM     19  C   UNL     1       5.668   4.147  15.846  0.00  0.00    +0.000 A 
ATOM     20  N   UNL     1       6.270   3.844  14.716  0.00  0.00    +0.000 NA
ATOM     21  C   UNL     1       7.230   4.814  14.609  0.00  0.00    +0.000 A 
ATOM     22  N   UNL     1       7.255   5.707  15.604  0.00  0.00    +0.000 NA
ATOM     23  N   UNL     1       6.250   5.262  16.372  0.00  0.00    +0.000 N 
ATOM     24  C   UNL     1       5.910   5.882  17.633  0.00  0.00    +0.000 C 
ENDBRANCH  14  16
ENDBRANCH  13  14
ENDBRANCH   3  13
TORSDOF 4
ENDMDL
MODEL 9
REMARK VINA RESULT:      -7.3      4.304      8.553
REMARK  Name = 
REMARK  4 active torsions:
REMARK  status: ('A' for Active; 'I' for Inactive)
REMARK    1  A    between atoms: C_5  and  C_6
REMARK    2  A    between atoms: C_8  and  C_9
REMARK    3  A    between atoms: C_9  and  N_10
REMARK    4  A    between atoms: N_10  and  C_11
REMARK                            x       y       z     vdW  Elec       q    Type
REMARK                         _______ _______ _______ _____ _____    ______ ____
ROOT
ATOM      1  C   UNL     1       6.196   4.687  16.773  0.00  0.00    +0.000 A 
ATOM      2  N   UNL     1       5.183   4.131  17.415  0.00  0.00    +0.000 NA
ATOM      3  C   UNL     1       5.234   4.436  18.772  0.00  0.00    +0.000 A 
ATOM      4  C   UNL     1       6.312   5.217  19.142  0.00  0.00    +0.000 A 
ATOM      5  S   UNL     1       7.280   5.575  17.782  0.00  0.00    +0.000 S 
ENDROOT
BRANCH   1  10
ATOM      6  F   UNL     1       7.237   4.239  11.264  0.00  0.00    +0.000 F 
ATOM      7  C   UNL     1       6.985   4.340  12.576  0.00  0.00    +0.000 A 
ATOM      8  C   UNL     1       5.947   3.605  13.131  0.00  0.00    +0.000 A 
ATOM      9  C   UNL     1       5.683   3.708  14.501  0.00  0.00    +0.000 A 
ATOM     10  C   UNL     1       6.451   4.551  15.324  0.00  0.00    +0.000 A 
ATOM     11  C   UNL     1       7.505   5.274  14.735  0.00  0.00    +0.000 A 
ATOM     12  C   UNL     1       7.768   5.174  13.365  0.00  0.00    +0.000 A 
ENDBRANCH   1  10
BRANCH   3  13
ATOM     13  C   UNL     1       4.178   3.895  19.692  0.00  0.00    +0.000 C 
BRANCH  13  14
ATOM     14  N   UNL     1       2.868   4.433  19.295  0.00  0.00    +0.000 NA
ATOM     15  H   UNL     1       2.160   3.956  19.859  0.00  0.00    +0.000 HD
BRANCH  14  16
ATOM     16  C   UNL     1       2.754   5.890  19.502  0.00  0.00    +0.000 C 
ATOM     17  C   UNL     1       1.602   6.156  20.497  0.00  0.00    +0.000 C 
ATOM     18  C   UNL     1       1.509   7.644  20.859  0.00  0.00    +0.000 C 
ATOM     19  C   UNL     1       1.592   8.504  19.653  0.00  0.00    +0.000 A 
ATOM     20  N   UNL     1       1.275   9.773  19.514  0.00  0.00    +0.000 NA
ATOM     21  C   UNL     1       1.588  10.027  18.205  0.00  0.00    +0.000 A 
ATOM     22  N   UNL     1       2.089   8.991  17.525  0.00  0.00    +0.000 NA
ATOM     23  N   UNL     1       2.084   8.039  18.470  0.00  0.00    +0.000 N 
ATOM     24  C   UNL     1       2.494   6.679  18.198  0.00  0.00    +0.000 C 
ENDBRANCH  14  16
ENDBRANCH  13  14
ENDBRANCH   3  13
TORSDOF 4
ENDMDL
