MODEL 1
REMARK VINA RESULT:      -8.2      0.000      0.000
REMARK  Name = 
REMARK  9 active torsions:
REMARK  status: ('A' for Active; 'I' for Inactive)
REMARK    1  A    between atoms: C_1  and  C_2
REMARK    2  A    between atoms: C_7  and  O_8
REMARK    3  A    between atoms: C_9  and  C_10
REMARK    4  A    between atoms: C_10  and  N_11
REMARK    5  A    between atoms: N_11  and  C_12
REMARK    6  A    between atoms: C_12  and  C_13
REMARK    7  A    between atoms: C_18  and  S_19
REMARK    8  A    between atoms: N_20  and  C_21
REMARK    9  A    between atoms: C_21  and  C_22
REMARK                            x       y       z     vdW  Elec       q    Type
REMARK                         _______ _______ _______ _____ _____    ______ ____
ROOT
ATOM      1  N   UNL     1       3.640   5.609  17.963  0.00  0.00    +0.000 N 
ATOM      2  C   UNL     1       4.770   5.375  17.190  0.00  0.00    +0.000 C 
ATOM      3  N   UNL     1       4.920   4.252  16.571  0.00  0.00    +0.000 NA
ENDROOT
BRANCH   2   4
ATOM      4  S   UNL     1       5.933   6.703  17.032  0.00  0.00    +0.000 S 
ATOM      5  H   UNL     1       6.852   6.058  16.316  0.00  0.00    +0.000 HD
ENDBRANCH   2   4
BRANCH   1   6
ATOM      6  C   UNL     1       3.672   6.425  19.192  0.00  0.00    +0.000 C 
BRANCH   6  14
ATOM      7  C   UNL     1      -1.201  10.591  23.174  0.00  0.00    +0.000 C 
ATOM      8  C   UNL     1      -0.467  10.283  21.909  0.00  0.00    +0.000 A 
ATOM      9  C   UNL     1      -0.485  11.173  20.830  0.00  0.00    +0.000 A 
ATOM     10  C   UNL     1       0.145  10.836  19.632  0.00  0.00    +0.000 A 
ATOM     11  C   UNL     1       0.852   9.649  19.482  0.00  0.00    +0.000 A 
ATOM     12  N   UNL     1       1.448   9.370  18.309  0.00  0.00    +0.000 NA
ATOM     13  C   UNL     1       2.260   8.298  18.273  0.00  0.00    +0.000 A 
ATOM     14  C   UNL     1       2.560   7.451  19.332  0.00  0.00    +0.000 A 
ATOM     15  C   UNL     1       1.828   7.687  20.499  0.00  0.00    +0.000 A 
ATOM     16  C   UNL     1       0.967   8.796  20.600  0.00  0.00    +0.000 A 
ATOM     17  C   UNL     1       0.268   9.100  21.786  0.00  0.00    +0.000 A 
BRANCH  13  18
ATOM     18  O   UNL     1       2.845   8.141  17.058  0.00  0.00    +0.000 OA
ATOM     19  H   UNL     1       3.649   8.677  17.196  0.00  0.00    +0.000 HD
ENDBRANCH  13  18
ENDBRANCH   6  14
ENDBRANCH   1   6
BRANCH   1  20
ATOM     20  C   UNL     1       2.438   4.778  17.737  0.00  0.00    +0.000 C 
BRANCH  20  21
ATOM     21  C   UNL     1       1.903   3.825  18.791  0.00  0.00    +0.000 A 
ATOM     22  C   UNL     1       1.037   4.091  19.848  0.00  0.00    +0.000 A 
ATOM     23  C   UNL     1       1.059   3.069  20.850  0.00  0.00    +0.000 A 
ATOM     24  C   UNL     1       1.888   2.026  20.501  0.00  0.00    +0.000 A 
ATOM     25  S   UNL     1       2.564   2.245  18.940  0.00  0.00    +0.000 S 
ENDBRANCH  20  21
ENDBRANCH   1  20
BRANCH   3  26
ATOM     26  C   UNL     1       6.121   3.927  15.797  0.00  0.00    +0.000 C 
BRANCH  26  27
ATOM     27  C   UNL     1       6.030   4.475  14.363  0.00  0.00    +0.000 C 
ATOM     28  C   UNL     1       6.051   3.412  13.270  0.00  0.00    +0.000 C 
ATOM     29  C   UNL     1       6.727   4.135  12.130  0.00  0.00    +0.000 C 
ATOM     30  C   UNL     1       7.744   4.976  12.861  0.00  0.00    +0.000 C 
ATOM     31  O   UNL     1       7.103   5.396  14.071  0.00  0.00    +0.000 OA
ENDBRANCH  26  27
ENDBRANCH   3  26
TORSDOF 8
ENDMDL
MODEL 2
REMARK VINA RESULT:      -7.5      2.172      7.995
REMARK  Name = 
REMARK  9 active torsions:
REMARK  status: ('A' for Active; 'I' for Inactive)
REMARK    1  A    between atoms: C_1  and  C_2
REMARK    2  A    between atoms: C_7  and  O_8
REMARK    3  A    between atoms: C_9  and  C_10
REMARK    4  A    between atoms: C_10  and  N_11
REMARK    5  A    between atoms: N_11  and  C_12
REMARK    6  A    between atoms: C_12  and  C_13
REMARK    7  A    between atoms: C_18  and  S_19
REMARK    8  A    between atoms: N_20  and  C_21
REMARK    9  A    between atoms: C_21  and  C_22
REMARK                            x       y       z     vdW  Elec       q    Type
REMARK                         _______ _______ _______ _____ _____    ______ ____
ROOT
ATOM      1  N   UNL     1       3.686   6.352  18.294  0.00  0.00    +0.000 N 
ATOM      2  C   UNL     1       3.579   5.361  19.260  0.00  0.00    +0.000 C 
ATOM      3  N   UNL     1       2.596   5.365  20.098  0.00  0.00    +0.000 NA
ENDROOT
BRANCH   2   4
ATOM      4  S   UNL     1       4.792   4.069  19.233  0.00  0.00    +0.000 S 
ATOM      5  H   UNL     1       3.956   3.033  19.287  0.00  0.00    +0.000 HD
ENDBRANCH   2   4
BRANCH   1   6
ATOM      6  C   UNL     1       4.986   6.865  17.820  0.00  0.00    +0.000 C 
BRANCH   6  14
ATOM      7  C   UNL     1       4.809   2.768  11.485  0.00  0.00    +0.000 C 
ATOM      8  C   UNL     1       5.543   3.586  12.497  0.00  0.00    +0.000 A 
ATOM      9  C   UNL     1       6.860   4.000  12.271  0.00  0.00    +0.000 A 
ATOM     10  C   UNL     1       7.554   4.701  13.258  0.00  0.00    +0.000 A 
ATOM     11  C   UNL     1       6.958   5.059  14.461  0.00  0.00    +0.000 A 
ATOM     12  N   UNL     1       7.666   5.741  15.381  0.00  0.00    +0.000 NA
ATOM     13  C   UNL     1       6.994   6.212  16.447  0.00  0.00    +0.000 A 
ATOM     14  C   UNL     1       5.634   6.080  16.692  0.00  0.00    +0.000 A 
ATOM     15  C   UNL     1       4.950   5.259  15.790  0.00  0.00    +0.000 A 
ATOM     16  C   UNL     1       5.597   4.741  14.652  0.00  0.00    +0.000 A 
ATOM     17  C   UNL     1       4.919   3.969  13.688  0.00  0.00    +0.000 A 
BRANCH  13  18
ATOM     18  O   UNL     1       7.794   6.923  17.281  0.00  0.00    +0.000 OA
ATOM     19  H   UNL     1       8.520   7.138  16.663  0.00  0.00    +0.000 HD
ENDBRANCH  13  18
ENDBRANCH   6  14
ENDBRANCH   1   6
BRANCH   1  20
ATOM     20  C   UNL     1       2.484   7.140  17.946  0.00  0.00    +0.000 C 
BRANCH  20  21
ATOM     21  C   UNL     1       2.052   8.355  18.748  0.00  0.00    +0.000 A 
ATOM     22  C   UNL     1       1.542   8.410  20.042  0.00  0.00    +0.000 A 
ATOM     23  C   UNL     1       0.889   9.652  20.325  0.00  0.00    +0.000 A 
ATOM     24  C   UNL     1       0.975  10.530  19.267  0.00  0.00    +0.000 A 
ATOM     25  S   UNL     1       1.910   9.887  17.981  0.00  0.00    +0.000 S 
ENDBRANCH  20  21
ENDBRANCH   1  20
BRANCH   3  26
ATOM     26  C   UNL     1       2.471   4.383  21.178  0.00  0.00    +0.000 C 
BRANCH  26  27
ATOM     27  C   UNL     1       1.523   3.236  20.787  0.00  0.00    +0.000 C 
ATOM     28  C   UNL     1       2.204   2.035  20.140  0.00  0.00    +0.000 C 
ATOM     29  C   UNL     1       1.133   1.521  19.209  0.00  0.00    +0.000 C 
ATOM     30  C   UNL     1       0.494   2.804  18.738  0.00  0.00    +0.000 C 
ATOM     31  O   UNL     1       0.496   3.677  19.873  0.00  0.00    +0.000 OA
ENDBRANCH  26  27
ENDBRANCH   3  26
TORSDOF 8
ENDMDL
MODEL 3
REMARK VINA RESULT:      -7.4      2.195      8.201
REMARK  Name = 
REMARK  9 active torsions:
REMARK  status: ('A' for Active; 'I' for Inactive)
REMARK    1  A    between atoms: C_1  and  C_2
REMARK    2  A    between atoms: C_7  and  O_8
REMARK    3  A    between atoms: C_9  and  C_10
REMARK    4  A    between atoms: C_10  and  N_11
REMARK    5  A    between atoms: N_11  and  C_12
REMARK    6  A    between atoms: C_12  and  C_13
REMARK    7  A    between atoms: C_18  and  S_19
REMARK    8  A    between atoms: N_20  and  C_21
REMARK    9  A    between atoms: C_21  and  C_22
REMARK                            x       y       z     vdW  Elec       q    Type
REMARK                         _______ _______ _______ _____ _____    ______ ____
ROOT
ATOM      1  N   UNL     1       3.374   5.651  17.595  0.00  0.00    +0.000 N 
ATOM      2  C   UNL     1       2.672   4.476  17.826  0.00  0.00    +0.000 C 
ATOM      3  N   UNL     1       1.471   4.511  18.297  0.00  0.00    +0.000 NA
ENDROOT
BRANCH   2   4
ATOM      4  S   UNL     1       3.466   2.957  17.374  0.00  0.00    +0.000 S 
ATOM      5  H   UNL     1       3.156   2.257  18.464  0.00  0.00    +0.000 HD
ENDBRANCH   2   4
BRANCH   1   6
ATOM      6  C   UNL     1       4.836   5.753  17.767  0.00  0.00    +0.000 C 
BRANCH   6  14
ATOM      7  C   UNL     1       5.876   2.329  11.123  0.00  0.00    +0.000 C 
ATOM      8  C   UNL     1       6.305   3.289  12.185  0.00  0.00    +0.000 A 
ATOM      9  C   UNL     1       7.365   4.177  11.968  0.00  0.00    +0.000 A 
ATOM     10  C   UNL     1       7.797   5.016  12.995  0.00  0.00    +0.000 A 
ATOM     11  C   UNL     1       7.170   5.044  14.234  0.00  0.00    +0.000 A 
ATOM     12  N   UNL     1       7.621   5.874  15.193  0.00  0.00    +0.000 NA
ATOM     13  C   UNL     1       6.875   5.988  16.307  0.00  0.00    +0.000 A 
ATOM     14  C   UNL     1       5.673   5.344  16.566  0.00  0.00    +0.000 A 
ATOM     15  C   UNL     1       5.297   4.392  15.614  0.00  0.00    +0.000 A 
ATOM     16  C   UNL     1       6.033   4.231  14.425  0.00  0.00    +0.000 A 
ATOM     17  C   UNL     1       5.642   3.330  13.415  0.00  0.00    +0.000 A 
BRANCH  13  18
ATOM     18  O   UNL     1       7.396   6.886  17.181  0.00  0.00    +0.000 OA
ATOM     19  H   UNL     1       8.002   6.298  17.673  0.00  0.00    +0.000 HD
ENDBRANCH  13  18
ENDBRANCH   6  14
ENDBRANCH   1   6
BRANCH   1  20
ATOM     20  C   UNL     1       2.620   6.918  17.473  0.00  0.00    +0.000 C 
BRANCH  20  21
ATOM     21  C   UNL     1       2.235   7.750  18.683  0.00  0.00    +0.000 A 
ATOM     22  C   UNL     1       2.164   7.367  20.019  0.00  0.00    +0.000 A 
ATOM     23  C   UNL     1       1.403   8.280  20.816  0.00  0.00    +0.000 A 
ATOM     24  C   UNL     1       0.970   9.364  20.083  0.00  0.00    +0.000 A 
ATOM     25  S   UNL     1       1.554   9.315  18.471  0.00  0.00    +0.000 S 
ENDBRANCH  20  21
ENDBRANCH   1  20
BRANCH   3  26
ATOM     26  C   UNL     1       0.711   3.301  18.622  0.00  0.00    +0.000 C 
BRANCH  26  27
ATOM     27  C   UNL     1       0.957   2.857  20.074  0.00  0.00    +0.000 C 
ATOM     28  C   UNL     1       1.305   3.986  21.038  0.00  0.00    +0.000 C 
ATOM     29  C   UNL     1       2.210   3.295  22.030  0.00  0.00    +0.000 C 
ATOM     30  C   UNL     1       2.967   2.341  21.140  0.00  0.00    +0.000 C 
ATOM     31  O   UNL     1       2.022   1.887  20.165  0.00  0.00    +0.000 OA
ENDBRANCH  26  27
ENDBRANCH   3  26
TORSDOF 8
ENDMDL
MODEL 4
REMARK VINA RESULT:      -7.3      4.994     10.277
REMARK  Name = 
REMARK  9 active torsions:
REMARK  status: ('A' for Active; 'I' for Inactive)
REMARK    1  A    between atoms: C_1  and  C_2
REMARK    2  A    between atoms: C_7  and  O_8
REMARK    3  A    between atoms: C_9  and  C_10
REMARK    4  A    between atoms: C_10  and  N_11
REMARK    5  A    between atoms: N_11  and  C_12
REMARK    6  A    between atoms: C_12  and  C_13
REMARK    7  A    between atoms: C_18  and  S_19
REMARK    8  A    between atoms: N_20  and  C_21
REMARK    9  A    between atoms: C_21  and  C_22
REMARK                            x       y       z     vdW  Elec       q    Type
REMARK                         _______ _______ _______ _____ _____    ______ ____
ROOT
ATOM      1  N   UNL     1      -1.306  12.268  20.449  0.00  0.00    +0.000 N 
ATOM      2  C   UNL     1      -2.113  12.251  21.578  0.00  0.00    +0.000 C 
ATOM      3  N   UNL     1      -3.274  12.816  21.563  0.00  0.00    +0.000 NA
ENDROOT
BRANCH   2   4
ATOM      4  S   UNL     1      -1.515  11.360  22.989  0.00  0.00    +0.000 S 
ATOM      5  H   UNL     1      -1.000  12.394  23.653  0.00  0.00    +0.000 HD
ENDBRANCH   2   4
BRANCH   1   6
ATOM      6  C   UNL     1       0.167  12.335  20.524  0.00  0.00    +0.000 C 
BRANCH   6  14
ATOM      7  C   UNL     1       2.076   5.034  20.599  0.00  0.00    +0.000 C 
ATOM      8  C   UNL     1       2.009   6.365  19.922  0.00  0.00    +0.000 A 
ATOM      9  C   UNL     1       2.314   6.499  18.564  0.00  0.00    +0.000 A 
ATOM     10  C   UNL     1       2.316   7.760  17.967  0.00  0.00    +0.000 A 
ATOM     11  C   UNL     1       1.966   8.906  18.670  0.00  0.00    +0.000 A 
ATOM     12  N   UNL     1       1.978  10.101  18.049  0.00  0.00    +0.000 NA
ATOM     13  C   UNL     1       1.466  11.147  18.723  0.00  0.00    +0.000 A 
ATOM     14  C   UNL     1       0.910  11.120  19.995  0.00  0.00    +0.000 A 
ATOM     15  C   UNL     1       1.031   9.899  20.664  0.00  0.00    +0.000 A 
ATOM     16  C   UNL     1       1.552   8.766  20.011  0.00  0.00    +0.000 A 
ATOM     17  C   UNL     1       1.622   7.505  20.635  0.00  0.00    +0.000 A 
BRANCH  13  18
ATOM     18  O   UNL     1       1.483  12.286  17.985  0.00  0.00    +0.000 OA
ATOM     19  H   UNL     1       1.571  12.942  18.704  0.00  0.00    +0.000 HD
ENDBRANCH  13  18
ENDBRANCH   6  14
ENDBRANCH   1   6
BRANCH   1  20
ATOM     20  C   UNL     1      -1.927  12.538  19.134  0.00  0.00    +0.000 C 
BRANCH  20  21
ATOM     21  C   UNL     1      -2.450  11.425  18.243  0.00  0.00    +0.000 A 
ATOM     22  C   UNL     1      -1.744  10.399  17.622  0.00  0.00    +0.000 A 
ATOM     23  C   UNL     1      -2.484   9.780  16.565  0.00  0.00    +0.000 A 
ATOM     24  C   UNL     1      -3.752  10.305  16.450  0.00  0.00    +0.000 A 
ATOM     25  S   UNL     1      -4.070  11.473  17.666  0.00  0.00    +0.000 S 
ENDBRANCH  20  21
ENDBRANCH   1  20
BRANCH   3  26
ATOM     26  C   UNL     1      -4.138  12.886  22.745  0.00  0.00    +0.000 C 
BRANCH  26  27
ATOM     27  C   UNL     1      -5.625  12.886  22.355  0.00  0.00    +0.000 C 
ATOM     28  C   UNL     1      -5.922  12.334  20.965  0.00  0.00    +0.000 C 
ATOM     29  C   UNL     1      -7.138  13.130  20.554  0.00  0.00    +0.000 C 
ATOM     30  C   UNL     1      -6.838  14.480  21.157  0.00  0.00    +0.000 C 
ATOM     31  O   UNL     1      -6.194  14.212  22.408  0.00  0.00    +0.000 OA
ENDBRANCH  26  27
ENDBRANCH   3  26
TORSDOF 8
ENDMDL
MODEL 5
REMARK VINA RESULT:      -7.3      2.191      3.218
REMARK  Name = 
REMARK  9 active torsions:
REMARK  status: ('A' for Active; 'I' for Inactive)
REMARK    1  A    between atoms: C_1  and  C_2
REMARK    2  A    between atoms: C_7  and  O_8
REMARK    3  A    between atoms: C_9  and  C_10
REMARK    4  A    between atoms: C_10  and  N_11
REMARK    5  A    between atoms: N_11  and  C_12
REMARK    6  A    between atoms: C_12  and  C_13
REMARK    7  A    between atoms: C_18  and  S_19
REMARK    8  A    between atoms: N_20  and  C_21
REMARK    9  A    between atoms: C_21  and  C_22
REMARK                            x       y       z     vdW  Elec       q    Type
REMARK                         _______ _______ _______ _____ _____    ______ ____
ROOT
ATOM      1  N   UNL     1       2.695   6.124  18.528  0.00  0.00    +0.000 N 
ATOM      2  C   UNL     1       3.717   6.315  17.608  0.00  0.00    +0.000 C 
ATOM      3  N   UNL     1       4.211   5.314  16.960  0.00  0.00    +0.000 NA
ENDROOT
BRANCH   2   4
ATOM      4  S   UNL     1       4.241   7.983  17.315  0.00  0.00    +0.000 S 
ATOM      5  H   UNL     1       4.813   7.788  16.128  0.00  0.00    +0.000 HD
ENDBRANCH   2   4
BRANCH   1   6
ATOM      6  C   UNL     1       2.563   6.937  19.753  0.00  0.00    +0.000 C 
BRANCH   6  14
ATOM      7  C   UNL     1      -2.591  11.210  16.270  0.00  0.00    +0.000 C 
ATOM      8  C   UNL     1      -1.824  10.813  17.490  0.00  0.00    +0.000 A 
ATOM      9  C   UNL     1      -2.175  11.302  18.753  0.00  0.00    +0.000 A 
ATOM     10  C   UNL     1      -1.404  10.978  19.870  0.00  0.00    +0.000 A 
ATOM     11  C   UNL     1      -0.309  10.128  19.785  0.00  0.00    +0.000 A 
ATOM     12  N   UNL     1       0.402   9.840  20.891  0.00  0.00    +0.000 NA
ATOM     13  C   UNL     1       1.339   8.880  20.786  0.00  0.00    +0.000 A 
ATOM     14  C   UNL     1       1.642   8.141  19.651  0.00  0.00    +0.000 A 
ATOM     15  C   UNL     1       0.982   8.550  18.488  0.00  0.00    +0.000 A 
ATOM     16  C   UNL     1      -0.013   9.544  18.535  0.00  0.00    +0.000 A 
ATOM     17  C   UNL     1      -0.745   9.929  17.394  0.00  0.00    +0.000 A 
BRANCH  13  18
ATOM     18  O   UNL     1       1.957   8.639  21.970  0.00  0.00    +0.000 OA
ATOM     19  H   UNL     1       2.688   8.072  21.657  0.00  0.00    +0.000 HD
ENDBRANCH  13  18
ENDBRANCH   6  14
ENDBRANCH   1   6
BRANCH   1  20
ATOM     20  C   UNL     1       1.893   4.884  18.453  0.00  0.00    +0.000 C 
BRANCH  20  21
ATOM     21  C   UNL     1       1.911   3.840  19.556  0.00  0.00    +0.000 A 
ATOM     22  C   UNL     1       0.945   3.573  20.522  0.00  0.00    +0.000 A 
ATOM     23  C   UNL     1       1.456   2.806  21.616  0.00  0.00    +0.000 A 
ATOM     24  C   UNL     1       2.774   2.454  21.426  0.00  0.00    +0.000 A 
ATOM     25  S   UNL     1       3.358   2.975  19.900  0.00  0.00    +0.000 S 
ENDBRANCH  20  21
ENDBRANCH   1  20
BRANCH   3  26
ATOM     26  C   UNL     1       5.334   5.450  16.028  0.00  0.00    +0.000 C 
BRANCH  26  27
ATOM     27  C   UNL     1       6.685   5.328  16.754  0.00  0.00    +0.000 C 
ATOM     28  C   UNL     1       6.588   4.912  18.218  0.00  0.00    +0.000 C 
ATOM     29  C   UNL     1       7.780   5.608  18.830  0.00  0.00    +0.000 C 
ATOM     30  C   UNL     1       7.808   6.903  18.058  0.00  0.00    +0.000 C 
ATOM     31  O   UNL     1       7.426   6.566  16.720  0.00  0.00    +0.000 OA
ENDBRANCH  26  27
ENDBRANCH   3  26
TORSDOF 8
ENDMDL
MODEL 6
REMARK VINA RESULT:      -7.2      2.058      5.370
REMARK  Name = 
REMARK  9 active torsions:
REMARK  status: ('A' for Active; 'I' for Inactive)
REMARK    1  A    between atoms: C_1  and  C_2
REMARK    2  A    between atoms: C_7  and  O_8
REMARK    3  A    between atoms: C_9  and  C_10
REMARK    4  A    between atoms: C_10  and  N_11
REMARK    5  A    between atoms: N_11  and  C_12
REMARK    6  A    between atoms: C_12  and  C_13
REMARK    7  A    between atoms: C_18  and  S_19
REMARK    8  A    between atoms: N_20  and  C_21
REMARK    9  A    between atoms: C_21  and  C_22
REMARK                            x       y       z     vdW  Elec       q    Type
REMARK                         _______ _______ _______ _____ _____    ______ ____
ROOT
ATOM      1  N   UNL     1       4.697   4.449  17.317  0.00  0.00    +0.000 N 
ATOM      2  C   UNL     1       4.265   3.425  18.149  0.00  0.00    +0.000 C 
ATOM      3  N   UNL     1       3.432   2.538  17.718  0.00  0.00    +0.000 NA
ENDROOT
BRANCH   2   4
ATOM      4  S   UNL     1       4.967   3.351  19.775  0.00  0.00    +0.000 S 
ATOM      5  H   UNL     1       4.052   4.088  20.402  0.00  0.00    +0.000 HD
ENDBRANCH   2   4
BRANCH   1   6
ATOM      6  C   UNL     1       5.004   5.804  17.816  0.00  0.00    +0.000 C 
BRANCH   6  14
ATOM      7  C   UNL     1      -0.180   8.831  22.389  0.00  0.00    +0.000 C 
ATOM      8  C   UNL     1       0.561   8.791  21.091  0.00  0.00    +0.000 A 
ATOM      9  C   UNL     1       0.445   9.831  20.163  0.00  0.00    +0.000 A 
ATOM     10  C   UNL     1       1.088   9.742  18.927  0.00  0.00    +0.000 A 
ATOM     11  C   UNL     1       1.900   8.664  18.597  0.00  0.00    +0.000 A 
ATOM     12  N   UNL     1       2.503   8.626  17.395  0.00  0.00    +0.000 NA
ATOM     13  C   UNL     1       3.411   7.653  17.195  0.00  0.00    +0.000 A 
ATOM     14  C   UNL     1       3.804   6.687  18.111  0.00  0.00    +0.000 A 
ATOM     15  C   UNL     1       3.069   6.670  19.300  0.00  0.00    +0.000 A 
ATOM     16  C   UNL     1       2.110   7.664  19.570  0.00  0.00    +0.000 A 
ATOM     17  C   UNL     1       1.402   7.716  20.788  0.00  0.00    +0.000 A 
BRANCH  13  18
ATOM     18  O   UNL     1       3.991   7.740  15.971  0.00  0.00    +0.000 OA
ATOM     19  H   UNL     1       4.858   7.338  16.175  0.00  0.00    +0.000 HD
ENDBRANCH  13  18
ENDBRANCH   6  14
ENDBRANCH   1   6
BRANCH   1  20
ATOM     20  C   UNL     1       4.555   4.286  15.854  0.00  0.00    +0.000 C 
BRANCH  20  21
ATOM     21  C   UNL     1       5.750   4.307  14.917  0.00  0.00    +0.000 A 
ATOM     22  C   UNL     1       6.959   4.982  15.059  0.00  0.00    +0.000 A 
ATOM     23  C   UNL     1       7.680   5.087  13.828  0.00  0.00    +0.000 A 
ATOM     24  C   UNL     1       7.037   4.436  12.798  0.00  0.00    +0.000 A 
ATOM     25  S   UNL     1       5.620   3.635  13.340  0.00  0.00    +0.000 S 
ENDBRANCH  20  21
ENDBRANCH   1  20
BRANCH   3  26
ATOM     26  C   UNL     1       2.893   1.475  18.572  0.00  0.00    +0.000 C 
BRANCH  26  27
ATOM     27  C   UNL     1       1.680   1.966  19.381  0.00  0.00    +0.000 C 
ATOM     28  C   UNL     1       1.159   3.342  18.980  0.00  0.00    +0.000 C 
ATOM     29  C   UNL     1       0.622   3.876  20.287  0.00  0.00    +0.000 C 
ATOM     30  C   UNL     1       1.621   3.327  21.275  0.00  0.00    +0.000 C 
ATOM     31  O   UNL     1       1.965   2.023  20.794  0.00  0.00    +0.000 OA
ENDBRANCH  26  27
ENDBRANCH   3  26
TORSDOF 8
ENDMDL
MODEL 7
REMARK VINA RESULT:      -7.1      4.732     10.367
REMARK  Name = 
REMARK  9 active torsions:
REMARK  status: ('A' for Active; 'I' for Inactive)
REMARK    1  A    between atoms: C_1  and  C_2
REMARK    2  A    between atoms: C_7  and  O_8
REMARK    3  A    between atoms: C_9  and  C_10
REMARK    4  A    between atoms: C_10  and  N_11
REMARK    5  A    between atoms: N_11  and  C_12
REMARK    6  A    between atoms: C_12  and  C_13
REMARK    7  A    between atoms: C_18  and  S_19
REMARK    8  A    between atoms: N_20  and  C_21
REMARK    9  A    between atoms: C_21  and  C_22
REMARK                            x       y       z     vdW  Elec       q    Type
REMARK                         _______ _______ _______ _____ _____    ______ ____
ROOT
ATOM      1  N   UNL     1      -0.886  12.072  20.097  0.00  0.00    +0.000 N 
ATOM      2  C   UNL     1      -1.699  12.170  21.218  0.00  0.00    +0.000 C 
ATOM      3  N   UNL     1      -2.811  12.825  21.167  0.00  0.00    +0.000 NA
ENDROOT
BRANCH   2   4
ATOM      4  S   UNL     1      -1.183  11.296  22.672  0.00  0.00    +0.000 S 
ATOM      5  H   UNL     1      -0.158  12.081  23.002  0.00  0.00    +0.000 HD
ENDBRANCH   2   4
BRANCH   1   6
ATOM      6  C   UNL     1       0.587  12.025  20.183  0.00  0.00    +0.000 C 
BRANCH   6  14
ATOM      7  C   UNL     1       1.839   4.601  20.711  0.00  0.00    +0.000 C 
ATOM      8  C   UNL     1       1.906   5.892  19.961  0.00  0.00    +0.000 A 
ATOM      9  C   UNL     1       2.253   5.922  18.606  0.00  0.00    +0.000 A 
ATOM     10  C   UNL     1       2.380   7.142  17.941  0.00  0.00    +0.000 A 
ATOM     11  C   UNL     1       2.117   8.352  18.570  0.00  0.00    +0.000 A 
ATOM     12  N   UNL     1       2.249   9.504  17.886  0.00  0.00    +0.000 NA
ATOM     13  C   UNL     1       1.816  10.627  18.487  0.00  0.00    +0.000 A 
ATOM     14  C   UNL     1       1.232  10.722  19.742  0.00  0.00    +0.000 A 
ATOM     15  C   UNL     1       1.228   9.534  20.480  0.00  0.00    +0.000 A 
ATOM     16  C   UNL     1       1.662   8.325  19.905  0.00  0.00    +0.000 A 
ATOM     17  C   UNL     1       1.605   7.100  20.599  0.00  0.00    +0.000 A 
BRANCH  13  18
ATOM     18  O   UNL     1       1.951  11.717  17.689  0.00  0.00    +0.000 OA
ATOM     19  H   UNL     1       1.384  11.441  16.943  0.00  0.00    +0.000 HD
ENDBRANCH  13  18
ENDBRANCH   6  14
ENDBRANCH   1   6
BRANCH   1  20
ATOM     20  C   UNL     1      -1.475  12.333  18.766  0.00  0.00    +0.000 C 
BRANCH  20  21
ATOM     21  C   UNL     1      -2.203  11.258  17.978  0.00  0.00    +0.000 A 
ATOM     22  C   UNL     1      -1.673  10.171  17.289  0.00  0.00    +0.000 A 
ATOM     23  C   UNL     1      -2.599   9.604  16.357  0.00  0.00    +0.000 A 
ATOM     24  C   UNL     1      -3.825  10.230  16.405  0.00  0.00    +0.000 A 
ATOM     25  S   UNL     1      -3.878  11.432  17.628  0.00  0.00    +0.000 S 
ENDBRANCH  20  21
ENDBRANCH   1  20
BRANCH   3  26
ATOM     26  C   UNL     1      -3.673  13.015  22.337  0.00  0.00    +0.000 C 
BRANCH  26  27
ATOM     27  C   UNL     1      -3.438  14.387  22.991  0.00  0.00    +0.000 C 
ATOM     28  C   UNL     1      -3.442  14.379  24.515  0.00  0.00    +0.000 C 
ATOM     29  C   UNL     1      -3.982  15.750  24.844  0.00  0.00    +0.000 C 
ATOM     30  C   UNL     1      -4.997  15.950  23.746  0.00  0.00    +0.000 C 
ATOM     31  O   UNL     1      -4.425  15.355  22.576  0.00  0.00    +0.000 OA
ENDBRANCH  26  27
ENDBRANCH   3  26
TORSDOF 8
ENDMDL
MODEL 8
REMARK VINA RESULT:      -7.0      4.508      8.605
REMARK  Name = 
REMARK  9 active torsions:
REMARK  status: ('A' for Active; 'I' for Inactive)
REMARK    1  A    between atoms: C_1  and  C_2
REMARK    2  A    between atoms: C_7  and  O_8
REMARK    3  A    between atoms: C_9  and  C_10
REMARK    4  A    between atoms: C_10  and  N_11
REMARK    5  A    between atoms: N_11  and  C_12
REMARK    6  A    between atoms: C_12  and  C_13
REMARK    7  A    between atoms: C_18  and  S_19
REMARK    8  A    between atoms: N_20  and  C_21
REMARK    9  A    between atoms: C_21  and  C_22
REMARK                            x       y       z     vdW  Elec       q    Type
REMARK                         _______ _______ _______ _____ _____    ______ ____
ROOT
ATOM      1  N   UNL     1      -0.325  11.621  20.317  0.00  0.00    +0.000 N 
ATOM      2  C   UNL     1      -1.177  11.986  19.283  0.00  0.00    +0.000 C 
ATOM      3  N   UNL     1      -2.385  11.531  19.237  0.00  0.00    +0.000 NA
ENDROOT
BRANCH   2   4
ATOM      4  S   UNL     1      -0.561  13.150  18.098  0.00  0.00    +0.000 S 
ATOM      5  H   UNL     1       0.230  12.320  17.420  0.00  0.00    +0.000 HD
ENDBRANCH   2   4
BRANCH   1   6
ATOM      6  C   UNL     1       1.130  11.456  20.129  0.00  0.00    +0.000 C 
BRANCH   6  14
ATOM      7  C   UNL     1       1.780   3.990  21.017  0.00  0.00    +0.000 C 
ATOM      8  C   UNL     1       1.854   5.222  20.173  0.00  0.00    +0.000 A 
ATOM      9  C   UNL     1       2.006   5.136  18.785  0.00  0.00    +0.000 A 
ATOM     10  C   UNL     1       2.145   6.296  18.023  0.00  0.00    +0.000 A 
ATOM     11  C   UNL     1       2.083   7.562  18.592  0.00  0.00    +0.000 A 
ATOM     12  N   UNL     1       2.218   8.652  17.815  0.00  0.00    +0.000 NA
ATOM     13  C   UNL     1       1.977   9.846  18.386  0.00  0.00    +0.000 A 
ATOM     14  C   UNL     1       1.587  10.072  19.699  0.00  0.00    +0.000 A 
ATOM     15  C   UNL     1       1.583   8.936  20.515  0.00  0.00    +0.000 A 
ATOM     16  C   UNL     1       1.821   7.659  19.975  0.00  0.00    +0.000 A 
ATOM     17  C   UNL     1       1.755   6.488  20.757  0.00  0.00    +0.000 A 
BRANCH  13  18
ATOM     18  O   UNL     1       2.093  10.868  17.501  0.00  0.00    +0.000 OA
ATOM     19  H   UNL     1       3.067  10.930  17.454  0.00  0.00    +0.000 HD
ENDBRANCH  13  18
ENDBRANCH   6  14
ENDBRANCH   1   6
BRANCH   1  20
ATOM     20  C   UNL     1      -0.909  11.081  21.563  0.00  0.00    +0.000 C 
BRANCH  20  21
ATOM     21  C   UNL     1      -1.529  11.978  22.621  0.00  0.00    +0.000 A 
ATOM     22  C   UNL     1      -2.678  11.768  23.379  0.00  0.00    +0.000 A 
ATOM     23  C   UNL     1      -3.170  12.970  23.979  0.00  0.00    +0.000 A 
ATOM     24  C   UNL     1      -2.352  14.047  23.718  0.00  0.00    +0.000 A 
ATOM     25  S   UNL     1      -0.959  13.587  22.828  0.00  0.00    +0.000 S 
ENDBRANCH  20  21
ENDBRANCH   1  20
BRANCH   3  26
ATOM     26  C   UNL     1      -3.303  11.830  18.135  0.00  0.00    +0.000 C 
BRANCH  26  27
ATOM     27  C   UNL     1      -3.481  10.616  17.207  0.00  0.00    +0.000 C 
ATOM     28  C   UNL     1      -2.183  10.033  16.660  0.00  0.00    +0.000 C 
ATOM     29  C   UNL     1      -2.609   9.504  15.312  0.00  0.00    +0.000 C 
ATOM     30  C   UNL     1      -3.613  10.544  14.879  0.00  0.00    +0.000 C 
ATOM     31  O   UNL     1      -4.311  10.928  16.068  0.00  0.00    +0.000 OA
ENDBRANCH  26  27
ENDBRANCH   3  26
TORSDOF 8
ENDMDL
MODEL 9
REMARK VINA RESULT:      -7.0      4.138      7.248
REMARK  Name = 
REMARK  9 active torsions:
REMARK  status: ('A' for Active; 'I' for Inactive)
REMARK    1  A    between atoms: C_1  and  C_2
REMARK    2  A    between atoms: C_7  and  O_8
REMARK    3  A    between atoms: C_9  and  C_10
REMARK    4  A    between atoms: C_10  and  N_11
REMARK    5  A    between atoms: N_11  and  C_12
REMARK    6  A    between atoms: C_12  and  C_13
REMARK    7  A    between atoms: C_18  and  S_19
REMARK    8  A    between atoms: N_20  and  C_21
REMARK    9  A    between atoms: C_21  and  C_22
REMARK                            x       y       z     vdW  Elec       q    Type
REMARK                         _______ _______ _______ _____ _____    ______ ____
ROOT
ATOM      1  N   UNL     1      -0.136  11.214  18.861  0.00  0.00    +0.000 N 
ATOM      2  C   UNL     1       1.061  10.608  18.505  0.00  0.00    +0.000 C 
ATOM      3  N   UNL     1       1.199   9.327  18.588  0.00  0.00    +0.000 NA
ENDROOT
BRANCH   2   4
ATOM      4  S   UNL     1       2.340  11.656  17.865  0.00  0.00    +0.000 S 
ATOM      5  H   UNL     1       1.636  12.785  17.801  0.00  0.00    +0.000 HD
ENDBRANCH   2   4
BRANCH   1   6
ATOM      6  C   UNL     1      -0.198  12.553  19.479  0.00  0.00    +0.000 C 
BRANCH   6  14
ATOM      7  C   UNL     1      -6.542  14.205  23.218  0.00  0.00    +0.000 C 
ATOM      8  C   UNL     1      -5.200  13.553  23.137  0.00  0.00    +0.000 A 
ATOM      9  C   UNL     1      -4.772  12.659  24.125  0.00  0.00    +0.000 A 
ATOM     10  C   UNL     1      -3.489  12.115  24.069  0.00  0.00    +0.000 A 
ATOM     11  C   UNL     1      -2.619  12.390  23.021  0.00  0.00    +0.000 A 
ATOM     12  N   UNL     1      -1.392  11.838  23.009  0.00  0.00    +0.000 NA
ATOM     13  C   UNL     1      -0.659  11.995  21.892  0.00  0.00    +0.000 A 
ATOM     14  C   UNL     1      -1.045  12.661  20.736  0.00  0.00    +0.000 A 
ATOM     15  C   UNL     1      -2.267  13.334  20.825  0.00  0.00    +0.000 A 
ATOM     16  C   UNL     1      -3.082  13.203  21.966  0.00  0.00    +0.000 A 
ATOM     17  C   UNL     1      -4.349  13.812  22.057  0.00  0.00    +0.000 A 
BRANCH  13  18
ATOM     18  O   UNL     1       0.536  11.357  21.971  0.00  0.00    +0.000 OA
ATOM     19  H   UNL     1       0.283  10.493  21.593  0.00  0.00    +0.000 HD
ENDBRANCH  13  18
ENDBRANCH   6  14
ENDBRANCH   1   6
BRANCH   1  20
ATOM     20  C   UNL     1      -1.362  10.389  18.915  0.00  0.00    +0.000 C 
BRANCH  20  21
ATOM     21  C   UNL     1      -2.393  10.398  17.800  0.00  0.00    +0.000 A 
ATOM     22  C   UNL     1      -2.268   9.941  16.492  0.00  0.00    +0.000 A 
ATOM     23  C   UNL     1      -3.286  10.455  15.627  0.00  0.00    +0.000 A 
ATOM     24  C   UNL     1      -4.193  11.234  16.310  0.00  0.00    +0.000 A 
ATOM     25  S   UNL     1      -3.863  11.270  17.993  0.00  0.00    +0.000 S 
ENDBRANCH  20  21
ENDBRANCH   1  20
BRANCH   3  26
ATOM     26  C   UNL     1       2.460   8.644  18.288  0.00  0.00    +0.000 C 
BRANCH  26  27
ATOM     27  C   UNL     1       2.343   7.127  18.510  0.00  0.00    +0.000 C 
ATOM     28  C   UNL     1       2.142   6.706  19.961  0.00  0.00    +0.000 C 
ATOM     29  C   UNL     1       2.828   5.361  20.006  0.00  0.00    +0.000 C 
ATOM     30  C   UNL     1       3.999   5.585  19.081  0.00  0.00    +0.000 C 
ATOM     31  O   UNL     1       3.507   6.423  18.028  0.00  0.00    +0.000 OA
ENDBRANCH  26  27
ENDBRANCH   3  26
TORSDOF 8
ENDMDL
