MODEL 1
REMARK VINA RESULT:      -7.6      0.000      0.000
REMARK  Name = 
REMARK  10 active torsions:
REMARK  status: ('A' for Active; 'I' for Inactive)
REMARK    1  A    between atoms: C_1  and  C_2
REMARK    2  A    between atoms: C_2  and  C_3
REMARK    3  A    between atoms: C_3  and  O_4
REMARK    4  A    between atoms: O_4  and  C_5
REMARK    5  A    between atoms: C_5  and  C_6
REMARK    6  A    between atoms: C_6  and  N_7
REMARK    7  A    between atoms: N_11  and  C_12
REMARK    8  A    between atoms: C_12  and  C_13
REMARK    9  A    between atoms: C_13  and  N_14
REMARK   10  A    between atoms: C_24  and  C_25
REMARK                            x       y       z     vdW  Elec       q    Type
REMARK                         _______ _______ _______ _____ _____    ______ ____
ROOT
ATOM      1  N   UNL     1       3.376   4.928  20.016  0.00  0.00    +0.000 N 
ATOM      2  C   UNL     1       4.413   4.187  19.469  0.00  0.00    +0.000 A 
ATOM      3  O   UNL     1       4.864   3.139  19.924  0.00  0.00    +0.000 OA
ATOM      4  C   UNL     1       5.088   4.748  18.199  0.00  0.00    +0.000 A 
ATOM      5  N   UNL     1       6.131   4.018  17.648  0.00  0.00    +0.000 N 
ATOM      6  N   UNL     1       4.717   5.881  17.679  0.00  0.00    +0.000 NA
ATOM      7  C   UNL     1       3.694   6.599  18.303  0.00  0.00    +0.000 A 
ATOM      8  C   UNL     1       3.338   7.822  17.743  0.00  0.00    +0.000 A 
ATOM      9  C   UNL     1       2.372   8.607  18.355  0.00  0.00    +0.000 A 
ATOM     10  C   UNL     1       1.785   8.158  19.535  0.00  0.00    +0.000 A 
ATOM     11  N   UNL     1       2.083   6.942  20.068  0.00  0.00    +0.000 NA
ATOM     12  C   UNL     1       3.024   6.181  19.459  0.00  0.00    +0.000 A 
ATOM     13  H   UNL     1       6.465   3.278  18.264  0.00  0.00    +0.000 HD
ENDROOT
BRANCH  10  14
ATOM     14  C   UNL     1       0.856   8.996  20.320  0.00  0.00    +0.000 A 
ATOM     15  C   UNL     1       0.572   8.704  21.666  0.00  0.00    +0.000 A 
ATOM     16  C   UNL     1      -0.266   9.523  22.424  0.00  0.00    +0.000 A 
ATOM     17  C   UNL     1      -0.832  10.653  21.846  0.00  0.00    +0.000 A 
ATOM     18  F   UNL     1      -1.620  11.451  22.578  0.00  0.00    +0.000 F 
ATOM     19  C   UNL     1      -0.579  10.970  20.520  0.00  0.00    +0.000 A 
ATOM     20  C   UNL     1       0.259  10.148  19.764  0.00  0.00    +0.000 A 
ENDBRANCH  10  14
BRANCH   1  21
ATOM     21  C   UNL     1       2.642   4.400  21.163  0.00  0.00    +0.000 C 
BRANCH  21  22
ATOM     22  C   UNL     1       1.328   3.712  20.780  0.00  0.00    +0.000 C 
BRANCH  22  23
ATOM     23  O   UNL     1       1.581   2.379  20.314  0.00  0.00    +0.000 OA
BRANCH  23  24
ATOM     24  C   UNL     1       0.985   2.175  19.031  0.00  0.00    +0.000 C 
BRANCH  24  26
ATOM     25  C   UNL     1       1.891   3.532  17.126  0.00  0.00    +0.000 C 
ATOM     26  C   UNL     1       2.049   2.261  17.945  0.00  0.00    +0.000 C 
ENDBRANCH  24  26
ENDBRANCH  23  24
ENDBRANCH  22  23
ENDBRANCH  21  22
ENDBRANCH   1  21
BRANCH   5  27
ATOM     27  C   UNL     1       7.152   4.719  16.877  0.00  0.00    +0.000 C 
BRANCH  27  28
ATOM     28  C   UNL     1       7.255   4.198  15.432  0.00  0.00    +0.000 C 
BRANCH  28  29
ATOM     29  N   UNL     1       6.703   5.128  14.423  0.00  0.00    +0.000 NA
ATOM     30  C   UNL     1       5.288   4.814  14.114  0.00  0.00    +0.000 C 
ATOM     31  C   UNL     1       5.102   3.563  13.234  0.00  0.00    +0.000 C 
ATOM     32  O   UNL     1       5.873   3.638  12.027  0.00  0.00    +0.000 OA
ATOM     33  C   UNL     1       7.258   3.864  12.313  0.00  0.00    +0.000 C 
ATOM     34  C   UNL     1       7.445   5.142  13.142  0.00  0.00    +0.000 C 
ENDBRANCH  28  29
ENDBRANCH  27  28
ENDBRANCH   5  27
TORSDOF 9
ENDMDL
MODEL 2
REMARK VINA RESULT:      -7.4      3.576      6.658
REMARK  Name = 
REMARK  10 active torsions:
REMARK  status: ('A' for Active; 'I' for Inactive)
REMARK    1  A    between atoms: C_1  and  C_2
REMARK    2  A    between atoms: C_2  and  C_3
REMARK    3  A    between atoms: C_3  and  O_4
REMARK    4  A    between atoms: O_4  and  C_5
REMARK    5  A    between atoms: C_5  and  C_6
REMARK    6  A    between atoms: C_6  and  N_7
REMARK    7  A    between atoms: N_11  and  C_12
REMARK    8  A    between atoms: C_12  and  C_13
REMARK    9  A    between atoms: C_13  and  N_14
REMARK   10  A    between atoms: C_24  and  C_25
REMARK                            x       y       z     vdW  Elec       q    Type
REMARK                         _______ _______ _______ _____ _____    ______ ____
ROOT
ATOM      1  N   UNL     1       0.767  10.576  19.522  0.00  0.00    +0.000 N 
ATOM      2  C   UNL     1       1.442   9.517  18.933  0.00  0.00    +0.000 A 
ATOM      3  O   UNL     1       1.819   9.466  17.765  0.00  0.00    +0.000 OA
ATOM      4  C   UNL     1       1.709   8.274  19.811  0.00  0.00    +0.000 A 
ATOM      5  N   UNL     1       2.378   7.208  19.229  0.00  0.00    +0.000 N 
ATOM      6  N   UNL     1       1.296   8.214  21.043  0.00  0.00    +0.000 NA
ATOM      7  C   UNL     1       0.585   9.299  21.563  0.00  0.00    +0.000 A 
ATOM      8  C   UNL     1       0.129   9.194  22.872  0.00  0.00    +0.000 A 
ATOM      9  C   UNL     1      -0.637  10.214  23.421  0.00  0.00    +0.000 A 
ATOM     10  C   UNL     1      -0.946  11.322  22.638  0.00  0.00    +0.000 A 
ATOM     11  N   UNL     1      -0.464  11.465  21.372  0.00  0.00    +0.000 NA
ATOM     12  C   UNL     1       0.285  10.465  20.849  0.00  0.00    +0.000 A 
ATOM     13  H   UNL     1       2.449   7.289  18.216  0.00  0.00    +0.000 HD
ENDROOT
BRANCH  10  14
ATOM     14  C   UNL     1      -1.869  12.378  23.099  0.00  0.00    +0.000 A 
ATOM     15  C   UNL     1      -1.519  13.738  23.020  0.00  0.00    +0.000 A 
ATOM     16  C   UNL     1      -2.409  14.740  23.409  0.00  0.00    +0.000 A 
ATOM     17  C   UNL     1      -3.670  14.395  23.881  0.00  0.00    +0.000 A 
ATOM     18  F   UNL     1      -4.532  15.356  24.236  0.00  0.00    +0.000 F 
ATOM     19  C   UNL     1      -4.049  13.065  23.979  0.00  0.00    +0.000 A 
ATOM     20  C   UNL     1      -3.155  12.065  23.590  0.00  0.00    +0.000 A 
ENDBRANCH  10  14
BRANCH   1  21
ATOM     21  C   UNL     1       0.568  11.810  18.768  0.00  0.00    +0.000 C 
BRANCH  21  22
ATOM     22  C   UNL     1      -0.879  12.013  18.305  0.00  0.00    +0.000 C 
BRANCH  22  23
ATOM     23  O   UNL     1      -1.441  10.769  17.866  0.00  0.00    +0.000 OA
BRANCH  23  24
ATOM     24  C   UNL     1      -2.553  11.001  16.998  0.00  0.00    +0.000 C 
BRANCH  24  26
ATOM     25  C   UNL     1      -3.138  10.236  14.682  0.00  0.00    +0.000 C 
ATOM     26  C   UNL     1      -2.761   9.798  16.088  0.00  0.00    +0.000 C 
ENDBRANCH  24  26
ENDBRANCH  23  24
ENDBRANCH  22  23
ENDBRANCH  21  22
ENDBRANCH   1  21
BRANCH   5  27
ATOM     27  C   UNL     1       2.146   5.864  19.748  0.00  0.00    +0.000 C 
BRANCH  27  28
ATOM     28  C   UNL     1       3.394   4.970  19.638  0.00  0.00    +0.000 C 
BRANCH  28  29
ATOM     29  N   UNL     1       3.174   3.581  20.098  0.00  0.00    +0.000 NA
ATOM     30  C   UNL     1       4.097   2.636  19.428  0.00  0.00    +0.000 C 
ATOM     31  C   UNL     1       3.728   2.334  17.963  0.00  0.00    +0.000 C 
ATOM     32  O   UNL     1       2.372   1.886  17.833  0.00  0.00    +0.000 OA
ATOM     33  C   UNL     1       1.460   2.828  18.409  0.00  0.00    +0.000 C 
ATOM     34  C   UNL     1       1.796   3.084  19.884  0.00  0.00    +0.000 C 
ENDBRANCH  28  29
ENDBRANCH  27  28
ENDBRANCH   5  27
TORSDOF 9
ENDMDL
MODEL 3
REMARK VINA RESULT:      -7.4      3.562      6.733
REMARK  Name = 
REMARK  10 active torsions:
REMARK  status: ('A' for Active; 'I' for Inactive)
REMARK    1  A    between atoms: C_1  and  C_2
REMARK    2  A    between atoms: C_2  and  C_3
REMARK    3  A    between atoms: C_3  and  O_4
REMARK    4  A    between atoms: O_4  and  C_5
REMARK    5  A    between atoms: C_5  and  C_6
REMARK    6  A    between atoms: C_6  and  N_7
REMARK    7  A    between atoms: N_11  and  C_12
REMARK    8  A    between atoms: C_12  and  C_13
REMARK    9  A    between atoms: C_13  and  N_14
REMARK   10  A    between atoms: C_24  and  C_25
REMARK                            x       y       z     vdW  Elec       q    Type
REMARK                         _______ _______ _______ _____ _____    ______ ____
ROOT
ATOM      1  N   UNL     1       0.858  10.832  19.412  0.00  0.00    +0.000 N 
ATOM      2  C   UNL     1       1.527   9.829  18.726  0.00  0.00    +0.000 A 
ATOM      3  O   UNL     1       1.887   9.879  17.553  0.00  0.00    +0.000 OA
ATOM      4  C   UNL     1       1.810   8.518  19.492  0.00  0.00    +0.000 A 
ATOM      5  N   UNL     1       2.473   7.507  18.812  0.00  0.00    +0.000 N 
ATOM      6  N   UNL     1       1.414   8.353  20.720  0.00  0.00    +0.000 NA
ATOM      7  C   UNL     1       0.708   9.386  21.340  0.00  0.00    +0.000 A 
ATOM      8  C   UNL     1       0.271   9.170  22.642  0.00  0.00    +0.000 A 
ATOM      9  C   UNL     1      -0.489  10.136  23.286  0.00  0.00    +0.000 A 
ATOM     10  C   UNL     1      -0.813  11.306  22.603  0.00  0.00    +0.000 A 
ATOM     11  N   UNL     1      -0.350  11.557  21.348  0.00  0.00    +0.000 NA
ATOM     12  C   UNL     1       0.395  10.607  20.731  0.00  0.00    +0.000 A 
ATOM     13  H   UNL     1       2.529   7.674  17.809  0.00  0.00    +0.000 HD
ENDROOT
BRANCH  10  14
ATOM     14  C   UNL     1      -1.733  12.315  23.165  0.00  0.00    +0.000 A 
ATOM     15  C   UNL     1      -1.326  13.649  23.348  0.00  0.00    +0.000 A 
ATOM     16  C   UNL     1      -2.209  14.616  23.832  0.00  0.00    +0.000 A 
ATOM     17  C   UNL     1      -3.518  14.262  24.138  0.00  0.00    +0.000 A 
ATOM     18  F   UNL     1      -4.371  15.192  24.584  0.00  0.00    +0.000 F 
ATOM     19  C   UNL     1      -3.953  12.955  23.977  0.00  0.00    +0.000 A 
ATOM     20  C   UNL     1      -3.067  11.990  23.493  0.00  0.00    +0.000 A 
ENDBRANCH  10  14
BRANCH   1  21
ATOM     21  C   UNL     1       0.644  12.125  18.767  0.00  0.00    +0.000 C 
BRANCH  21  22
ATOM     22  C   UNL     1      -0.742  12.265  18.130  0.00  0.00    +0.000 C 
BRANCH  22  23
ATOM     23  O   UNL     1      -1.390  10.987  18.060  0.00  0.00    +0.000 OA
BRANCH  23  24
ATOM     24  C   UNL     1      -2.563  11.064  17.246  0.00  0.00    +0.000 C 
BRANCH  24  26
ATOM     25  C   UNL     1      -2.968  10.324  14.884  0.00  0.00    +0.000 C 
ATOM     26  C   UNL     1      -2.612   9.877  16.293  0.00  0.00    +0.000 C 
ENDBRANCH  24  26
ENDBRANCH  23  24
ENDBRANCH  22  23
ENDBRANCH  21  22
ENDBRANCH   1  21
BRANCH   5  27
ATOM     27  C   UNL     1       2.252   6.123  19.219  0.00  0.00    +0.000 C 
BRANCH  27  28
ATOM     28  C   UNL     1       2.238   5.155  18.022  0.00  0.00    +0.000 C 
BRANCH  28  29
ATOM     29  N   UNL     1       3.036   3.929  18.239  0.00  0.00    +0.000 NA
ATOM     30  C   UNL     1       2.317   2.724  17.763  0.00  0.00    +0.000 C 
ATOM     31  C   UNL     1       1.164   2.279  18.683  0.00  0.00    +0.000 C 
ATOM     32  O   UNL     1       1.598   2.099  20.037  0.00  0.00    +0.000 OA
ATOM     33  C   UNL     1       2.227   3.284  20.539  0.00  0.00    +0.000 C 
ATOM     34  C   UNL     1       3.411   3.693  19.652  0.00  0.00    +0.000 C 
ENDBRANCH  28  29
ENDBRANCH  27  28
ENDBRANCH   5  27
TORSDOF 9
ENDMDL
MODEL 4
REMARK VINA RESULT:      -7.2      3.566      6.660
REMARK  Name = 
REMARK  10 active torsions:
REMARK  status: ('A' for Active; 'I' for Inactive)
REMARK    1  A    between atoms: C_1  and  C_2
REMARK    2  A    between atoms: C_2  and  C_3
REMARK    3  A    between atoms: C_3  and  O_4
REMARK    4  A    between atoms: O_4  and  C_5
REMARK    5  A    between atoms: C_5  and  C_6
REMARK    6  A    between atoms: C_6  and  N_7
REMARK    7  A    between atoms: N_11  and  C_12
REMARK    8  A    between atoms: C_12  and  C_13
REMARK    9  A    between atoms: C_13  and  N_14
REMARK   10  A    between atoms: C_24  and  C_25
REMARK                            x       y       z     vdW  Elec       q    Type
REMARK                         _______ _______ _______ _____ _____    ______ ____
ROOT
ATOM      1  N   UNL     1       0.683  10.509  19.525  0.00  0.00    +0.000 N 
ATOM      2  C   UNL     1       1.409   9.437  19.029  0.00  0.00    +0.000 A 
ATOM      3  O   UNL     1       1.837   9.329  17.883  0.00  0.00    +0.000 OA
ATOM      4  C   UNL     1       1.670   8.256  19.990  0.00  0.00    +0.000 A 
ATOM      5  N   UNL     1       2.390   7.176  19.501  0.00  0.00    +0.000 N 
ATOM      6  N   UNL     1       1.206   8.257  21.205  0.00  0.00    +0.000 NA
ATOM      7  C   UNL     1       0.445   9.349  21.629  0.00  0.00    +0.000 A 
ATOM      8  C   UNL     1      -0.064   9.309  22.923  0.00  0.00    +0.000 A 
ATOM      9  C   UNL     1      -0.878  10.336  23.378  0.00  0.00    +0.000 A 
ATOM     10  C   UNL     1      -1.182  11.388  22.517  0.00  0.00    +0.000 A 
ATOM     11  N   UNL     1      -0.650  11.470  21.267  0.00  0.00    +0.000 NA
ATOM     12  C   UNL     1       0.147  10.462  20.835  0.00  0.00    +0.000 A 
ATOM     13  H   UNL     1       2.503   7.201  18.489  0.00  0.00    +0.000 HD
ENDROOT
BRANCH  10  14
ATOM     14  C   UNL     1      -2.151  12.443  22.876  0.00  0.00    +0.000 A 
ATOM     15  C   UNL     1      -3.253  12.168  23.705  0.00  0.00    +0.000 A 
ATOM     16  C   UNL     1      -4.143  13.174  24.086  0.00  0.00    +0.000 A 
ATOM     17  C   UNL     1      -3.940  14.476  23.644  0.00  0.00    +0.000 A 
ATOM     18  F   UNL     1      -4.781  15.445  24.024  0.00  0.00    +0.000 F 
ATOM     19  C   UNL     1      -2.868  14.783  22.819  0.00  0.00    +0.000 A 
ATOM     20  C   UNL     1      -1.980  13.775  22.440  0.00  0.00    +0.000 A 
ENDBRANCH  10  14
BRANCH   1  21
ATOM     21  C   UNL     1       0.484  11.691  18.691  0.00  0.00    +0.000 C 
BRANCH  21  22
ATOM     22  C   UNL     1      -0.973  11.896  18.263  0.00  0.00    +0.000 C 
BRANCH  22  23
ATOM     23  O   UNL     1      -1.454  10.740  17.563  0.00  0.00    +0.000 OA
BRANCH  23  24
ATOM     24  C   UNL     1      -2.636  11.058  16.825  0.00  0.00    +0.000 C 
BRANCH  24  26
ATOM     25  C   UNL     1      -5.086  11.423  17.216  0.00  0.00    +0.000 C 
ATOM     26  C   UNL     1      -3.868  10.596  17.592  0.00  0.00    +0.000 C 
ENDBRANCH  24  26
ENDBRANCH  23  24
ENDBRANCH  22  23
ENDBRANCH  21  22
ENDBRANCH   1  21
BRANCH   5  27
ATOM     27  C   UNL     1       2.171   5.859  20.089  0.00  0.00    +0.000 C 
BRANCH  27  28
ATOM     28  C   UNL     1       1.971   4.767  19.023  0.00  0.00    +0.000 C 
BRANCH  28  29
ATOM     29  N   UNL     1       3.210   4.407  18.300  0.00  0.00    +0.000 NA
ATOM     30  C   UNL     1       2.951   3.387  17.257  0.00  0.00    +0.000 C 
ATOM     31  C   UNL     1       2.723   1.968  17.812  0.00  0.00    +0.000 C 
ATOM     32  O   UNL     1       3.794   1.548  18.667  0.00  0.00    +0.000 OA
ATOM     33  C   UNL     1       4.006   2.487  19.727  0.00  0.00    +0.000 C 
ATOM     34  C   UNL     1       4.290   3.888  19.170  0.00  0.00    +0.000 C 
ENDBRANCH  28  29
ENDBRANCH  27  28
ENDBRANCH   5  27
TORSDOF 9
ENDMDL
MODEL 5
REMARK VINA RESULT:      -7.2      3.614      7.122
REMARK  Name = 
REMARK  10 active torsions:
REMARK  status: ('A' for Active; 'I' for Inactive)
REMARK    1  A    between atoms: C_1  and  C_2
REMARK    2  A    between atoms: C_2  and  C_3
REMARK    3  A    between atoms: C_3  and  O_4
REMARK    4  A    between atoms: O_4  and  C_5
REMARK    5  A    between atoms: C_5  and  C_6
REMARK    6  A    between atoms: C_6  and  N_7
REMARK    7  A    between atoms: N_11  and  C_12
REMARK    8  A    between atoms: C_12  and  C_13
REMARK    9  A    between atoms: C_13  and  N_14
REMARK   10  A    between atoms: C_24  and  C_25
REMARK                            x       y       z     vdW  Elec       q    Type
REMARK                         _______ _______ _______ _____ _____    ______ ____
ROOT
ATOM      1  N   UNL     1       0.803  10.405  19.496  0.00  0.00    +0.000 N 
ATOM      2  C   UNL     1       1.503   9.284  19.072  0.00  0.00    +0.000 A 
ATOM      3  O   UNL     1       1.977   9.115  17.952  0.00  0.00    +0.000 OA
ATOM      4  C   UNL     1       1.665   8.130  20.085  0.00  0.00    +0.000 A 
ATOM      5  N   UNL     1       2.358   7.003  19.670  0.00  0.00    +0.000 N 
ATOM      6  N   UNL     1       1.146   8.196  21.276  0.00  0.00    +0.000 NA
ATOM      7  C   UNL     1       0.417   9.335  21.625  0.00  0.00    +0.000 A 
ATOM      8  C   UNL     1      -0.153   9.365  22.893  0.00  0.00    +0.000 A 
ATOM      9  C   UNL     1      -0.940  10.443  23.272  0.00  0.00    +0.000 A 
ATOM     10  C   UNL     1      -1.156  11.475  22.362  0.00  0.00    +0.000 A 
ATOM     11  N   UNL     1      -0.564  11.487  21.136  0.00  0.00    +0.000 NA
ATOM     12  C   UNL     1       0.206  10.430  20.779  0.00  0.00    +0.000 A 
ATOM     13  H   UNL     1       2.518   6.985  18.664  0.00  0.00    +0.000 HD
ENDROOT
BRANCH  10  14
ATOM     14  C   UNL     1      -2.092  12.583  22.637  0.00  0.00    +0.000 A 
ATOM     15  C   UNL     1      -1.765  13.605  23.546  0.00  0.00    +0.000 A 
ATOM     16  C   UNL     1      -2.627  14.679  23.770  0.00  0.00    +0.000 A 
ATOM     17  C   UNL     1      -3.833  14.750  23.082  0.00  0.00    +0.000 A 
ATOM     18  F   UNL     1      -4.652  15.790  23.281  0.00  0.00    +0.000 F 
ATOM     19  C   UNL     1      -4.193  13.757  22.183  0.00  0.00    +0.000 A 
ATOM     20  C   UNL     1      -3.328  12.683  21.961  0.00  0.00    +0.000 A 
ENDBRANCH  10  14
BRANCH   1  21
ATOM     21  C   UNL     1       0.697  11.563  18.612  0.00  0.00    +0.000 C 
BRANCH  21  22
ATOM     22  C   UNL     1       1.930  12.471  18.648  0.00  0.00    +0.000 C 
BRANCH  22  23
ATOM     23  O   UNL     1       1.775  13.482  19.652  0.00  0.00    +0.000 OA
BRANCH  23  24
ATOM     24  C   UNL     1       0.737  14.396  19.288  0.00  0.00    +0.000 C 
BRANCH  24  26
ATOM     25  C   UNL     1      -1.337  15.425  20.251  0.00  0.00    +0.000 C 
ATOM     26  C   UNL     1       0.082  14.963  20.540  0.00  0.00    +0.000 C 
ENDBRANCH  24  26
ENDBRANCH  23  24
ENDBRANCH  22  23
ENDBRANCH  21  22
ENDBRANCH   1  21
BRANCH   5  27
ATOM     27  C   UNL     1       2.053   5.719  20.293  0.00  0.00    +0.000 C 
BRANCH  27  28
ATOM     28  C   UNL     1       1.869   4.594  19.258  0.00  0.00    +0.000 C 
BRANCH  28  29
ATOM     29  N   UNL     1       3.077   4.329  18.447  0.00  0.00    +0.000 NA
ATOM     30  C   UNL     1       2.790   3.387  17.340  0.00  0.00    +0.000 C 
ATOM     31  C   UNL     1       2.626   1.923  17.790  0.00  0.00    +0.000 C 
ATOM     32  O   UNL     1       3.752   1.468  18.553  0.00  0.00    +0.000 OA
ATOM     33  C   UNL     1       3.995   2.326  19.674  0.00  0.00    +0.000 C 
ATOM     34  C   UNL     1       4.214   3.775  19.217  0.00  0.00    +0.000 C 
ENDBRANCH  28  29
ENDBRANCH  27  28
ENDBRANCH   5  27
TORSDOF 9
ENDMDL
MODEL 6
REMARK VINA RESULT:      -7.2      3.558      6.383
REMARK  Name = 
REMARK  10 active torsions:
REMARK  status: ('A' for Active; 'I' for Inactive)
REMARK    1  A    between atoms: C_1  and  C_2
REMARK    2  A    between atoms: C_2  and  C_3
REMARK    3  A    between atoms: C_3  and  O_4
REMARK    4  A    between atoms: O_4  and  C_5
REMARK    5  A    between atoms: C_5  and  C_6
REMARK    6  A    between atoms: C_6  and  N_7
REMARK    7  A    between atoms: N_11  and  C_12
REMARK    8  A    between atoms: C_12  and  C_13
REMARK    9  A    between atoms: C_13  and  N_14
REMARK   10  A    between atoms: C_24  and  C_25
REMARK                            x       y       z     vdW  Elec       q    Type
REMARK                         _______ _______ _______ _____ _____    ______ ____
ROOT
ATOM      1  N   UNL     1       0.685  10.736  19.418  0.00  0.00    +0.000 N 
ATOM      2  C   UNL     1       1.363   9.727  18.750  0.00  0.00    +0.000 A 
ATOM      3  O   UNL     1       1.673   9.735  17.562  0.00  0.00    +0.000 OA
ATOM      4  C   UNL     1       1.724   8.463  19.561  0.00  0.00    +0.000 A 
ATOM      5  N   UNL     1       2.396   7.446  18.901  0.00  0.00    +0.000 N 
ATOM      6  N   UNL     1       1.385   8.341  20.811  0.00  0.00    +0.000 NA
ATOM      7  C   UNL     1       0.666   9.377  21.413  0.00  0.00    +0.000 A 
ATOM      8  C   UNL     1       0.290   9.205  22.741  0.00  0.00    +0.000 A 
ATOM      9  C   UNL     1      -0.479  10.173  23.372  0.00  0.00    +0.000 A 
ATOM     10  C   UNL     1      -0.872  11.298  22.652  0.00  0.00    +0.000 A 
ATOM     11  N   UNL     1      -0.469  11.507  21.368  0.00  0.00    +0.000 NA
ATOM     12  C   UNL     1       0.284  10.557  20.764  0.00  0.00    +0.000 A 
ATOM     13  H   UNL     1       2.406   7.568  17.890  0.00  0.00    +0.000 HD
ENDROOT
BRANCH  10  14
ATOM     14  C   UNL     1      -1.805  12.300  23.206  0.00  0.00    +0.000 A 
ATOM     15  C   UNL     1      -1.434  13.651  23.329  0.00  0.00    +0.000 A 
ATOM     16  C   UNL     1      -2.331  14.608  23.806  0.00  0.00    +0.000 A 
ATOM     17  C   UNL     1      -3.619  14.227  24.165  0.00  0.00    +0.000 A 
ATOM     18  F   UNL     1      -4.487  15.147  24.603  0.00  0.00    +0.000 F 
ATOM     19  C   UNL     1      -4.019  12.903  24.062  0.00  0.00    +0.000 A 
ATOM     20  C   UNL     1      -3.119  11.948  23.586  0.00  0.00    +0.000 A 
ENDBRANCH  10  14
BRANCH   1  21
ATOM     21  C   UNL     1       0.398  11.990  18.726  0.00  0.00    +0.000 C 
BRANCH  21  22
ATOM     22  C   UNL     1      -0.998  12.031  18.096  0.00  0.00    +0.000 C 
BRANCH  22  23
ATOM     23  O   UNL     1      -1.684  10.792  18.323  0.00  0.00    +0.000 OA
BRANCH  23  24
ATOM     24  C   UNL     1      -2.015  10.168  17.081  0.00  0.00    +0.000 C 
BRANCH  24  26
ATOM     25  C   UNL     1      -4.359  10.775  17.734  0.00  0.00    +0.000 C 
ATOM     26  C   UNL     1      -3.365  10.674  16.589  0.00  0.00    +0.000 C 
ENDBRANCH  24  26
ENDBRANCH  23  24
ENDBRANCH  22  23
ENDBRANCH  21  22
ENDBRANCH   1  21
BRANCH   5  27
ATOM     27  C   UNL     1       2.243   6.075  19.378  0.00  0.00    +0.000 C 
BRANCH  27  28
ATOM     28  C   UNL     1       2.561   5.036  18.287  0.00  0.00    +0.000 C 
BRANCH  28  29
ATOM     29  N   UNL     1       3.573   4.037  18.694  0.00  0.00    +0.000 NA
ATOM     30  C   UNL     1       4.768   4.686  19.282  0.00  0.00    +0.000 C 
ATOM     31  C   UNL     1       5.684   5.367  18.247  0.00  0.00    +0.000 C 
ATOM     32  O   UNL     1       6.069   4.467  17.199  0.00  0.00    +0.000 OA
ATOM     33  C   UNL     1       4.920   3.889  16.567  0.00  0.00    +0.000 C 
ATOM     34  C   UNL     1       4.039   3.164  17.593  0.00  0.00    +0.000 C 
ENDBRANCH  28  29
ENDBRANCH  27  28
ENDBRANCH   5  27
TORSDOF 9
ENDMDL
MODEL 7
REMARK VINA RESULT:      -7.2      3.862      6.712
REMARK  Name = 
REMARK  10 active torsions:
REMARK  status: ('A' for Active; 'I' for Inactive)
REMARK    1  A    between atoms: C_1  and  C_2
REMARK    2  A    between atoms: C_2  and  C_3
REMARK    3  A    between atoms: C_3  and  O_4
REMARK    4  A    between atoms: O_4  and  C_5
REMARK    5  A    between atoms: C_5  and  C_6
REMARK    6  A    between atoms: C_6  and  N_7
REMARK    7  A    between atoms: N_11  and  C_12
REMARK    8  A    between atoms: C_12  and  C_13
REMARK    9  A    between atoms: C_13  and  N_14
REMARK   10  A    between atoms: C_24  and  C_25
REMARK                            x       y       z     vdW  Elec       q    Type
REMARK                         _______ _______ _______ _____ _____    ______ ____
ROOT
ATOM      1  N   UNL     1       0.358  10.857  19.453  0.00  0.00    +0.000 N 
ATOM      2  C   UNL     1       1.132   9.834  18.925  0.00  0.00    +0.000 A 
ATOM      3  O   UNL     1       1.523   9.757  17.763  0.00  0.00    +0.000 OA
ATOM      4  C   UNL     1       1.501   8.669  19.869  0.00  0.00    +0.000 A 
ATOM      5  N   UNL     1       2.269   7.638  19.347  0.00  0.00    +0.000 N 
ATOM      6  N   UNL     1       1.083   8.636  21.100  0.00  0.00    +0.000 NA
ATOM      7  C   UNL     1       0.271   9.677  21.558  0.00  0.00    +0.000 A 
ATOM      8  C   UNL     1      -0.187   9.600  22.868  0.00  0.00    +0.000 A 
ATOM      9  C   UNL     1      -1.047  10.572  23.358  0.00  0.00    +0.000 A 
ATOM     10  C   UNL     1      -1.448  11.606  22.515  0.00  0.00    +0.000 A 
ATOM     11  N   UNL     1      -0.968  11.726  21.247  0.00  0.00    +0.000 NA
ATOM     12  C   UNL     1      -0.126  10.772  20.781  0.00  0.00    +0.000 A 
ATOM     13  H   UNL     1       2.343   7.673  18.332  0.00  0.00    +0.000 HD
ENDROOT
BRANCH  10  14
ATOM     14  C   UNL     1      -2.468  12.596  22.915  0.00  0.00    +0.000 A 
ATOM     15  C   UNL     1      -2.156  13.649  23.794  0.00  0.00    +0.000 A 
ATOM     16  C   UNL     1      -3.105  14.615  24.134  0.00  0.00    +0.000 A 
ATOM     17  C   UNL     1      -4.384  14.543  23.595  0.00  0.00    +0.000 A 
ATOM     18  F   UNL     1      -5.289  15.479  23.904  0.00  0.00    +0.000 F 
ATOM     19  C   UNL     1      -4.730  13.515  22.730  0.00  0.00    +0.000 A 
ATOM     20  C   UNL     1      -3.778  12.551  22.393  0.00  0.00    +0.000 A 
ENDBRANCH  10  14
BRANCH   1  21
ATOM     21  C   UNL     1       0.055  12.027  18.633  0.00  0.00    +0.000 C 
BRANCH  21  22
ATOM     22  C   UNL     1      -1.428  12.146  18.269  0.00  0.00    +0.000 C 
BRANCH  22  23
ATOM     23  O   UNL     1      -1.701  11.439  17.052  0.00  0.00    +0.000 OA
BRANCH  23  24
ATOM     24  C   UNL     1      -3.091  11.114  16.962  0.00  0.00    +0.000 C 
BRANCH  24  26
ATOM     25  C   UNL     1      -2.988  10.137  14.655  0.00  0.00    +0.000 C 
ATOM     26  C   UNL     1      -3.277   9.858  16.121  0.00  0.00    +0.000 C 
ENDBRANCH  24  26
ENDBRANCH  23  24
ENDBRANCH  22  23
ENDBRANCH  21  22
ENDBRANCH   1  21
BRANCH   5  27
ATOM     27  C   UNL     1       2.155   6.308  19.936  0.00  0.00    +0.000 C 
BRANCH  27  28
ATOM     28  C   UNL     1       3.140   5.304  19.310  0.00  0.00    +0.000 C 
BRANCH  28  29
ATOM     29  N   UNL     1       2.812   4.939  17.915  0.00  0.00    +0.000 NA
ATOM     30  C   UNL     1       1.500   4.255  17.829  0.00  0.00    +0.000 C 
ATOM     31  C   UNL     1       1.519   2.798  18.330  0.00  0.00    +0.000 C 
ATOM     32  O   UNL     1       2.532   2.020  17.678  0.00  0.00    +0.000 OA
ATOM     33  C   UNL     1       3.820   2.630  17.819  0.00  0.00    +0.000 C 
ATOM     34  C   UNL     1       3.813   4.061  17.267  0.00  0.00    +0.000 C 
ENDBRANCH  28  29
ENDBRANCH  27  28
ENDBRANCH   5  27
TORSDOF 9
ENDMDL
MODEL 8
REMARK VINA RESULT:      -7.2      3.590      6.595
REMARK  Name = 
REMARK  10 active torsions:
REMARK  status: ('A' for Active; 'I' for Inactive)
REMARK    1  A    between atoms: C_1  and  C_2
REMARK    2  A    between atoms: C_2  and  C_3
REMARK    3  A    between atoms: C_3  and  O_4
REMARK    4  A    between atoms: O_4  and  C_5
REMARK    5  A    between atoms: C_5  and  C_6
REMARK    6  A    between atoms: C_6  and  N_7
REMARK    7  A    between atoms: N_11  and  C_12
REMARK    8  A    between atoms: C_12  and  C_13
REMARK    9  A    between atoms: C_13  and  N_14
REMARK   10  A    between atoms: C_24  and  C_25
REMARK                            x       y       z     vdW  Elec       q    Type
REMARK                         _______ _______ _______ _____ _____    ______ ____
ROOT
ATOM      1  N   UNL     1       0.813  10.317  19.637  0.00  0.00    +0.000 N 
ATOM      2  C   UNL     1       1.497   9.178  19.241  0.00  0.00    +0.000 A 
ATOM      3  O   UNL     1       1.967   8.975  18.124  0.00  0.00    +0.000 OA
ATOM      4  C   UNL     1       1.647   8.047  20.282  0.00  0.00    +0.000 A 
ATOM      5  N   UNL     1       2.325   6.901  19.893  0.00  0.00    +0.000 N 
ATOM      6  N   UNL     1       1.131   8.149  21.471  0.00  0.00    +0.000 NA
ATOM      7  C   UNL     1       0.417   9.305  21.793  0.00  0.00    +0.000 A 
ATOM      8  C   UNL     1      -0.150   9.374  23.061  0.00  0.00    +0.000 A 
ATOM      9  C   UNL     1      -0.922  10.471  23.415  0.00  0.00    +0.000 A 
ATOM     10  C   UNL     1      -1.127  11.482  22.479  0.00  0.00    +0.000 A 
ATOM     11  N   UNL     1      -0.537  11.456  21.253  0.00  0.00    +0.000 NA
ATOM     12  C   UNL     1       0.218  10.382  20.920  0.00  0.00    +0.000 A 
ATOM     13  H   UNL     1       2.483   6.856  18.887  0.00  0.00    +0.000 HD
ENDROOT
BRANCH  10  14
ATOM     14  C   UNL     1      -2.049  12.608  22.728  0.00  0.00    +0.000 A 
ATOM     15  C   UNL     1      -3.377  12.579  22.265  0.00  0.00    +0.000 A 
ATOM     16  C   UNL     1      -4.263  13.621  22.542  0.00  0.00    +0.000 A 
ATOM     17  C   UNL     1      -3.835  14.710  23.292  0.00  0.00    +0.000 A 
ATOM     18  F   UNL     1      -4.690  15.700  23.575  0.00  0.00    +0.000 F 
ATOM     19  C   UNL     1      -2.531  14.777  23.759  0.00  0.00    +0.000 A 
ATOM     20  C   UNL     1      -1.646  13.733  23.480  0.00  0.00    +0.000 A 
ENDBRANCH  10  14
BRANCH   1  21
ATOM     21  C   UNL     1       0.719  11.454  18.725  0.00  0.00    +0.000 C 
BRANCH  21  22
ATOM     22  C   UNL     1      -0.695  11.682  18.181  0.00  0.00    +0.000 C 
BRANCH  22  23
ATOM     23  O   UNL     1      -1.208  10.475  17.603  0.00  0.00    +0.000 OA
BRANCH  23  24
ATOM     24  C   UNL     1      -2.471  10.716  16.978  0.00  0.00    +0.000 C 
BRANCH  24  26
ATOM     25  C   UNL     1      -3.365  10.301  14.672  0.00  0.00    +0.000 C 
ATOM     26  C   UNL     1      -2.725   9.672  15.899  0.00  0.00    +0.000 C 
ENDBRANCH  24  26
ENDBRANCH  23  24
ENDBRANCH  22  23
ENDBRANCH  21  22
ENDBRANCH   1  21
BRANCH   5  27
ATOM     27  C   UNL     1       2.005   5.637  20.548  0.00  0.00    +0.000 C 
BRANCH  27  28
ATOM     28  C   UNL     1       3.068   4.555  20.286  0.00  0.00    +0.000 C 
BRANCH  28  29
ATOM     29  N   UNL     1       2.504   3.256  19.861  0.00  0.00    +0.000 NA
ATOM     30  C   UNL     1       3.456   2.504  19.011  0.00  0.00    +0.000 C 
ATOM     31  C   UNL     1       3.582   3.052  17.576  0.00  0.00    +0.000 C 
ATOM     32  O   UNL     1       2.307   3.156  16.929  0.00  0.00    +0.000 OA
ATOM     33  C   UNL     1       1.397   3.946  17.703  0.00  0.00    +0.000 C 
ATOM     34  C   UNL     1       1.231   3.365  19.113  0.00  0.00    +0.000 C 
ENDBRANCH  28  29
ENDBRANCH  27  28
ENDBRANCH   5  27
TORSDOF 9
ENDMDL
MODEL 9
REMARK VINA RESULT:      -7.2      3.530      6.627
REMARK  Name = 
REMARK  10 active torsions:
REMARK  status: ('A' for Active; 'I' for Inactive)
REMARK    1  A    between atoms: C_1  and  C_2
REMARK    2  A    between atoms: C_2  and  C_3
REMARK    3  A    between atoms: C_3  and  O_4
REMARK    4  A    between atoms: O_4  and  C_5
REMARK    5  A    between atoms: C_5  and  C_6
REMARK    6  A    between atoms: C_6  and  N_7
REMARK    7  A    between atoms: N_11  and  C_12
REMARK    8  A    between atoms: C_12  and  C_13
REMARK    9  A    between atoms: C_13  and  N_14
REMARK   10  A    between atoms: C_24  and  C_25
REMARK                            x       y       z     vdW  Elec       q    Type
REMARK                         _______ _______ _______ _____ _____    ______ ____
ROOT
ATOM      1  N   UNL     1       0.890  10.905  19.385  0.00  0.00    +0.000 N 
ATOM      2  C   UNL     1       1.533   9.889  18.694  0.00  0.00    +0.000 A 
ATOM      3  O   UNL     1       1.918   9.946  17.528  0.00  0.00    +0.000 OA
ATOM      4  C   UNL     1       1.751   8.555  19.441  0.00  0.00    +0.000 A 
ATOM      5  N   UNL     1       2.388   7.532  18.755  0.00  0.00    +0.000 N 
ATOM      6  N   UNL     1       1.326   8.384  20.658  0.00  0.00    +0.000 NA
ATOM      7  C   UNL     1       0.647   9.432  21.283  0.00  0.00    +0.000 A 
ATOM      8  C   UNL     1       0.177   9.210  22.573  0.00  0.00    +0.000 A 
ATOM      9  C   UNL     1      -0.558  10.193  23.219  0.00  0.00    +0.000 A 
ATOM     10  C   UNL     1      -0.824  11.386  22.552  0.00  0.00    +0.000 A 
ATOM     11  N   UNL     1      -0.327  11.641  21.311  0.00  0.00    +0.000 NA
ATOM     12  C   UNL     1       0.393  10.675  20.691  0.00  0.00    +0.000 A 
ATOM     13  H   UNL     1       2.471   7.714  17.757  0.00  0.00    +0.000 HD
ENDROOT
BRANCH  10  14
ATOM     14  C   UNL     1      -1.715  12.421  23.115  0.00  0.00    +0.000 A 
ATOM     15  C   UNL     1      -3.051  12.129  23.447  0.00  0.00    +0.000 A 
ATOM     16  C   UNL     1      -3.880  13.092  24.025  0.00  0.00    +0.000 A 
ATOM     17  C   UNL     1      -3.383  14.364  24.284  0.00  0.00    +0.000 A 
ATOM     18  F   UNL     1      -4.171  15.282  24.856  0.00  0.00    +0.000 F 
ATOM     19  C   UNL     1      -2.073  14.690  23.963  0.00  0.00    +0.000 A 
ATOM     20  C   UNL     1      -1.246  13.725  23.385  0.00  0.00    +0.000 A 
ENDBRANCH  10  14
BRANCH   1  21
ATOM     21  C   UNL     1       0.738  12.216  18.760  0.00  0.00    +0.000 C 
BRANCH  21  22
ATOM     22  C   UNL     1      -0.714  12.560  18.413  0.00  0.00    +0.000 C 
BRANCH  22  23
ATOM     23  O   UNL     1      -1.387  11.408  17.885  0.00  0.00    +0.000 OA
BRANCH  23  24
ATOM     24  C   UNL     1      -2.782  11.459  18.191  0.00  0.00    +0.000 C 
BRANCH  24  26
ATOM     25  C   UNL     1      -4.488  12.427  19.755  0.00  0.00    +0.000 C 
ATOM     26  C   UNL     1      -3.004  12.256  19.470  0.00  0.00    +0.000 C 
ENDBRANCH  24  26
ENDBRANCH  23  24
ENDBRANCH  22  23
ENDBRANCH  21  22
ENDBRANCH   1  21
BRANCH   5  27
ATOM     27  C   UNL     1       2.108   6.150  19.133  0.00  0.00    +0.000 C 
BRANCH  27  28
ATOM     28  C   UNL     1       3.362   5.414  19.637  0.00  0.00    +0.000 C 
BRANCH  28  29
ATOM     29  N   UNL     1       3.689   4.197  18.861  0.00  0.00    +0.000 NA
ATOM     30  C   UNL     1       5.075   3.744  19.125  0.00  0.00    +0.000 C 
ATOM     31  C   UNL     1       6.156   4.608  18.449  0.00  0.00    +0.000 C 
ATOM     32  O   UNL     1       5.933   4.739  17.038  0.00  0.00    +0.000 OA
ATOM     33  C   UNL     1       4.622   5.251  16.769  0.00  0.00    +0.000 C 
ATOM     34  C   UNL     1       3.545   4.356  17.396  0.00  0.00    +0.000 C 
ENDBRANCH  28  29
ENDBRANCH  27  28
ENDBRANCH   5  27
TORSDOF 9
ENDMDL
