MODEL 1
REMARK VINA RESULT:      -8.2      0.000      0.000
REMARK  Name = 
REMARK  5 active torsions:
REMARK  status: ('A' for Active; 'I' for Inactive)
REMARK    1  A    between atoms: C_1  and  O_2
REMARK    2  A    between atoms: O_2  and  C_3
REMARK    3  A    between atoms: C_5  and  C_6
REMARK    4  A    between atoms: C_11  and  N_12
REMARK    5  A    between atoms: C_16  and  C_18
REMARK                            x       y       z     vdW  Elec       q    Type
REMARK                         _______ _______ _______ _____ _____    ______ ____
ROOT
ATOM      1  N   UNL     1       2.583   7.553  18.621  0.00  0.00    +0.000 N 
ATOM      2  C   UNL     1       2.017   8.721  18.183  0.00  0.00    +0.000 C 
ATOM      3  O   UNL     1       2.128   9.219  17.063  0.00  0.00    +0.000 OA
ATOM      4  N   UNL     1       1.244   9.399  19.104  0.00  0.00    +0.000 N 
ATOM      5  C   UNL     1       1.019   9.082  20.424  0.00  0.00    +0.000 C 
ATOM      6  O   UNL     1       1.530   8.115  20.985  0.00  0.00    +0.000 OA
ATOM      7  H   UNL     1       2.267   7.196  19.525  0.00  0.00    +0.000 HD
ATOM      8  H   UNL     1       0.820  10.228  18.707  0.00  0.00    +0.000 HD
ENDROOT
BRANCH   5   9
ATOM      9  C   UNL     1       0.140   9.979  21.218  0.00  0.00    +0.000 A 
ATOM     10  C   UNL     1      -0.090   9.579  22.549  0.00  0.00    +0.000 A 
ATOM     11  C   UNL     1      -0.981  10.278  23.359  0.00  0.00    +0.000 A 
ATOM     12  C   UNL     1      -1.645  11.381  22.843  0.00  0.00    +0.000 A 
ATOM     13  F   UNL     1      -2.526  12.036  23.608  0.00  0.00    +0.000 F 
ATOM     14  C   UNL     1      -1.421  11.807  21.539  0.00  0.00    +0.000 A 
ATOM     15  C   UNL     1      -0.526  11.110  20.721  0.00  0.00    +0.000 A 
ATOM     16 CL   UNL     1      -0.350  11.685  19.102  0.00  0.00    +0.000 Cl
ENDBRANCH   5   9
BRANCH   1  22
ATOM     17  C   UNL     1       3.391   5.332  18.011  0.00  0.00    +0.000 A 
ATOM     18  C   UNL     1       4.343   4.523  17.377  0.00  0.00    +0.000 A 
ATOM     19  C   UNL     1       5.391   5.097  16.649  0.00  0.00    +0.000 A 
ATOM     20  C   UNL     1       5.510   6.483  16.577  0.00  0.00    +0.000 A 
ATOM     21  C   UNL     1       4.575   7.295  17.217  0.00  0.00    +0.000 A 
ATOM     22  C   UNL     1       3.513   6.738  17.937  0.00  0.00    +0.000 A 
BRANCH  19  23
ATOM     23  C   UNL     1       6.373   4.197  15.994  0.00  0.00    +0.000 C 
ATOM     24  N   UNL     1       7.644   4.196  16.498  0.00  0.00    +0.000 N 
ATOM     25  O   UNL     1       6.074   3.515  15.024  0.00  0.00    +0.000 OA
ATOM     26  H   UNL     1       7.979   4.913  17.126  0.00  0.00    +0.000 HD
ATOM     27  H   UNL     1       8.332   3.660  15.986  0.00  0.00    +0.000 HD
ENDBRANCH  19  23
BRANCH  17  29
ATOM     28  C   UNL     1       1.447   3.963  17.997  0.00  0.00    +0.000 C 
ATOM     29  O   UNL     1       2.324   4.830  18.721  0.00  0.00    +0.000 OA
ENDBRANCH  17  29
ENDBRANCH   1  22
TORSDOF 4
ENDMDL
MODEL 2
REMARK VINA RESULT:      -8.0      2.788      3.860
REMARK  Name = 
REMARK  5 active torsions:
REMARK  status: ('A' for Active; 'I' for Inactive)
REMARK    1  A    between atoms: C_1  and  O_2
REMARK    2  A    between atoms: O_2  and  C_3
REMARK    3  A    between atoms: C_5  and  C_6
REMARK    4  A    between atoms: C_11  and  N_12
REMARK    5  A    between atoms: C_16  and  C_18
REMARK                            x       y       z     vdW  Elec       q    Type
REMARK                         _______ _______ _______ _____ _____    ______ ____
ROOT
ATOM      1  N   UNL     1       2.308   7.518  19.260  0.00  0.00    +0.000 N 
ATOM      2  C   UNL     1       1.601   8.185  20.225  0.00  0.00    +0.000 C 
ATOM      3  O   UNL     1       1.310   7.768  21.346  0.00  0.00    +0.000 OA
ATOM      4  N   UNL     1       1.175   9.455  19.892  0.00  0.00    +0.000 N 
ATOM      5  C   UNL     1       1.320  10.113  18.692  0.00  0.00    +0.000 C 
ATOM      6  O   UNL     1       1.852   9.612  17.704  0.00  0.00    +0.000 OA
ATOM      7  H   UNL     1       2.601   8.059  18.444  0.00  0.00    +0.000 HD
ATOM      8  H   UNL     1       0.697   9.909  20.660  0.00  0.00    +0.000 HD
ENDROOT
BRANCH   5   9
ATOM      9  C   UNL     1       0.770  11.489  18.580  0.00  0.00    +0.000 A 
ATOM     10  C   UNL     1       1.722  12.526  18.620  0.00  0.00    +0.000 A 
ATOM     11  C   UNL     1       1.321  13.860  18.631  0.00  0.00    +0.000 A 
ATOM     12  C   UNL     1      -0.032  14.163  18.601  0.00  0.00    +0.000 A 
ATOM     13  F   UNL     1      -0.421  15.442  18.645  0.00  0.00    +0.000 F 
ATOM     14  C   UNL     1      -0.990  13.158  18.542  0.00  0.00    +0.000 A 
ATOM     15  C   UNL     1      -0.594  11.816  18.529  0.00  0.00    +0.000 A 
ATOM     16 CL   UNL     1      -1.856  10.637  18.502  0.00  0.00    +0.000 Cl
ENDBRANCH   5   9
BRANCH   1  22
ATOM     17  C   UNL     1       3.733   5.746  18.373  0.00  0.00    +0.000 A 
ATOM     18  C   UNL     1       4.128   4.402  18.362  0.00  0.00    +0.000 A 
ATOM     19  C   UNL     1       3.572   3.493  19.270  0.00  0.00    +0.000 A 
ATOM     20  C   UNL     1       2.598   3.916  20.171  0.00  0.00    +0.000 A 
ATOM     21  C   UNL     1       2.190   5.248  20.177  0.00  0.00    +0.000 A 
ATOM     22  C   UNL     1       2.744   6.174  19.287  0.00  0.00    +0.000 A 
BRANCH  19  23
ATOM     23  C   UNL     1       4.025   2.080  19.220  0.00  0.00    +0.000 C 
ATOM     24  N   UNL     1       5.070   1.736  20.033  0.00  0.00    +0.000 N 
ATOM     25  O   UNL     1       3.517   1.267  18.461  0.00  0.00    +0.000 OA
ATOM     26  H   UNL     1       5.659   2.425  20.480  0.00  0.00    +0.000 HD
ATOM     27  H   UNL     1       5.439   0.801  19.920  0.00  0.00    +0.000 HD
ENDBRANCH  19  23
BRANCH  17  29
ATOM     28  C   UNL     1       5.090   6.197  16.473  0.00  0.00    +0.000 C 
ATOM     29  O   UNL     1       4.257   6.694  17.523  0.00  0.00    +0.000 OA
ENDBRANCH  17  29
ENDBRANCH   1  22
TORSDOF 4
ENDMDL
MODEL 3
REMARK VINA RESULT:      -8.0      1.334      1.658
REMARK  Name = 
REMARK  5 active torsions:
REMARK  status: ('A' for Active; 'I' for Inactive)
REMARK    1  A    between atoms: C_1  and  O_2
REMARK    2  A    between atoms: O_2  and  C_3
REMARK    3  A    between atoms: C_5  and  C_6
REMARK    4  A    between atoms: C_11  and  N_12
REMARK    5  A    between atoms: C_16  and  C_18
REMARK                            x       y       z     vdW  Elec       q    Type
REMARK                         _______ _______ _______ _____ _____    ______ ____
ROOT
ATOM      1  N   UNL     1       2.242   7.781  18.767  0.00  0.00    +0.000 N 
ATOM      2  C   UNL     1       1.803   8.986  18.286  0.00  0.00    +0.000 C 
ATOM      3  O   UNL     1       2.083   9.492  17.199  0.00  0.00    +0.000 OA
ATOM      4  N   UNL     1       0.961   9.697  19.118  0.00  0.00    +0.000 N 
ATOM      5  C   UNL     1       0.555   9.376  20.393  0.00  0.00    +0.000 C 
ATOM      6  O   UNL     1       0.935   8.373  20.993  0.00  0.00    +0.000 OA
ATOM      7  H   UNL     1       1.795   7.432  19.616  0.00  0.00    +0.000 HD
ATOM      8  H   UNL     1       0.640  10.555  18.689  0.00  0.00    +0.000 HD
ENDROOT
BRANCH   5   9
ATOM      9  C   UNL     1      -0.364  10.313  21.090  0.00  0.00    +0.000 A 
ATOM     10  C   UNL     1      -1.031  11.236  20.259  0.00  0.00    +0.000 A 
ATOM     11  C   UNL     1      -1.835  12.233  20.806  0.00  0.00    +0.000 A 
ATOM     12  C   UNL     1      -1.977  12.312  22.183  0.00  0.00    +0.000 A 
ATOM     13  F   UNL     1      -2.722  13.289  22.713  0.00  0.00    +0.000 F 
ATOM     14  C   UNL     1      -1.345  11.402  23.023  0.00  0.00    +0.000 A 
ATOM     15  C   UNL     1      -0.537  10.397  22.479  0.00  0.00    +0.000 A 
ATOM     16 CL   UNL     1       0.245   9.342  23.602  0.00  0.00    +0.000 Cl
ENDBRANCH   5   9
BRANCH   1  22
ATOM     17  C   UNL     1       3.149   5.536  18.460  0.00  0.00    +0.000 A 
ATOM     18  C   UNL     1       4.131   4.690  17.929  0.00  0.00    +0.000 A 
ATOM     19  C   UNL     1       5.142   5.204  17.108  0.00  0.00    +0.000 A 
ATOM     20  C   UNL     1       5.192   6.569  16.839  0.00  0.00    +0.000 A 
ATOM     21  C   UNL     1       4.227   7.419  17.375  0.00  0.00    +0.000 A 
ATOM     22  C   UNL     1       3.202   6.921  18.187  0.00  0.00    +0.000 A 
BRANCH  19  23
ATOM     23  C   UNL     1       6.158   4.266  16.568  0.00  0.00    +0.000 C 
ATOM     24  N   UNL     1       7.429   4.381  17.058  0.00  0.00    +0.000 N 
ATOM     25  O   UNL     1       5.885   3.453  15.696  0.00  0.00    +0.000 OA
ATOM     26  H   UNL     1       7.735   5.187  17.586  0.00  0.00    +0.000 HD
ATOM     27  H   UNL     1       8.136   3.811  16.614  0.00  0.00    +0.000 HD
ENDBRANCH  19  23
BRANCH  17  29
ATOM     28  C   UNL     1       2.488   4.617  20.551  0.00  0.00    +0.000 C 
ATOM     29  O   UNL     1       2.117   5.090  19.254  0.00  0.00    +0.000 OA
ENDBRANCH  17  29
ENDBRANCH   1  22
TORSDOF 4
ENDMDL
MODEL 4
REMARK VINA RESULT:      -7.9      4.100      8.954
REMARK  Name = 
REMARK  5 active torsions:
REMARK  status: ('A' for Active; 'I' for Inactive)
REMARK    1  A    between atoms: C_1  and  O_2
REMARK    2  A    between atoms: O_2  and  C_3
REMARK    3  A    between atoms: C_5  and  C_6
REMARK    4  A    between atoms: C_11  and  N_12
REMARK    5  A    between atoms: C_16  and  C_18
REMARK                            x       y       z     vdW  Elec       q    Type
REMARK                         _______ _______ _______ _____ _____    ______ ____
ROOT
ATOM      1  N   UNL     1       1.584   8.193  19.848  0.00  0.00    +0.000 N 
ATOM      2  C   UNL     1       1.927   6.903  20.155  0.00  0.00    +0.000 C 
ATOM      3  O   UNL     1       1.525   6.240  21.111  0.00  0.00    +0.000 OA
ATOM      4  N   UNL     1       2.818   6.295  19.293  0.00  0.00    +0.000 N 
ATOM      5  C   UNL     1       3.451   6.841  18.199  0.00  0.00    +0.000 C 
ATOM      6  O   UNL     1       3.314   8.012  17.851  0.00  0.00    +0.000 OA
ATOM      7  H   UNL     1       1.879   8.547  18.937  0.00  0.00    +0.000 HD
ATOM      8  H   UNL     1       2.998   5.333  19.548  0.00  0.00    +0.000 HD
ENDROOT
BRANCH   5   9
ATOM      9  C   UNL     1       4.375   5.975  17.422  0.00  0.00    +0.000 A 
ATOM     10  C   UNL     1       5.599   6.570  17.058  0.00  0.00    +0.000 A 
ATOM     11  C   UNL     1       6.502   5.896  16.238  0.00  0.00    +0.000 A 
ATOM     12  C   UNL     1       6.186   4.625  15.781  0.00  0.00    +0.000 A 
ATOM     13  F   UNL     1       7.036   3.988  14.968  0.00  0.00    +0.000 F 
ATOM     14  C   UNL     1       4.993   4.009  16.143  0.00  0.00    +0.000 A 
ATOM     15  C   UNL     1       4.083   4.680  16.967  0.00  0.00    +0.000 A 
ATOM     16 CL   UNL     1       2.609   3.854  17.323  0.00  0.00    +0.000 Cl
ENDBRANCH   5   9
BRANCH   1  22
ATOM     17  C   UNL     1       0.047  10.085  19.974  0.00  0.00    +0.000 A 
ATOM     18  C   UNL     1      -0.684  11.001  20.742  0.00  0.00    +0.000 A 
ATOM     19  C   UNL     1      -0.694  10.907  22.139  0.00  0.00    +0.000 A 
ATOM     20  C   UNL     1       0.051   9.917  22.775  0.00  0.00    +0.000 A 
ATOM     21  C   UNL     1       0.793   9.012  22.019  0.00  0.00    +0.000 A 
ATOM     22  C   UNL     1       0.803   9.082  20.621  0.00  0.00    +0.000 A 
BRANCH  19  23
ATOM     23  C   UNL     1      -1.487  11.900  22.907  0.00  0.00    +0.000 C 
ATOM     24  N   UNL     1      -0.974  13.164  22.998  0.00  0.00    +0.000 N 
ATOM     25  O   UNL     1      -2.530  11.596  23.468  0.00  0.00    +0.000 OA
ATOM     26  H   UNL     1      -0.016  13.379  22.761  0.00  0.00    +0.000 HD
ATOM     27  H   UNL     1      -1.465  13.806  23.607  0.00  0.00    +0.000 HD
ENDBRANCH  19  23
BRANCH  17  29
ATOM     28  C   UNL     1      -1.186  10.245  17.948  0.00  0.00    +0.000 C 
ATOM     29  O   UNL     1       0.079  10.109  18.599  0.00  0.00    +0.000 OA
ENDBRANCH  17  29
ENDBRANCH   1  22
TORSDOF 4
ENDMDL
MODEL 5
REMARK VINA RESULT:      -7.9      4.056      8.953
REMARK  Name = 
REMARK  5 active torsions:
REMARK  status: ('A' for Active; 'I' for Inactive)
REMARK    1  A    between atoms: C_1  and  O_2
REMARK    2  A    between atoms: O_2  and  C_3
REMARK    3  A    between atoms: C_5  and  C_6
REMARK    4  A    between atoms: C_11  and  N_12
REMARK    5  A    between atoms: C_16  and  C_18
REMARK                            x       y       z     vdW  Elec       q    Type
REMARK                         _______ _______ _______ _____ _____    ______ ____
ROOT
ATOM      1  N   UNL     1       1.025   9.361  19.353  0.00  0.00    +0.000 N 
ATOM      2  C   UNL     1       1.514   8.331  20.113  0.00  0.00    +0.000 C 
ATOM      3  O   UNL     1       1.300   8.131  21.308  0.00  0.00    +0.000 OA
ATOM      4  N   UNL     1       2.329   7.432  19.456  0.00  0.00    +0.000 N 
ATOM      5  C   UNL     1       2.762   7.472  18.150  0.00  0.00    +0.000 C 
ATOM      6  O   UNL     1       2.482   8.380  17.371  0.00  0.00    +0.000 OA
ATOM      7  H   UNL     1       1.166   9.299  18.343  0.00  0.00    +0.000 HD
ATOM      8  H   UNL     1       2.622   6.674  20.059  0.00  0.00    +0.000 HD
ENDROOT
BRANCH   5   9
ATOM      9  C   UNL     1       3.644   6.375  17.673  0.00  0.00    +0.000 A 
ATOM     10  C   UNL     1       4.920   6.775  17.228  0.00  0.00    +0.000 A 
ATOM     11  C   UNL     1       5.795   5.853  16.658  0.00  0.00    +0.000 A 
ATOM     12  C   UNL     1       5.401   4.530  16.532  0.00  0.00    +0.000 A 
ATOM     13  F   UNL     1       6.227   3.649  15.956  0.00  0.00    +0.000 F 
ATOM     14  C   UNL     1       4.155   4.107  16.981  0.00  0.00    +0.000 A 
ATOM     15  C   UNL     1       3.271   5.027  17.556  0.00  0.00    +0.000 A 
ATOM     16 CL   UNL     1       1.729   4.419  18.040  0.00  0.00    +0.000 Cl
ENDBRANCH   5   9
BRANCH   1  22
ATOM     17  C   UNL     1      -0.895  10.847  19.108  0.00  0.00    +0.000 A 
ATOM     18  C   UNL     1      -1.602  11.988  19.512  0.00  0.00    +0.000 A 
ATOM     19  C   UNL     1      -1.166  12.742  20.608  0.00  0.00    +0.000 A 
ATOM     20  C   UNL     1      -0.005  12.377  21.285  0.00  0.00    +0.000 A 
ATOM     21  C   UNL     1       0.712  11.253  20.879  0.00  0.00    +0.000 A 
ATOM     22  C   UNL     1       0.283  10.480  19.795  0.00  0.00    +0.000 A 
BRANCH  19  23
ATOM     23  C   UNL     1      -1.951  13.939  20.998  0.00  0.00    +0.000 C 
ATOM     24  N   UNL     1      -2.005  14.965  20.096  0.00  0.00    +0.000 N 
ATOM     25  O   UNL     1      -2.494  14.026  22.090  0.00  0.00    +0.000 OA
ATOM     26  H   UNL     1      -1.379  15.025  19.305  0.00  0.00    +0.000 HD
ATOM     27  H   UNL     1      -2.454  15.816  20.408  0.00  0.00    +0.000 HD
ENDBRANCH  19  23
BRANCH  17  29
ATOM     28  C   UNL     1      -2.690   9.994  17.804  0.00  0.00    +0.000 C 
ATOM     29  O   UNL     1      -1.284  10.051  18.055  0.00  0.00    +0.000 OA
ENDBRANCH  17  29
ENDBRANCH   1  22
TORSDOF 4
ENDMDL
MODEL 6
REMARK VINA RESULT:      -7.8      6.200      8.089
REMARK  Name = 
REMARK  5 active torsions:
REMARK  status: ('A' for Active; 'I' for Inactive)
REMARK    1  A    between atoms: C_1  and  O_2
REMARK    2  A    between atoms: O_2  and  C_3
REMARK    3  A    between atoms: C_5  and  C_6
REMARK    4  A    between atoms: C_11  and  N_12
REMARK    5  A    between atoms: C_16  and  C_18
REMARK                            x       y       z     vdW  Elec       q    Type
REMARK                         _______ _______ _______ _____ _____    ______ ____
ROOT
ATOM      1  N   UNL     1       6.966   6.884  18.161  0.00  0.00    +0.000 N 
ATOM      2  C   UNL     1       8.087   6.866  18.948  0.00  0.00    +0.000 C 
ATOM      3  O   UNL     1       8.520   5.910  19.592  0.00  0.00    +0.000 OA
ATOM      4  N   UNL     1       8.793   8.050  19.019  0.00  0.00    +0.000 N 
ATOM      5  C   UNL     1       8.481   9.262  18.446  0.00  0.00    +0.000 C 
ATOM      6  O   UNL     1       7.463   9.458  17.787  0.00  0.00    +0.000 OA
ATOM      7  H   UNL     1       6.829   7.705  17.570  0.00  0.00    +0.000 HD
ATOM      8  H   UNL     1       9.630   7.960  19.579  0.00  0.00    +0.000 HD
ENDROOT
BRANCH   5   9
ATOM      9  C   UNL     1       9.410  10.400  18.670  0.00  0.00    +0.000 A 
ATOM     10  C   UNL     1      10.138  10.818  17.539  0.00  0.00    +0.000 A 
ATOM     11  C   UNL     1      11.117  11.803  17.647  0.00  0.00    +0.000 A 
ATOM     12  C   UNL     1      11.372  12.374  18.885  0.00  0.00    +0.000 A 
ATOM     13  F   UNL     1      12.333  13.297  18.998  0.00  0.00    +0.000 F 
ATOM     14  C   UNL     1      10.653  11.992  20.012  0.00  0.00    +0.000 A 
ATOM     15  C   UNL     1       9.668  11.005  19.910  0.00  0.00    +0.000 A 
ATOM     16 CL   UNL     1       8.862  10.562  21.372  0.00  0.00    +0.000 Cl
ENDBRANCH   5   9
BRANCH   1  22
ATOM     17  C   UNL     1       6.132   4.925  16.968  0.00  0.00    +0.000 A 
ATOM     18  C   UNL     1       5.147   3.944  16.791  0.00  0.00    +0.000 A 
ATOM     19  C   UNL     1       4.054   3.870  17.663  0.00  0.00    +0.000 A 
ATOM     20  C   UNL     1       3.926   4.795  18.696  0.00  0.00    +0.000 A 
ATOM     21  C   UNL     1       4.894   5.782  18.870  0.00  0.00    +0.000 A 
ATOM     22  C   UNL     1       6.000   5.862  18.017  0.00  0.00    +0.000 A 
BRANCH  19  23
ATOM     23  C   UNL     1       3.039   2.812  17.434  0.00  0.00    +0.000 C 
ATOM     24  N   UNL     1       3.366   1.545  17.829  0.00  0.00    +0.000 N 
ATOM     25  O   UNL     1       1.973   3.050  16.884  0.00  0.00    +0.000 OA
ATOM     26  H   UNL     1       4.313   1.275  18.057  0.00  0.00    +0.000 HD
ATOM     27  H   UNL     1       2.714   0.813  17.579  0.00  0.00    +0.000 HD
ENDBRANCH  19  23
BRANCH  17  29
ATOM     28  C   UNL     1       7.004   4.914  14.756  0.00  0.00    +0.000 C 
ATOM     29  O   UNL     1       7.241   5.035  16.161  0.00  0.00    +0.000 OA
ENDBRANCH  17  29
ENDBRANCH   1  22
TORSDOF 4
ENDMDL
MODEL 7
REMARK VINA RESULT:      -7.8      3.989      8.881
REMARK  Name = 
REMARK  5 active torsions:
REMARK  status: ('A' for Active; 'I' for Inactive)
REMARK    1  A    between atoms: C_1  and  O_2
REMARK    2  A    between atoms: O_2  and  C_3
REMARK    3  A    between atoms: C_5  and  C_6
REMARK    4  A    between atoms: C_11  and  N_12
REMARK    5  A    between atoms: C_16  and  C_18
REMARK                            x       y       z     vdW  Elec       q    Type
REMARK                         _______ _______ _______ _____ _____    ______ ____
ROOT
ATOM      1  N   UNL     1       1.132   9.334  19.113  0.00  0.00    +0.000 N 
ATOM      2  C   UNL     1       1.986   9.485  18.052  0.00  0.00    +0.000 C 
ATOM      3  O   UNL     1       2.138  10.494  17.366  0.00  0.00    +0.000 OA
ATOM      4  N   UNL     1       2.748   8.379  17.731  0.00  0.00    +0.000 N 
ATOM      5  C   UNL     1       2.715   7.128  18.303  0.00  0.00    +0.000 C 
ATOM      6  O   UNL     1       1.941   6.814  19.204  0.00  0.00    +0.000 OA
ATOM      7  H   UNL     1       1.237   8.489  19.676  0.00  0.00    +0.000 HD
ATOM      8  H   UNL     1       3.386   8.567  16.969  0.00  0.00    +0.000 HD
ENDROOT
BRANCH   5   9
ATOM      9  C   UNL     1       3.644   6.094  17.775  0.00  0.00    +0.000 A 
ATOM     10  C   UNL     1       4.941   6.549  17.464  0.00  0.00    +0.000 A 
ATOM     11  C   UNL     1       5.867   5.700  16.863  0.00  0.00    +0.000 A 
ATOM     12  C   UNL     1       5.502   4.394  16.572  0.00  0.00    +0.000 A 
ATOM     13  F   UNL     1       6.379   3.585  15.965  0.00  0.00    +0.000 F 
ATOM     14  C   UNL     1       4.235   3.916  16.887  0.00  0.00    +0.000 A 
ATOM     15  C   UNL     1       3.301   4.764  17.492  0.00  0.00    +0.000 A 
ATOM     16 CL   UNL     1       1.738   4.096  17.803  0.00  0.00    +0.000 Cl
ENDBRANCH   5   9
BRANCH   1  22
ATOM     17  C   UNL     1       0.205  10.711  20.903  0.00  0.00    +0.000 A 
ATOM     18  C   UNL     1      -0.793  11.576  21.371  0.00  0.00    +0.000 A 
ATOM     19  C   UNL     1      -1.813  12.010  20.517  0.00  0.00    +0.000 A 
ATOM     20  C   UNL     1      -1.859  11.556  19.201  0.00  0.00    +0.000 A 
ATOM     21  C   UNL     1      -0.880  10.683  18.733  0.00  0.00    +0.000 A 
ATOM     22  C   UNL     1       0.156  10.250  19.568  0.00  0.00    +0.000 A 
BRANCH  19  23
ATOM     23  C   UNL     1      -2.845  12.929  21.060  0.00  0.00    +0.000 C 
ATOM     24  N   UNL     1      -3.022  14.116  20.405  0.00  0.00    +0.000 N 
ATOM     25  O   UNL     1      -3.483  12.658  22.068  0.00  0.00    +0.000 OA
ATOM     26  H   UNL     1      -2.356  14.468  19.732  0.00  0.00    +0.000 HD
ATOM     27  H   UNL     1      -3.652  14.779  20.838  0.00  0.00    +0.000 HD
ENDBRANCH  19  23
BRANCH  17  29
ATOM     28  C   UNL     1       0.917   9.280  22.663  0.00  0.00    +0.000 C 
ATOM     29  O   UNL     1       1.248  10.267  21.684  0.00  0.00    +0.000 OA
ENDBRANCH  17  29
ENDBRANCH   1  22
TORSDOF 4
ENDMDL
MODEL 8
REMARK VINA RESULT:      -7.8      4.319      8.485
REMARK  Name = 
REMARK  5 active torsions:
REMARK  status: ('A' for Active; 'I' for Inactive)
REMARK    1  A    between atoms: C_1  and  O_2
REMARK    2  A    between atoms: O_2  and  C_3
REMARK    3  A    between atoms: C_5  and  C_6
REMARK    4  A    between atoms: C_11  and  N_12
REMARK    5  A    between atoms: C_16  and  C_18
REMARK                            x       y       z     vdW  Elec       q    Type
REMARK                         _______ _______ _______ _____ _____    ______ ____
ROOT
ATOM      1  N   UNL     1       1.149   9.288  19.818  0.00  0.00    +0.000 N 
ATOM      2  C   UNL     1       1.244   8.510  20.942  0.00  0.00    +0.000 C 
ATOM      3  O   UNL     1       0.843   8.793  22.071  0.00  0.00    +0.000 OA
ATOM      4  N   UNL     1       1.856   7.284  20.777  0.00  0.00    +0.000 N 
ATOM      5  C   UNL     1       2.435   6.769  19.639  0.00  0.00    +0.000 C 
ATOM      6  O   UNL     1       2.508   7.384  18.578  0.00  0.00    +0.000 OA
ATOM      7  H   UNL     1       1.386   8.846  18.929  0.00  0.00    +0.000 HD
ATOM      8  H   UNL     1       1.857   6.741  21.630  0.00  0.00    +0.000 HD
ENDROOT
BRANCH   5   9
ATOM      9  C   UNL     1       3.036   5.411  19.715  0.00  0.00    +0.000 A 
ATOM     10  C   UNL     1       4.396   5.331  19.359  0.00  0.00    +0.000 A 
ATOM     11  C   UNL     1       5.041   4.098  19.287  0.00  0.00    +0.000 A 
ATOM     12  C   UNL     1       4.330   2.942  19.570  0.00  0.00    +0.000 A 
ATOM     13  F   UNL     1       4.938   1.755  19.471  0.00  0.00    +0.000 F 
ATOM     14  C   UNL     1       2.991   2.997  19.943  0.00  0.00    +0.000 A 
ATOM     15  C   UNL     1       2.339   4.232  20.018  0.00  0.00    +0.000 A 
ATOM     16 CL   UNL     1       0.664   4.197  20.442  0.00  0.00    +0.000 Cl
ENDBRANCH   5   9
BRANCH   1  22
ATOM     17  C   UNL     1      -0.211  10.983  18.708  0.00  0.00    +0.000 A 
ATOM     18  C   UNL     1      -0.623  12.317  18.588  0.00  0.00    +0.000 A 
ATOM     19  C   UNL     1      -0.170  13.283  19.494  0.00  0.00    +0.000 A 
ATOM     20  C   UNL     1       0.720  12.926  20.505  0.00  0.00    +0.000 A 
ATOM     21  C   UNL     1       1.146  11.604  20.621  0.00  0.00    +0.000 A 
ATOM     22  C   UNL     1       0.692  10.623  19.732  0.00  0.00    +0.000 A 
BRANCH  19  23
ATOM     23  C   UNL     1      -0.637  14.682  19.327  0.00  0.00    +0.000 C 
ATOM     24  N   UNL     1      -1.780  15.036  19.988  0.00  0.00    +0.000 N 
ATOM     25  O   UNL     1      -0.051  15.474  18.603  0.00  0.00    +0.000 OA
ATOM     26  H   UNL     1      -2.409  14.353  20.387  0.00  0.00    +0.000 HD
ATOM     27  H   UNL     1      -2.148  15.957  19.789  0.00  0.00    +0.000 HD
ENDBRANCH  19  23
BRANCH  17  29
ATOM     28  C   UNL     1      -2.011  10.045  17.468  0.00  0.00    +0.000 C 
ATOM     29  O   UNL     1      -0.639   9.982  17.865  0.00  0.00    +0.000 OA
ENDBRANCH  17  29
ENDBRANCH   1  22
TORSDOF 4
ENDMDL
MODEL 9
REMARK VINA RESULT:      -7.8      4.113      8.881
REMARK  Name = 
REMARK  5 active torsions:
REMARK  status: ('A' for Active; 'I' for Inactive)
REMARK    1  A    between atoms: C_1  and  O_2
REMARK    2  A    between atoms: O_2  and  C_3
REMARK    3  A    between atoms: C_5  and  C_6
REMARK    4  A    between atoms: C_11  and  N_12
REMARK    5  A    between atoms: C_16  and  C_18
REMARK                            x       y       z     vdW  Elec       q    Type
REMARK                         _______ _______ _______ _____ _____    ______ ____
ROOT
ATOM      1  N   UNL     1       1.239   9.317  19.148  0.00  0.00    +0.000 N 
ATOM      2  C   UNL     1       2.074   9.460  18.071  0.00  0.00    +0.000 C 
ATOM      3  O   UNL     1       2.229  10.472  17.388  0.00  0.00    +0.000 OA
ATOM      4  N   UNL     1       2.811   8.345  17.728  0.00  0.00    +0.000 N 
ATOM      5  C   UNL     1       2.770   7.091  18.293  0.00  0.00    +0.000 C 
ATOM      6  O   UNL     1       2.008   6.784  19.207  0.00  0.00    +0.000 OA
ATOM      7  H   UNL     1       1.342   8.467  19.704  0.00  0.00    +0.000 HD
ATOM      8  H   UNL     1       3.437   8.527  16.954  0.00  0.00    +0.000 HD
ENDROOT
BRANCH   5   9
ATOM      9  C   UNL     1       3.671   6.045  17.740  0.00  0.00    +0.000 A 
ATOM     10  C   UNL     1       4.958   6.487  17.377  0.00  0.00    +0.000 A 
ATOM     11  C   UNL     1       5.855   5.626  16.749  0.00  0.00    +0.000 A 
ATOM     12  C   UNL     1       5.470   4.320  16.484  0.00  0.00    +0.000 A 
ATOM     13  F   UNL     1       6.317   3.500  15.852  0.00  0.00    +0.000 F 
ATOM     14  C   UNL     1       4.212   3.855  16.850  0.00  0.00    +0.000 A 
ATOM     15  C   UNL     1       3.307   4.715  17.482  0.00  0.00    +0.000 A 
ATOM     16 CL   UNL     1       1.753   4.062  17.856  0.00  0.00    +0.000 Cl
ENDBRANCH   5   9
BRANCH   1  22
ATOM     17  C   UNL     1      -0.874  10.505  18.868  0.00  0.00    +0.000 A 
ATOM     18  C   UNL     1      -1.792  11.465  19.316  0.00  0.00    +0.000 A 
ATOM     19  C   UNL     1      -1.579  12.141  20.522  0.00  0.00    +0.000 A 
ATOM     20  C   UNL     1      -0.432  11.884  21.271  0.00  0.00    +0.000 A 
ATOM     21  C   UNL     1       0.492  10.942  20.824  0.00  0.00    +0.000 A 
ATOM     22  C   UNL     1       0.288  10.246  19.628  0.00  0.00    +0.000 A 
BRANCH  19  23
ATOM     23  C   UNL     1      -2.581  13.147  20.955  0.00  0.00    +0.000 C 
ATOM     24  N   UNL     1      -3.596  13.424  20.082  0.00  0.00    +0.000 N 
ATOM     25  O   UNL     1      -2.486  13.732  22.025  0.00  0.00    +0.000 OA
ATOM     26  H   UNL     1      -3.567  13.146  19.111  0.00  0.00    +0.000 HD
ATOM     27  H   UNL     1      -4.216  14.181  20.338  0.00  0.00    +0.000 HD
ENDBRANCH  19  23
BRANCH  17  29
ATOM     28  C   UNL     1      -2.158  10.160  16.897  0.00  0.00    +0.000 C 
ATOM     29  O   UNL     1      -1.038   9.789  17.704  0.00  0.00    +0.000 OA
ENDBRANCH  17  29
ENDBRANCH   1  22
TORSDOF 4
ENDMDL
