MODEL 1
REMARK VINA RESULT:      -7.1      0.000      0.000
REMARK  Name = 
REMARK  6 active torsions:
REMARK  status: ('A' for Active; 'I' for Inactive)
REMARK    1  A    between atoms: C_1  and  N_2
REMARK    2  A    between atoms: N_2  and  N_3
REMARK    3  A    between atoms: N_2  and  C_14
REMARK    4  A    between atoms: N_3  and  S_4
REMARK    5  A    between atoms: S_4  and  C_7
REMARK    6  A    between atoms: C_17  and  C_18
REMARK                            x       y       z     vdW  Elec       q    Type
REMARK                         _______ _______ _______ _____ _____    ______ ____
ROOT
ATOM      1  C   UNL     1       4.748   1.915  20.543  0.00  0.00    +0.000 C 
ATOM      2  N   UNL     1       4.239   2.534  19.316  0.00  0.00    +0.000 N 
ENDROOT
BRANCH   2   3
ATOM      3  C   UNL     1       4.969   3.660  18.861  0.00  0.00    +0.000 A 
ATOM      4  N   UNL     1       5.623   4.414  19.792  0.00  0.00    +0.000 NA
ATOM      5  C   UNL     1       6.359   5.484  19.402  0.00  0.00    +0.000 A 
ATOM      6  C   UNL     1       6.523   5.866  18.084  0.00  0.00    +0.000 A 
ATOM      7  C   UNL     1       5.860   5.107  17.123  0.00  0.00    +0.000 A 
ATOM      8  C   UNL     1       5.072   4.008  17.501  0.00  0.00    +0.000 A 
ATOM      9 CL   UNL     1       4.307   3.146  16.208  0.00  0.00    +0.000 Cl
BRANCH   6  10
ATOM     10  C   UNL     1       7.381   7.034  17.711  0.00  0.00    +0.000 C 
ATOM     11  F   UNL     1       8.398   7.268  18.585  0.00  0.00    +0.000 F 
ATOM     12  F   UNL     1       7.961   6.878  16.493  0.00  0.00    +0.000 F 
ATOM     13  F   UNL     1       6.672   8.195  17.643  0.00  0.00    +0.000 F 
ENDBRANCH   6  10
ENDBRANCH   2   3
BRANCH   2  14
ATOM     14  N   UNL     1       2.815   2.221  18.945  0.00  0.00    +0.000 NA
ATOM     15  H   UNL     1       2.614   1.225  18.825  0.00  0.00    +0.000 HD
BRANCH  14  16
ATOM     16  S   UNL     1       1.536   3.005  19.793  0.00  0.00    +0.000 S 
ATOM     17  O   UNL     1       0.285   2.622  19.167  0.00  0.00    +0.000 OA
ATOM     18  O   UNL     1       1.750   2.883  21.217  0.00  0.00    +0.000 OA
BRANCH  16  19
ATOM     19  C   UNL     1       1.869   4.697  19.342  0.00  0.00    +0.000 A 
ATOM     20  C   UNL     1       2.113   5.656  20.333  0.00  0.00    +0.000 A 
ATOM     21  C   UNL     1       2.288   6.991  19.963  0.00  0.00    +0.000 A 
ATOM     22  C   UNL     1       2.234   7.354  18.616  0.00  0.00    +0.000 A 
ATOM     23 CL   UNL     1       2.388   9.009  18.171  0.00  0.00    +0.000 Cl
ATOM     24  C   UNL     1       2.040   6.389  17.628  0.00  0.00    +0.000 A 
ATOM     25  C   UNL     1       1.864   5.051  17.989  0.00  0.00    +0.000 A 
ENDBRANCH  16  19
ENDBRANCH  14  16
ENDBRANCH   2  14
TORSDOF 5
ENDMDL
MODEL 2
REMARK VINA RESULT:      -6.9      3.901      5.502
REMARK  Name = 
REMARK  6 active torsions:
REMARK  status: ('A' for Active; 'I' for Inactive)
REMARK    1  A    between atoms: C_1  and  N_2
REMARK    2  A    between atoms: N_2  and  N_3
REMARK    3  A    between atoms: N_2  and  C_14
REMARK    4  A    between atoms: N_3  and  S_4
REMARK    5  A    between atoms: S_4  and  C_7
REMARK    6  A    between atoms: C_17  and  C_18
REMARK                            x       y       z     vdW  Elec       q    Type
REMARK                         _______ _______ _______ _____ _____    ______ ____
ROOT
ATOM      1  C   UNL     1       2.535   2.464  18.040  0.00  0.00    +0.000 C 
ATOM      2  N   UNL     1       3.493   3.398  18.637  0.00  0.00    +0.000 N 
ENDROOT
BRANCH   2   3
ATOM      3  C   UNL     1       2.917   4.515  19.294  0.00  0.00    +0.000 A 
ATOM      4  N   UNL     1       3.169   5.754  18.780  0.00  0.00    +0.000 NA
ATOM      5  C   UNL     1       2.617   6.851  19.356  0.00  0.00    +0.000 A 
ATOM      6  C   UNL     1       1.769   6.803  20.446  0.00  0.00    +0.000 A 
ATOM      7  C   UNL     1       1.504   5.545  20.981  0.00  0.00    +0.000 A 
ATOM      8  C   UNL     1       2.082   4.396  20.420  0.00  0.00    +0.000 A 
ATOM      9 CL   UNL     1       1.667   2.894  21.177  0.00  0.00    +0.000 Cl
BRANCH   6  10
ATOM     10  C   UNL     1       1.157   8.046  21.014  0.00  0.00    +0.000 C 
ATOM     11  F   UNL     1       1.063   9.068  20.120  0.00  0.00    +0.000 F 
ATOM     12  F   UNL     1      -0.103   7.834  21.475  0.00  0.00    +0.000 F 
ATOM     13  F   UNL     1       1.866   8.535  22.069  0.00  0.00    +0.000 F 
ENDBRANCH   6  10
ENDBRANCH   2   3
BRANCH   2  14
ATOM     14  N   UNL     1       4.907   3.331  18.127  0.00  0.00    +0.000 NA
ATOM     15  H   UNL     1       5.339   2.406  18.187  0.00  0.00    +0.000 HD
BRANCH  14  16
ATOM     16  S   UNL     1       5.295   4.092  16.631  0.00  0.00    +0.000 S 
ATOM     17  O   UNL     1       6.109   3.172  15.860  0.00  0.00    +0.000 OA
ATOM     18  O   UNL     1       4.112   4.715  16.081  0.00  0.00    +0.000 OA
BRANCH  16  19
ATOM     19  C   UNL     1       6.362   5.392  17.221  0.00  0.00    +0.000 A 
ATOM     20  C   UNL     1       7.189   5.176  18.331  0.00  0.00    +0.000 A 
ATOM     21  C   UNL     1       7.953   6.234  18.828  0.00  0.00    +0.000 A 
ATOM     22  C   UNL     1       7.900   7.483  18.210  0.00  0.00    +0.000 A 
ATOM     23 CL   UNL     1       8.796   8.799  18.865  0.00  0.00    +0.000 Cl
ATOM     24  C   UNL     1       7.113   7.682  17.075  0.00  0.00    +0.000 A 
ATOM     25  C   UNL     1       6.345   6.630  16.571  0.00  0.00    +0.000 A 
ENDBRANCH  16  19
ENDBRANCH  14  16
ENDBRANCH   2  14
TORSDOF 5
ENDMDL
MODEL 3
REMARK VINA RESULT:      -6.9      3.936      6.176
REMARK  Name = 
REMARK  6 active torsions:
REMARK  status: ('A' for Active; 'I' for Inactive)
REMARK    1  A    between atoms: C_1  and  N_2
REMARK    2  A    between atoms: N_2  and  N_3
REMARK    3  A    between atoms: N_2  and  C_14
REMARK    4  A    between atoms: N_3  and  S_4
REMARK    5  A    between atoms: S_4  and  C_7
REMARK    6  A    between atoms: C_17  and  C_18
REMARK                            x       y       z     vdW  Elec       q    Type
REMARK                         _______ _______ _______ _____ _____    ______ ____
ROOT
ATOM      1  C   UNL     1       2.366   4.776  20.824  0.00  0.00    +0.000 C 
ATOM      2  N   UNL     1       2.838   5.726  19.813  0.00  0.00    +0.000 N 
ENDROOT
BRANCH   2   3
ATOM      3  C   UNL     1       2.177   6.981  19.811  0.00  0.00    +0.000 A 
ATOM      4  N   UNL     1       1.411   7.299  20.895  0.00  0.00    +0.000 NA
ATOM      5  C   UNL     1       0.783   8.499  20.952  0.00  0.00    +0.000 A 
ATOM      6  C   UNL     1       0.886   9.469  19.973  0.00  0.00    +0.000 A 
ATOM      7  C   UNL     1       1.664   9.158  18.860  0.00  0.00    +0.000 A 
ATOM      8  C   UNL     1       2.305   7.913  18.765  0.00  0.00    +0.000 A 
ATOM      9 CL   UNL     1       3.245   7.655  17.332  0.00  0.00    +0.000 Cl
BRANCH   6  10
ATOM     10  C   UNL     1       0.201  10.792  20.110  0.00  0.00    +0.000 C 
ATOM     11  F   UNL     1      -0.883  10.935  19.300  0.00  0.00    +0.000 F 
ATOM     12  F   UNL     1      -0.245  11.012  21.375  0.00  0.00    +0.000 F 
ATOM     13  F   UNL     1       1.027  11.834  19.817  0.00  0.00    +0.000 F 
ENDBRANCH   6  10
ENDBRANCH   2   3
BRANCH   2  14
ATOM     14  N   UNL     1       3.602   5.151  18.652  0.00  0.00    +0.000 NA
ATOM     15  H   UNL     1       3.565   5.712  17.797  0.00  0.00    +0.000 HD
BRANCH  14  16
ATOM     16  S   UNL     1       5.191   4.541  18.915  0.00  0.00    +0.000 S 
ATOM     17  O   UNL     1       5.950   5.558  19.617  0.00  0.00    +0.000 OA
ATOM     18  O   UNL     1       5.116   3.177  19.387  0.00  0.00    +0.000 OA
BRANCH  16  19
ATOM     19  C   UNL     1       5.778   4.496  17.232  0.00  0.00    +0.000 A 
ATOM     20  C   UNL     1       7.122   4.767  16.946  0.00  0.00    +0.000 A 
ATOM     21  C   UNL     1       7.541   4.809  15.615  0.00  0.00    +0.000 A 
ATOM     22  C   UNL     1       6.628   4.566  14.588  0.00  0.00    +0.000 A 
ATOM     23 CL   UNL     1       7.136   4.682  12.948  0.00  0.00    +0.000 Cl
ATOM     24  C   UNL     1       5.301   4.248  14.878  0.00  0.00    +0.000 A 
ATOM     25  C   UNL     1       4.873   4.203  16.207  0.00  0.00    +0.000 A 
ENDBRANCH  16  19
ENDBRANCH  14  16
ENDBRANCH   2  14
TORSDOF 5
ENDMDL
MODEL 4
REMARK VINA RESULT:      -6.8      3.375      4.200
REMARK  Name = 
REMARK  6 active torsions:
REMARK  status: ('A' for Active; 'I' for Inactive)
REMARK    1  A    between atoms: C_1  and  N_2
REMARK    2  A    between atoms: N_2  and  N_3
REMARK    3  A    between atoms: N_2  and  C_14
REMARK    4  A    between atoms: N_3  and  S_4
REMARK    5  A    between atoms: S_4  and  C_7
REMARK    6  A    between atoms: C_17  and  C_18
REMARK                            x       y       z     vdW  Elec       q    Type
REMARK                         _______ _______ _______ _____ _____    ______ ____
ROOT
ATOM      1  C   UNL     1       6.719   5.327  18.769  0.00  0.00    +0.000 C 
ATOM      2  N   UNL     1       5.547   5.508  17.908  0.00  0.00    +0.000 N 
ENDROOT
BRANCH   2   3
ATOM      3  C   UNL     1       5.694   5.028  16.582  0.00  0.00    +0.000 A 
ATOM      4  N   UNL     1       6.452   5.765  15.719  0.00  0.00    +0.000 NA
ATOM      5  C   UNL     1       6.645   5.333  14.448  0.00  0.00    +0.000 A 
ATOM      6  C   UNL     1       6.136   4.148  13.953  0.00  0.00    +0.000 A 
ATOM      7  C   UNL     1       5.359   3.386  14.822  0.00  0.00    +0.000 A 
ATOM      8  C   UNL     1       5.123   3.822  16.135  0.00  0.00    +0.000 A 
ATOM      9 CL   UNL     1       4.146   2.779  17.114  0.00  0.00    +0.000 Cl
BRANCH   6  10
ATOM     10  C   UNL     1       6.417   3.703  12.552  0.00  0.00    +0.000 C 
ATOM     11  F   UNL     1       7.369   4.444  11.922  0.00  0.00    +0.000 F 
ATOM     12  F   UNL     1       6.846   2.415  12.497  0.00  0.00    +0.000 F 
ATOM     13  F   UNL     1       5.311   3.764  11.759  0.00  0.00    +0.000 F 
ENDBRANCH   6  10
ENDBRANCH   2   3
BRANCH   2  14
ATOM     14  N   UNL     1       4.539   6.534  18.348  0.00  0.00    +0.000 NA
ATOM     15  H   UNL     1       4.440   7.333  17.716  0.00  0.00    +0.000 HD
BRANCH  14  16
ATOM     16  S   UNL     1       3.000   6.008  18.915  0.00  0.00    +0.000 S 
ATOM     17  O   UNL     1       2.325   5.340  17.818  0.00  0.00    +0.000 OA
ATOM     18  O   UNL     1       3.144   5.393  20.215  0.00  0.00    +0.000 OA
BRANCH  16  19
ATOM     19  C   UNL     1       2.210   7.588  19.152  0.00  0.00    +0.000 A 
ATOM     20  C   UNL     1       1.670   7.927  20.399  0.00  0.00    +0.000 A 
ATOM     21  C   UNL     1       0.982   9.134  20.539  0.00  0.00    +0.000 A 
ATOM     22  C   UNL     1       0.854   9.995  19.449  0.00  0.00    +0.000 A 
ATOM     23 CL   UNL     1      -0.048  11.451  19.612  0.00  0.00    +0.000 Cl
ATOM     24  C   UNL     1       1.436   9.678  18.221  0.00  0.00    +0.000 A 
ATOM     25  C   UNL     1       2.126   8.472  18.071  0.00  0.00    +0.000 A 
ENDBRANCH  16  19
ENDBRANCH  14  16
ENDBRANCH   2  14
TORSDOF 5
ENDMDL
MODEL 5
REMARK VINA RESULT:      -6.8      0.591      1.391
REMARK  Name = 
REMARK  6 active torsions:
REMARK  status: ('A' for Active; 'I' for Inactive)
REMARK    1  A    between atoms: C_1  and  N_2
REMARK    2  A    between atoms: N_2  and  N_3
REMARK    3  A    between atoms: N_2  and  C_14
REMARK    4  A    between atoms: N_3  and  S_4
REMARK    5  A    between atoms: S_4  and  C_7
REMARK    6  A    between atoms: C_17  and  C_18
REMARK                            x       y       z     vdW  Elec       q    Type
REMARK                         _______ _______ _______ _____ _____    ______ ____
ROOT
ATOM      1  C   UNL     1       4.865   1.266  19.235  0.00  0.00    +0.000 C 
ATOM      2  N   UNL     1       4.279   2.576  19.531  0.00  0.00    +0.000 N 
ENDROOT
BRANCH   2   3
ATOM      3  C   UNL     1       4.994   3.687  19.018  0.00  0.00    +0.000 A 
ATOM      4  N   UNL     1       5.798   4.379  19.877  0.00  0.00    +0.000 NA
ATOM      5  C   UNL     1       6.524   5.432  19.426  0.00  0.00    +0.000 A 
ATOM      6  C   UNL     1       6.530   5.855  18.110  0.00  0.00    +0.000 A 
ATOM      7  C   UNL     1       5.714   5.158  17.222  0.00  0.00    +0.000 A 
ATOM      8  C   UNL     1       4.933   4.080  17.668  0.00  0.00    +0.000 A 
ATOM      9 CL   UNL     1       3.967   3.298  16.462  0.00  0.00    +0.000 Cl
BRANCH   6  10
ATOM     10  C   UNL     1       7.384   6.999  17.663  0.00  0.00    +0.000 C 
ATOM     11  F   UNL     1       7.966   6.807  16.448  0.00  0.00    +0.000 F 
ATOM     12  F   UNL     1       6.681   8.157  17.563  0.00  0.00    +0.000 F 
ATOM     13  F   UNL     1       8.404   7.253  18.529  0.00  0.00    +0.000 F 
ENDBRANCH   6  10
ENDBRANCH   2   3
BRANCH   2  14
ATOM     14  N   UNL     1       3.298   2.633  20.671  0.00  0.00    +0.000 NA
ATOM     15  H   UNL     1       3.618   3.167  21.483  0.00  0.00    +0.000 HD
BRANCH  14  16
ATOM     16  S   UNL     1       1.641   2.963  20.335  0.00  0.00    +0.000 S 
ATOM     17  O   UNL     1       1.219   2.084  19.261  0.00  0.00    +0.000 OA
ATOM     18  O   UNL     1       0.905   3.068  21.575  0.00  0.00    +0.000 OA
BRANCH  16  19
ATOM     19  C   UNL     1       1.793   4.605  19.659  0.00  0.00    +0.000 A 
ATOM     20  C   UNL     1       1.611   4.823  18.288  0.00  0.00    +0.000 A 
ATOM     21  C   UNL     1       1.818   6.103  17.767  0.00  0.00    +0.000 A 
ATOM     22  C   UNL     1       2.185   7.149  18.613  0.00  0.00    +0.000 A 
ATOM     23 CL   UNL     1       2.500   8.709  17.956  0.00  0.00    +0.000 Cl
ATOM     24  C   UNL     1       2.317   6.940  19.986  0.00  0.00    +0.000 A 
ATOM     25  C   UNL     1       2.112   5.663  20.516  0.00  0.00    +0.000 A 
ENDBRANCH  16  19
ENDBRANCH  14  16
ENDBRANCH   2  14
TORSDOF 5
ENDMDL
MODEL 6
REMARK VINA RESULT:      -6.8      4.067      5.935
REMARK  Name = 
REMARK  6 active torsions:
REMARK  status: ('A' for Active; 'I' for Inactive)
REMARK    1  A    between atoms: C_1  and  N_2
REMARK    2  A    between atoms: N_2  and  N_3
REMARK    3  A    between atoms: N_2  and  C_14
REMARK    4  A    between atoms: N_3  and  S_4
REMARK    5  A    between atoms: S_4  and  C_7
REMARK    6  A    between atoms: C_17  and  C_18
REMARK                            x       y       z     vdW  Elec       q    Type
REMARK                         _______ _______ _______ _____ _____    ______ ____
ROOT
ATOM      1  C   UNL     1       2.225   3.998  17.509  0.00  0.00    +0.000 C 
ATOM      2  N   UNL     1       3.177   5.052  17.870  0.00  0.00    +0.000 N 
ENDROOT
BRANCH   2   3
ATOM      3  C   UNL     1       2.659   6.070  18.710  0.00  0.00    +0.000 A 
ATOM      4  N   UNL     1       2.469   7.308  18.167  0.00  0.00    +0.000 NA
ATOM      5  C   UNL     1       1.949   8.307  18.922  0.00  0.00    +0.000 A 
ATOM      6  C   UNL     1       1.559   8.152  20.239  0.00  0.00    +0.000 A 
ATOM      7  C   UNL     1       1.748   6.894  20.807  0.00  0.00    +0.000 A 
ATOM      8  C   UNL     1       2.307   5.850  20.054  0.00  0.00    +0.000 A 
ATOM      9 CL   UNL     1       2.482   4.336  20.878  0.00  0.00    +0.000 Cl
BRANCH   6  10
ATOM     10  C   UNL     1       0.953   9.282  21.011  0.00  0.00    +0.000 C 
ATOM     11  F   UNL     1       1.315  10.513  20.556  0.00  0.00    +0.000 F 
ATOM     12  F   UNL     1      -0.405   9.255  20.981  0.00  0.00    +0.000 F 
ATOM     13  F   UNL     1       1.300   9.253  22.327  0.00  0.00    +0.000 F 
ENDBRANCH   6  10
ENDBRANCH   2   3
BRANCH   2  14
ATOM     14  N   UNL     1       4.393   5.190  16.996  0.00  0.00    +0.000 NA
ATOM     15  H   UNL     1       4.495   6.104  16.548  0.00  0.00    +0.000 HD
BRANCH  14  16
ATOM     16  S   UNL     1       5.912   4.622  17.578  0.00  0.00    +0.000 S 
ATOM     17  O   UNL     1       5.694   4.014  18.876  0.00  0.00    +0.000 OA
ATOM     18  O   UNL     1       6.613   3.935  16.517  0.00  0.00    +0.000 OA
BRANCH  16  19
ATOM     19  C   UNL     1       6.735   6.181  17.844  0.00  0.00    +0.000 A 
ATOM     20  C   UNL     1       6.333   7.320  17.135  0.00  0.00    +0.000 A 
ATOM     21  C   UNL     1       7.046   8.510  17.297  0.00  0.00    +0.000 A 
ATOM     22  C   UNL     1       8.134   8.559  18.169  0.00  0.00    +0.000 A 
ATOM     23 CL   UNL     1       9.046  10.011  18.317  0.00  0.00    +0.000 Cl
ATOM     24  C   UNL     1       8.500   7.436  18.911  0.00  0.00    +0.000 A 
ATOM     25  C   UNL     1       7.793   6.241  18.756  0.00  0.00    +0.000 A 
ENDBRANCH  16  19
ENDBRANCH  14  16
ENDBRANCH   2  14
TORSDOF 5
ENDMDL
MODEL 7
REMARK VINA RESULT:      -6.7      5.036      6.929
REMARK  Name = 
REMARK  6 active torsions:
REMARK  status: ('A' for Active; 'I' for Inactive)
REMARK    1  A    between atoms: C_1  and  N_2
REMARK    2  A    between atoms: N_2  and  N_3
REMARK    3  A    between atoms: N_2  and  C_14
REMARK    4  A    between atoms: N_3  and  S_4
REMARK    5  A    between atoms: S_4  and  C_7
REMARK    6  A    between atoms: C_17  and  C_18
REMARK                            x       y       z     vdW  Elec       q    Type
REMARK                         _______ _______ _______ _____ _____    ______ ____
ROOT
ATOM      1  C   UNL     1       6.935   5.312  19.159  0.00  0.00    +0.000 C 
ATOM      2  N   UNL     1       5.969   4.936  18.123  0.00  0.00    +0.000 N 
ENDROOT
BRANCH   2   3
ATOM      3  C   UNL     1       4.691   4.553  18.602  0.00  0.00    +0.000 A 
ATOM      4  N   UNL     1       4.539   3.277  19.060  0.00  0.00    +0.000 NA
ATOM      5  C   UNL     1       3.343   2.872  19.554  0.00  0.00    +0.000 A 
ATOM      6  C   UNL     1       2.235   3.692  19.656  0.00  0.00    +0.000 A 
ATOM      7  C   UNL     1       2.376   4.998  19.191  0.00  0.00    +0.000 A 
ATOM      8  C   UNL     1       3.596   5.435  18.652  0.00  0.00    +0.000 A 
ATOM      9 CL   UNL     1       3.638   7.082  18.116  0.00  0.00    +0.000 Cl
BRANCH   6  10
ATOM     10  C   UNL     1       0.952   3.200  20.248  0.00  0.00    +0.000 C 
ATOM     11  F   UNL     1       0.263   2.352  19.436  0.00  0.00    +0.000 F 
ATOM     12  F   UNL     1       1.147   2.528  21.412  0.00  0.00    +0.000 F 
ATOM     13  F   UNL     1       0.095   4.217  20.540  0.00  0.00    +0.000 F 
ENDBRANCH   6  10
ENDBRANCH   2   3
BRANCH   2  14
ATOM     14  N   UNL     1       6.533   4.569  16.778  0.00  0.00    +0.000 NA
ATOM     15  H   UNL     1       6.174   3.693  16.389  0.00  0.00    +0.000 HD
BRANCH  14  16
ATOM     16  S   UNL     1       6.643   5.780  15.557  0.00  0.00    +0.000 S 
ATOM     17  O   UNL     1       5.429   6.571  15.601  0.00  0.00    +0.000 OA
ATOM     18  O   UNL     1       7.955   6.386  15.590  0.00  0.00    +0.000 OA
BRANCH  16  19
ATOM     19  C   UNL     1       6.564   4.750  14.104  0.00  0.00    +0.000 A 
ATOM     20  C   UNL     1       5.554   3.789  13.975  0.00  0.00    +0.000 A 
ATOM     21  C   UNL     1       5.560   2.936  12.869  0.00  0.00    +0.000 A 
ATOM     22  C   UNL     1       6.556   3.058  11.900  0.00  0.00    +0.000 A 
ATOM     23 CL   UNL     1       6.595   1.964  10.572  0.00  0.00    +0.000 Cl
ATOM     24  C   UNL     1       7.533   4.049  12.006  0.00  0.00    +0.000 A 
ATOM     25  C   UNL     1       7.534   4.907  13.109  0.00  0.00    +0.000 A 
ENDBRANCH  16  19
ENDBRANCH  14  16
ENDBRANCH   2  14
TORSDOF 5
ENDMDL
MODEL 8
REMARK VINA RESULT:      -6.7      2.369      2.994
REMARK  Name = 
REMARK  6 active torsions:
REMARK  status: ('A' for Active; 'I' for Inactive)
REMARK    1  A    between atoms: C_1  and  N_2
REMARK    2  A    between atoms: N_2  and  N_3
REMARK    3  A    between atoms: N_2  and  C_14
REMARK    4  A    between atoms: N_3  and  S_4
REMARK    5  A    between atoms: S_4  and  C_7
REMARK    6  A    between atoms: C_17  and  C_18
REMARK                            x       y       z     vdW  Elec       q    Type
REMARK                         _______ _______ _______ _____ _____    ______ ____
ROOT
ATOM      1  C   UNL     1       6.655   3.841  16.120  0.00  0.00    +0.000 C 
ATOM      2  N   UNL     1       6.174   4.510  17.332  0.00  0.00    +0.000 N 
ENDROOT
BRANCH   2   3
ATOM      3  C   UNL     1       6.716   5.800  17.563  0.00  0.00    +0.000 A 
ATOM      4  N   UNL     1       7.733   5.910  18.467  0.00  0.00    +0.000 NA
ATOM      5  C   UNL     1       8.302   7.118  18.702  0.00  0.00    +0.000 A 
ATOM      6  C   UNL     1       7.935   8.281  18.052  0.00  0.00    +0.000 A 
ATOM      7  C   UNL     1       6.898   8.184  17.127  0.00  0.00    +0.000 A 
ATOM      8  C   UNL     1       6.274   6.950  16.884  0.00  0.00    +0.000 A 
ATOM      9 CL   UNL     1       5.003   6.966  15.707  0.00  0.00    +0.000 Cl
BRANCH   6  10
ATOM     10  C   UNL     1       8.628   9.579  18.324  0.00  0.00    +0.000 C 
ATOM     11  F   UNL     1       9.198   9.648  19.558  0.00  0.00    +0.000 F 
ATOM     12  F   UNL     1       9.627   9.824  17.436  0.00  0.00    +0.000 F 
ATOM     13  F   UNL     1       7.784  10.644  18.241  0.00  0.00    +0.000 F 
ENDBRANCH   6  10
ENDBRANCH   2   3
BRANCH   2  14
ATOM     14  N   UNL     1       5.553   3.633  18.384  0.00  0.00    +0.000 NA
ATOM     15  H   UNL     1       5.776   3.898  19.347  0.00  0.00    +0.000 HD
BRANCH  14  16
ATOM     16  S   UNL     1       3.891   3.200  18.240  0.00  0.00    +0.000 S 
ATOM     17  O   UNL     1       3.517   3.327  16.845  0.00  0.00    +0.000 OA
ATOM     18  O   UNL     1       3.636   1.994  18.996  0.00  0.00    +0.000 OA
BRANCH  16  19
ATOM     19  C   UNL     1       3.148   4.557  19.125  0.00  0.00    +0.000 A 
ATOM     20  C   UNL     1       2.527   4.337  20.360  0.00  0.00    +0.000 A 
ATOM     21  C   UNL     1       1.878   5.398  20.996  0.00  0.00    +0.000 A 
ATOM     22  C   UNL     1       1.867   6.663  20.407  0.00  0.00    +0.000 A 
ATOM     23 CL   UNL     1       1.012   7.950  21.163  0.00  0.00    +0.000 Cl
ATOM     24  C   UNL     1       2.529   6.890  19.199  0.00  0.00    +0.000 A 
ATOM     25  C   UNL     1       3.181   5.834  18.557  0.00  0.00    +0.000 A 
ENDBRANCH  16  19
ENDBRANCH  14  16
ENDBRANCH   2  14
TORSDOF 5
ENDMDL
MODEL 9
REMARK VINA RESULT:      -6.7      3.871      6.072
REMARK  Name = 
REMARK  6 active torsions:
REMARK  status: ('A' for Active; 'I' for Inactive)
REMARK    1  A    between atoms: C_1  and  N_2
REMARK    2  A    between atoms: N_2  and  N_3
REMARK    3  A    between atoms: N_2  and  C_14
REMARK    4  A    between atoms: N_3  and  S_4
REMARK    5  A    between atoms: S_4  and  C_7
REMARK    6  A    between atoms: C_17  and  C_18
REMARK                            x       y       z     vdW  Elec       q    Type
REMARK                         _______ _______ _______ _____ _____    ______ ____
ROOT
ATOM      1  C   UNL     1       2.229   4.747  20.947  0.00  0.00    +0.000 C 
ATOM      2  N   UNL     1       2.737   5.635  19.898  0.00  0.00    +0.000 N 
ENDROOT
BRANCH   2   3
ATOM      3  C   UNL     1       2.142   6.921  19.856  0.00  0.00    +0.000 A 
ATOM      4  N   UNL     1       1.381   7.305  20.923  0.00  0.00    +0.000 NA
ATOM      5  C   UNL     1       0.814   8.537  20.942  0.00  0.00    +0.000 A 
ATOM      6  C   UNL     1       0.978   9.475  19.940  0.00  0.00    +0.000 A 
ATOM      7  C   UNL     1       1.752   9.097  18.846  0.00  0.00    +0.000 A 
ATOM      8  C   UNL     1       2.329   7.819  18.789  0.00  0.00    +0.000 A 
ATOM      9 CL   UNL     1       3.272   7.478  17.376  0.00  0.00    +0.000 Cl
BRANCH   6  10
ATOM     10  C   UNL     1       0.360  10.835  20.036  0.00  0.00    +0.000 C 
ATOM     11  F   UNL     1       0.822  11.574  21.082  0.00  0.00    +0.000 F 
ATOM     12  F   UNL     1       0.583  11.581  18.923  0.00  0.00    +0.000 F 
ATOM     13  F   UNL     1      -0.992  10.779  20.186  0.00  0.00    +0.000 F 
ENDBRANCH   6  10
ENDBRANCH   2   3
BRANCH   2  14
ATOM     14  N   UNL     1       3.458   4.981  18.751  0.00  0.00    +0.000 NA
ATOM     15  H   UNL     1       3.340   5.450  17.850  0.00  0.00    +0.000 HD
BRANCH  14  16
ATOM     16  S   UNL     1       5.090   4.473  18.968  0.00  0.00    +0.000 S 
ATOM     17  O   UNL     1       5.762   5.466  19.783  0.00  0.00    +0.000 OA
ATOM     18  O   UNL     1       5.122   3.064  19.292  0.00  0.00    +0.000 OA
BRANCH  16  19
ATOM     19  C   UNL     1       5.685   4.653  17.298  0.00  0.00    +0.000 A 
ATOM     20  C   UNL     1       5.160   3.857  16.272  0.00  0.00    +0.000 A 
ATOM     21  C   UNL     1       5.700   3.956  14.987  0.00  0.00    +0.000 A 
ATOM     22  C   UNL     1       6.739   4.851  14.735  0.00  0.00    +0.000 A 
ATOM     23 CL   UNL     1       7.442   4.922  13.165  0.00  0.00    +0.000 Cl
ATOM     24  C   UNL     1       7.228   5.677  15.747  0.00  0.00    +0.000 A 
ATOM     25  C   UNL     1       6.693   5.586  17.035  0.00  0.00    +0.000 A 
ENDBRANCH  16  19
ENDBRANCH  14  16
ENDBRANCH   2  14
TORSDOF 5
ENDMDL
