MODEL 1
REMARK VINA RESULT:      -9.4      0.000      0.000
REMARK  Name = 
REMARK  5 active torsions:
REMARK  status: ('A' for Active; 'I' for Inactive)
REMARK    1  A    between atoms: C_1  and  S_2
REMARK    2  A    between atoms: S_2  and  C_5
REMARK    3  A    between atoms: C_8  and  C_9
REMARK    4  A    between atoms: N_16  and  C_17
REMARK    5  A    between atoms: C_21  and  C_22
REMARK                            x       y       z     vdW  Elec       q    Type
REMARK                         _______ _______ _______ _____ _____    ______ ____
ROOT
ATOM      1  C   UNL     1      -0.677  12.352  18.750  0.00  0.00    +0.000 A 
ATOM      2  C   UNL     1      -0.158  13.602  18.814  0.00  0.00    +0.000 A 
ATOM      3  C   UNL     1       1.269  13.857  18.692  0.00  0.00    +0.000 A 
ATOM      4  C   UNL     1       2.098  12.818  18.525  0.00  0.00    +0.000 A 
ATOM      5  N   UNL     1       1.580  11.525  18.446  0.00  0.00    +0.000 N 
ATOM      6  N   UNL     1       2.259  10.376  18.286  0.00  0.00    +0.000 NA
ATOM      7  C   UNL     1       1.293   9.457  18.229  0.00  0.00    +0.000 A 
ATOM      8  N   UNL     1       1.417   8.126  18.061  0.00  0.00    +0.000 N 
ATOM      9  N   UNL     1       0.025   9.956  18.350  0.00  0.00    +0.000 NA
ATOM     10  C   UNL     1       0.215  11.250  18.524  0.00  0.00    +0.000 A 
ATOM     11  H   UNL     1       0.534   7.641  17.956  0.00  0.00    +0.000 HD
ENDROOT
BRANCH   1  15
ATOM     12  C   UNL     1      -4.894  11.968  19.272  0.00  0.00    +0.000 A 
ATOM     13  C   UNL     1      -4.289  11.455  18.122  0.00  0.00    +0.000 A 
ATOM     14  C   UNL     1      -2.907  11.578  17.957  0.00  0.00    +0.000 A 
ATOM     15  C   UNL     1      -2.134  12.218  18.934  0.00  0.00    +0.000 A 
ATOM     16  C   UNL     1      -2.758  12.756  20.069  0.00  0.00    +0.000 A 
ATOM     17  C   UNL     1      -4.141  12.636  20.240  0.00  0.00    +0.000 A 
BRANCH  12  19
ATOM     18  C   UNL     1      -7.145  13.386  20.065  0.00  0.00    +0.000 C 
ATOM     19  S   UNL     1      -6.646  11.782  19.495  0.00  0.00    +0.000 S 
ATOM     20  O   UNL     1      -6.854  10.834  20.573  0.00  0.00    +0.000 OA
ATOM     21  O   UNL     1      -7.233  11.561  18.187  0.00  0.00    +0.000 OA
ENDBRANCH  12  19
ENDBRANCH   1  15
BRANCH   8  22
ATOM     22  C   UNL     1       2.482   7.258  18.373  0.00  0.00    +0.000 A 
ATOM     23  C   UNL     1       2.462   6.373  19.454  0.00  0.00    +0.000 A 
ATOM     24  C   UNL     1       3.528   5.499  19.688  0.00  0.00    +0.000 A 
ATOM     25  C   UNL     1       4.649   5.500  18.853  0.00  0.00    +0.000 A 
ATOM     26  C   UNL     1       4.732   6.393  17.781  0.00  0.00    +0.000 A 
ATOM     27  C   UNL     1       3.647   7.282  17.583  0.00  0.00    +0.000 A 
BRANCH  26  28
ATOM     28  C   UNL     1       5.862   6.400  16.753  0.00  0.00    +0.000 C 
ATOM     29  C   UNL     1       5.750   5.474  15.522  0.00  0.00    +0.000 C 
ATOM     30  C   UNL     1       6.296   4.060  15.738  0.00  0.00    +0.000 C 
ATOM     31  N   UNL     1       7.632   4.054  16.330  0.00  0.00    +0.000 NA
ATOM     32  C   UNL     1       7.630   4.780  17.600  0.00  0.00    +0.000 C 
ATOM     33  C   UNL     1       7.256   6.243  17.389  0.00  0.00    +0.000 C 
ATOM     34  H   UNL     1       8.290   4.501  15.690  0.00  0.00    +0.000 HD
ENDBRANCH  26  28
ENDBRANCH   8  22
TORSDOF 4
ENDMDL
MODEL 2
REMARK VINA RESULT:      -9.3      0.691      1.214
REMARK  Name = 
REMARK  5 active torsions:
REMARK  status: ('A' for Active; 'I' for Inactive)
REMARK    1  A    between atoms: C_1  and  S_2
REMARK    2  A    between atoms: S_2  and  C_5
REMARK    3  A    between atoms: C_8  and  C_9
REMARK    4  A    between atoms: N_16  and  C_17
REMARK    5  A    between atoms: C_21  and  C_22
REMARK                            x       y       z     vdW  Elec       q    Type
REMARK                         _______ _______ _______ _____ _____    ______ ____
ROOT
ATOM      1  C   UNL     1      -0.531  12.470  18.831  0.00  0.00    +0.000 A 
ATOM      2  C   UNL     1       0.023  13.707  18.851  0.00  0.00    +0.000 A 
ATOM      3  C   UNL     1       1.448  13.922  18.660  0.00  0.00    +0.000 A 
ATOM      4  C   UNL     1       2.243  12.859  18.476  0.00  0.00    +0.000 A 
ATOM      5  N   UNL     1       1.688  11.579  18.442  0.00  0.00    +0.000 N 
ATOM      6  N   UNL     1       2.330  10.409  18.273  0.00  0.00    +0.000 NA
ATOM      7  C   UNL     1       1.339   9.516  18.276  0.00  0.00    +0.000 A 
ATOM      8  N   UNL     1       1.421   8.179  18.126  0.00  0.00    +0.000 N 
ATOM      9  N   UNL     1       0.091  10.050  18.444  0.00  0.00    +0.000 NA
ATOM     10  C   UNL     1       0.322  11.341  18.586  0.00  0.00    +0.000 A 
ATOM     11  H   UNL     1       0.522   7.716  18.069  0.00  0.00    +0.000 HD
ENDROOT
BRANCH   1  15
ATOM     12  C   UNL     1      -4.724  12.200  19.568  0.00  0.00    +0.000 A 
ATOM     13  C   UNL     1      -3.893  12.803  20.514  0.00  0.00    +0.000 A 
ATOM     14  C   UNL     1      -2.521  12.895  20.267  0.00  0.00    +0.000 A 
ATOM     15  C   UNL     1      -1.980  12.378  19.082  0.00  0.00    +0.000 A 
ATOM     16  C   UNL     1      -2.823  11.748  18.155  0.00  0.00    +0.000 A 
ATOM     17  C   UNL     1      -4.197  11.652  18.396  0.00  0.00    +0.000 A 
BRANCH  12  19
ATOM     18  C   UNL     1      -7.096  11.379  18.379  0.00  0.00    +0.000 C 
ATOM     19  S   UNL     1      -6.472  12.114  19.869  0.00  0.00    +0.000 S 
ATOM     20  O   UNL     1      -6.973  13.474  19.947  0.00  0.00    +0.000 OA
ATOM     21  O   UNL     1      -6.683  11.181  20.959  0.00  0.00    +0.000 OA
ENDBRANCH  12  19
ENDBRANCH   1  15
BRANCH   8  22
ATOM     22  C   UNL     1       2.476   7.289  18.406  0.00  0.00    +0.000 A 
ATOM     23  C   UNL     1       2.465   6.395  19.480  0.00  0.00    +0.000 A 
ATOM     24  C   UNL     1       3.519   5.499  19.682  0.00  0.00    +0.000 A 
ATOM     25  C   UNL     1       4.620   5.487  18.821  0.00  0.00    +0.000 A 
ATOM     26  C   UNL     1       4.695   6.387  17.754  0.00  0.00    +0.000 A 
ATOM     27  C   UNL     1       3.623   7.298  17.589  0.00  0.00    +0.000 A 
BRANCH  26  28
ATOM     28  C   UNL     1       5.801   6.382  16.700  0.00  0.00    +0.000 C 
ATOM     29  C   UNL     1       5.683   5.407  15.507  0.00  0.00    +0.000 C 
ATOM     30  C   UNL     1       6.268   4.016  15.762  0.00  0.00    +0.000 C 
ATOM     31  N   UNL     1       7.616   4.063  16.322  0.00  0.00    +0.000 NA
ATOM     32  C   UNL     1       7.626   4.836  17.565  0.00  0.00    +0.000 C 
ATOM     33  C   UNL     1       7.212   6.280  17.308  0.00  0.00    +0.000 C 
ATOM     34  H   UNL     1       8.249   4.500  15.651  0.00  0.00    +0.000 HD
ENDBRANCH  26  28
ENDBRANCH   8  22
TORSDOF 4
ENDMDL
MODEL 3
REMARK VINA RESULT:      -9.2      2.445      3.394
REMARK  Name = 
REMARK  5 active torsions:
REMARK  status: ('A' for Active; 'I' for Inactive)
REMARK    1  A    between atoms: C_1  and  S_2
REMARK    2  A    between atoms: S_2  and  C_5
REMARK    3  A    between atoms: C_8  and  C_9
REMARK    4  A    between atoms: N_16  and  C_17
REMARK    5  A    between atoms: C_21  and  C_22
REMARK                            x       y       z     vdW  Elec       q    Type
REMARK                         _______ _______ _______ _____ _____    ______ ____
ROOT
ATOM      1  C   UNL     1       0.167  12.831  19.767  0.00  0.00    +0.000 A 
ATOM      2  C   UNL     1       0.723  14.036  19.490  0.00  0.00    +0.000 A 
ATOM      3  C   UNL     1       1.917  14.170  18.671  0.00  0.00    +0.000 A 
ATOM      4  C   UNL     1       2.497  13.062  18.189  0.00  0.00    +0.000 A 
ATOM      5  N   UNL     1       1.932  11.814  18.455  0.00  0.00    +0.000 N 
ATOM      6  N   UNL     1       2.378  10.609  18.058  0.00  0.00    +0.000 NA
ATOM      7  C   UNL     1       1.457   9.772  18.538  0.00  0.00    +0.000 A 
ATOM      8  N   UNL     1       1.405   8.430  18.416  0.00  0.00    +0.000 N 
ATOM      9  N   UNL     1       0.443  10.375  19.230  0.00  0.00    +0.000 NA
ATOM     10  C   UNL     1       0.768  11.654  19.206  0.00  0.00    +0.000 A 
ATOM     11  H   UNL     1       0.558   8.017  18.787  0.00  0.00    +0.000 HD
ENDROOT
BRANCH   1  15
ATOM     12  C   UNL     1      -3.262  12.814  22.304  0.00  0.00    +0.000 A 
ATOM     13  C   UNL     1      -3.422  12.968  20.925  0.00  0.00    +0.000 A 
ATOM     14  C   UNL     1      -2.297  12.967  20.097  0.00  0.00    +0.000 A 
ATOM     15  C   UNL     1      -1.017  12.822  20.645  0.00  0.00    +0.000 A 
ATOM     16  C   UNL     1      -0.869  12.699  22.035  0.00  0.00    +0.000 A 
ATOM     17  C   UNL     1      -1.990  12.699  22.869  0.00  0.00    +0.000 A 
BRANCH  12  19
ATOM     18  C   UNL     1      -4.909  14.489  23.785  0.00  0.00    +0.000 C 
ATOM     19  S   UNL     1      -4.696  12.781  23.352  0.00  0.00    +0.000 S 
ATOM     20  O   UNL     1      -4.345  12.050  24.555  0.00  0.00    +0.000 OA
ATOM     21  O   UNL     1      -5.824  12.375  22.537  0.00  0.00    +0.000 OA
ENDBRANCH  12  19
ENDBRANCH   1  15
BRANCH   8  22
ATOM     22  C   UNL     1       2.433   7.487  18.225  0.00  0.00    +0.000 A 
ATOM     23  C   UNL     1       3.546   7.717  17.411  0.00  0.00    +0.000 A 
ATOM     24  C   UNL     1       4.562   6.762  17.296  0.00  0.00    +0.000 A 
ATOM     25  C   UNL     1       4.480   5.547  17.980  0.00  0.00    +0.000 A 
ATOM     26  C   UNL     1       3.369   5.256  18.777  0.00  0.00    +0.000 A 
ATOM     27  C   UNL     1       2.346   6.232  18.855  0.00  0.00    +0.000 A 
BRANCH  26  28
ATOM     28  C   UNL     1       3.236   4.006  19.645  0.00  0.00    +0.000 C 
ATOM     29  C   UNL     1       4.079   2.761  19.285  0.00  0.00    +0.000 C 
ATOM     30  C   UNL     1       3.423   1.819  18.273  0.00  0.00    +0.000 C 
ATOM     31  N   UNL     1       2.043   1.487  18.621  0.00  0.00    +0.000 NA
ATOM     32  C   UNL     1       1.242   2.705  18.751  0.00  0.00    +0.000 C 
ATOM     33  C   UNL     1       1.773   3.585  19.877  0.00  0.00    +0.000 C 
ATOM     34  H   UNL     1       2.028   0.980  19.507  0.00  0.00    +0.000 HD
ENDBRANCH  26  28
ENDBRANCH   8  22
TORSDOF 4
ENDMDL
MODEL 4
REMARK VINA RESULT:      -9.1      1.826      2.931
REMARK  Name = 
REMARK  5 active torsions:
REMARK  status: ('A' for Active; 'I' for Inactive)
REMARK    1  A    between atoms: C_1  and  S_2
REMARK    2  A    between atoms: S_2  and  C_5
REMARK    3  A    between atoms: C_8  and  C_9
REMARK    4  A    between atoms: N_16  and  C_17
REMARK    5  A    between atoms: C_21  and  C_22
REMARK                            x       y       z     vdW  Elec       q    Type
REMARK                         _______ _______ _______ _____ _____    ______ ____
ROOT
ATOM      1  C   UNL     1      -0.644  12.293  18.808  0.00  0.00    +0.000 A 
ATOM      2  C   UNL     1      -0.138  13.518  19.088  0.00  0.00    +0.000 A 
ATOM      3  C   UNL     1       1.292  13.782  19.102  0.00  0.00    +0.000 A 
ATOM      4  C   UNL     1       2.137  12.775  18.845  0.00  0.00    +0.000 A 
ATOM      5  N   UNL     1       1.633  11.509  18.543  0.00  0.00    +0.000 N 
ATOM      6  N   UNL     1       2.328  10.392  18.266  0.00  0.00    +0.000 NA
ATOM      7  C   UNL     1       1.374   9.496  18.011  0.00  0.00    +0.000 A 
ATOM      8  N   UNL     1       1.517   8.202  17.660  0.00  0.00    +0.000 N 
ATOM      9  N   UNL     1       0.097   9.977  18.115  0.00  0.00    +0.000 NA
ATOM     10  C   UNL     1       0.268  11.231  18.487  0.00  0.00    +0.000 A 
ATOM     11  H   UNL     1       0.646   7.741  17.426  0.00  0.00    +0.000 HD
ENDROOT
BRANCH   1  15
ATOM     12  C   UNL     1      -4.884  11.855  18.977  0.00  0.00    +0.000 A 
ATOM     13  C   UNL     1      -4.187  11.414  17.850  0.00  0.00    +0.000 A 
ATOM     14  C   UNL     1      -2.799  11.554  17.800  0.00  0.00    +0.000 A 
ATOM     15  C   UNL     1      -2.109  12.140  18.870  0.00  0.00    +0.000 A 
ATOM     16  C   UNL     1      -2.826  12.606  19.982  0.00  0.00    +0.000 A 
ATOM     17  C   UNL     1      -4.216  12.469  20.038  0.00  0.00    +0.000 A 
BRANCH  12  19
ATOM     18  C   UNL     1      -6.832   9.886  19.184  0.00  0.00    +0.000 C 
ATOM     19  S   UNL     1      -6.647  11.645  19.052  0.00  0.00    +0.000 S 
ATOM     20  O   UNL     1      -7.194  12.064  17.775  0.00  0.00    +0.000 OA
ATOM     21  O   UNL     1      -7.106  12.244  20.290  0.00  0.00    +0.000 OA
ENDBRANCH  12  19
ENDBRANCH   1  15
BRANCH   8  22
ATOM     22  C   UNL     1       2.563   7.294  17.916  0.00  0.00    +0.000 A 
ATOM     23  C   UNL     1       3.876   7.492  17.484  0.00  0.00    +0.000 A 
ATOM     24  C   UNL     1       4.885   6.579  17.808  0.00  0.00    +0.000 A 
ATOM     25  C   UNL     1       4.600   5.437  18.560  0.00  0.00    +0.000 A 
ATOM     26  C   UNL     1       3.294   5.176  18.984  0.00  0.00    +0.000 A 
ATOM     27  C   UNL     1       2.289   6.107  18.620  0.00  0.00    +0.000 A 
BRANCH  26  28
ATOM     28  C   UNL     1       2.900   4.015  19.896  0.00  0.00    +0.000 C 
ATOM     29  C   UNL     1       3.690   2.691  19.792  0.00  0.00    +0.000 C 
ATOM     30  C   UNL     1       3.158   1.714  18.741  0.00  0.00    +0.000 C 
ATOM     31  N   UNL     1       1.715   1.506  18.842  0.00  0.00    +0.000 NA
ATOM     32  C   UNL     1       1.006   2.781  18.731  0.00  0.00    +0.000 C 
ATOM     33  C   UNL     1       1.390   3.716  19.873  0.00  0.00    +0.000 C 
ATOM     34  H   UNL     1       1.495   1.077  19.742  0.00  0.00    +0.000 HD
ENDBRANCH  26  28
ENDBRANCH   8  22
TORSDOF 4
ENDMDL
MODEL 5
REMARK VINA RESULT:      -9.1      1.775      2.940
REMARK  Name = 
REMARK  5 active torsions:
REMARK  status: ('A' for Active; 'I' for Inactive)
REMARK    1  A    between atoms: C_1  and  S_2
REMARK    2  A    between atoms: S_2  and  C_5
REMARK    3  A    between atoms: C_8  and  C_9
REMARK    4  A    between atoms: N_16  and  C_17
REMARK    5  A    between atoms: C_21  and  C_22
REMARK                            x       y       z     vdW  Elec       q    Type
REMARK                         _______ _______ _______ _____ _____    ______ ____
ROOT
ATOM      1  C   UNL     1      -0.755  12.302  18.898  0.00  0.00    +0.000 A 
ATOM      2  C   UNL     1      -0.265  13.519  19.236  0.00  0.00    +0.000 A 
ATOM      3  C   UNL     1       1.162  13.794  19.286  0.00  0.00    +0.000 A 
ATOM      4  C   UNL     1       2.021  12.804  19.006  0.00  0.00    +0.000 A 
ATOM      5  N   UNL     1       1.533  11.548  18.645  0.00  0.00    +0.000 N 
ATOM      6  N   UNL     1       2.244  10.448  18.338  0.00  0.00    +0.000 NA
ATOM      7  C   UNL     1       1.302   9.555  18.029  0.00  0.00    +0.000 A 
ATOM      8  N   UNL     1       1.463   8.277  17.631  0.00  0.00    +0.000 N 
ATOM      9  N   UNL     1       0.019  10.021  18.129  0.00  0.00    +0.000 NA
ATOM     10  C   UNL     1       0.172  11.261  18.553  0.00  0.00    +0.000 A 
ATOM     11  H   UNL     1       0.600   7.819  17.363  0.00  0.00    +0.000 HD
ENDROOT
BRANCH   1  15
ATOM     12  C   UNL     1      -4.992  11.815  18.992  0.00  0.00    +0.000 A 
ATOM     13  C   UNL     1      -4.342  12.429  20.065  0.00  0.00    +0.000 A 
ATOM     14  C   UNL     1      -2.955  12.592  20.028  0.00  0.00    +0.000 A 
ATOM     15  C   UNL     1      -2.220  12.135  18.927  0.00  0.00    +0.000 A 
ATOM     16  C   UNL     1      -2.882  11.493  17.870  0.00  0.00    +0.000 A 
ATOM     17  C   UNL     1      -4.270  11.327  17.901  0.00  0.00    +0.000 A 
BRANCH  12  19
ATOM     18  C   UNL     1      -7.140  11.792  20.752  0.00  0.00    +0.000 C 
ATOM     19  S   UNL     1      -6.759  11.638  19.026  0.00  0.00    +0.000 S 
ATOM     20  O   UNL     1      -7.074  10.284  18.611  0.00  0.00    +0.000 OA
ATOM     21  O   UNL     1      -7.326  12.779  18.332  0.00  0.00    +0.000 OA
ENDBRANCH  12  19
ENDBRANCH   1  15
BRANCH   8  22
ATOM     22  C   UNL     1       2.512   7.368  17.870  0.00  0.00    +0.000 A 
ATOM     23  C   UNL     1       3.814   7.554  17.399  0.00  0.00    +0.000 A 
ATOM     24  C   UNL     1       4.828   6.642  17.708  0.00  0.00    +0.000 A 
ATOM     25  C   UNL     1       4.559   5.511  18.484  0.00  0.00    +0.000 A 
ATOM     26  C   UNL     1       3.264   5.262  18.947  0.00  0.00    +0.000 A 
ATOM     27  C   UNL     1       2.253   6.192  18.598  0.00  0.00    +0.000 A 
BRANCH  26  28
ATOM     28  C   UNL     1       2.892   4.116  19.885  0.00  0.00    +0.000 C 
ATOM     29  C   UNL     1       3.730   2.819  19.840  0.00  0.00    +0.000 C 
ATOM     30  C   UNL     1       3.257   1.791  18.808  0.00  0.00    +0.000 C 
ATOM     31  N   UNL     1       1.820   1.534  18.884  0.00  0.00    +0.000 NA
ATOM     32  C   UNL     1       1.070   2.779  18.719  0.00  0.00    +0.000 C 
ATOM     33  C   UNL     1       1.394   3.761  19.839  0.00  0.00    +0.000 C 
ATOM     34  H   UNL     1       1.595   1.125  19.792  0.00  0.00    +0.000 HD
ENDBRANCH  26  28
ENDBRANCH   8  22
TORSDOF 4
ENDMDL
MODEL 6
REMARK VINA RESULT:      -9.0      2.705      3.656
REMARK  Name = 
REMARK  5 active torsions:
REMARK  status: ('A' for Active; 'I' for Inactive)
REMARK    1  A    between atoms: C_1  and  S_2
REMARK    2  A    between atoms: S_2  and  C_5
REMARK    3  A    between atoms: C_8  and  C_9
REMARK    4  A    between atoms: N_16  and  C_17
REMARK    5  A    between atoms: C_21  and  C_22
REMARK                            x       y       z     vdW  Elec       q    Type
REMARK                         _______ _______ _______ _____ _____    ______ ____
ROOT
ATOM      1  C   UNL     1       0.265  12.968  19.827  0.00  0.00    +0.000 A 
ATOM      2  C   UNL     1       0.827  14.157  19.503  0.00  0.00    +0.000 A 
ATOM      3  C   UNL     1       1.987  14.255  18.631  0.00  0.00    +0.000 A 
ATOM      4  C   UNL     1       2.527  13.129  18.145  0.00  0.00    +0.000 A 
ATOM      5  N   UNL     1       1.954  11.897  18.459  0.00  0.00    +0.000 N 
ATOM      6  N   UNL     1       2.363  10.677  18.067  0.00  0.00    +0.000 NA
ATOM      7  C   UNL     1       1.450   9.865  18.603  0.00  0.00    +0.000 A 
ATOM      8  N   UNL     1       1.371   8.522  18.509  0.00  0.00    +0.000 N 
ATOM      9  N   UNL     1       0.477  10.498  19.326  0.00  0.00    +0.000 NA
ATOM     10  C   UNL     1       0.822  11.770  19.263  0.00  0.00    +0.000 A 
ATOM     11  H   UNL     1       0.534   8.130  18.923  0.00  0.00    +0.000 HD
ENDROOT
BRANCH   1  15
ATOM     12  C   UNL     1      -3.042  13.037  22.521  0.00  0.00    +0.000 A 
ATOM     13  C   UNL     1      -1.773  12.692  22.991  0.00  0.00    +0.000 A 
ATOM     14  C   UNL     1      -0.692  12.676  22.108  0.00  0.00    +0.000 A 
ATOM     15  C   UNL     1      -0.879  12.995  20.756  0.00  0.00    +0.000 A 
ATOM     16  C   UNL     1      -2.164  13.309  20.292  0.00  0.00    +0.000 A 
ATOM     17  C   UNL     1      -3.251  13.327  21.171  0.00  0.00    +0.000 A 
BRANCH  12  19
ATOM     18  C   UNL     1      -5.817  12.951  22.581  0.00  0.00    +0.000 C 
ATOM     19  S   UNL     1      -4.410  13.089  23.653  0.00  0.00    +0.000 S 
ATOM     20  O   UNL     1      -4.429  14.407  24.259  0.00  0.00    +0.000 OA
ATOM     21  O   UNL     1      -4.345  11.894  24.473  0.00  0.00    +0.000 OA
ENDBRANCH  12  19
ENDBRANCH   1  15
BRANCH   8  22
ATOM     22  C   UNL     1       2.375   7.558  18.291  0.00  0.00    +0.000 A 
ATOM     23  C   UNL     1       3.469   7.764  17.447  0.00  0.00    +0.000 A 
ATOM     24  C   UNL     1       4.462   6.789  17.306  0.00  0.00    +0.000 A 
ATOM     25  C   UNL     1       4.375   5.576  17.994  0.00  0.00    +0.000 A 
ATOM     26  C   UNL     1       3.280   5.309  18.820  0.00  0.00    +0.000 A 
ATOM     27  C   UNL     1       2.279   6.306  18.925  0.00  0.00    +0.000 A 
BRANCH  26  28
ATOM     28  C   UNL     1       3.145   4.062  19.693  0.00  0.00    +0.000 C 
ATOM     29  C   UNL     1       3.982   2.813  19.336  0.00  0.00    +0.000 C 
ATOM     30  C   UNL     1       3.319   1.870  18.328  0.00  0.00    +0.000 C 
ATOM     31  N   UNL     1       1.939   1.545  18.682  0.00  0.00    +0.000 NA
ATOM     32  C   UNL     1       1.143   2.765  18.811  0.00  0.00    +0.000 C 
ATOM     33  C   UNL     1       1.681   3.648  19.931  0.00  0.00    +0.000 C 
ATOM     34  H   UNL     1       1.925   1.040  19.570  0.00  0.00    +0.000 HD
ENDBRANCH  26  28
ENDBRANCH   8  22
TORSDOF 4
ENDMDL
MODEL 7
REMARK VINA RESULT:      -8.8      2.522      3.682
REMARK  Name = 
REMARK  5 active torsions:
REMARK  status: ('A' for Active; 'I' for Inactive)
REMARK    1  A    between atoms: C_1  and  S_2
REMARK    2  A    between atoms: S_2  and  C_5
REMARK    3  A    between atoms: C_8  and  C_9
REMARK    4  A    between atoms: N_16  and  C_17
REMARK    5  A    between atoms: C_21  and  C_22
REMARK                            x       y       z     vdW  Elec       q    Type
REMARK                         _______ _______ _______ _____ _____    ______ ____
ROOT
ATOM      1  C   UNL     1       0.521  12.530  19.494  0.00  0.00    +0.000 A 
ATOM      2  C   UNL     1       1.116  13.709  19.190  0.00  0.00    +0.000 A 
ATOM      3  C   UNL     1       2.287  13.788  18.332  0.00  0.00    +0.000 A 
ATOM      4  C   UNL     1       2.805  12.655  17.839  0.00  0.00    +0.000 A 
ATOM      5  N   UNL     1       2.198  11.433  18.133  0.00  0.00    +0.000 N 
ATOM      6  N   UNL     1       2.581  10.208  17.731  0.00  0.00    +0.000 NA
ATOM      7  C   UNL     1       1.643   9.412  18.248  0.00  0.00    +0.000 A 
ATOM      8  N   UNL     1       1.533   8.073  18.138  0.00  0.00    +0.000 N 
ATOM      9  N   UNL     1       0.678  10.061  18.968  0.00  0.00    +0.000 NA
ATOM     10  C   UNL     1       1.055  11.325  18.923  0.00  0.00    +0.000 A 
ATOM     11  H   UNL     1       0.682   7.697  18.539  0.00  0.00    +0.000 HD
ENDROOT
BRANCH   1  15
ATOM     12  C   UNL     1      -2.811  12.653  22.154  0.00  0.00    +0.000 A 
ATOM     13  C   UNL     1      -1.514  12.621  22.671  0.00  0.00    +0.000 A 
ATOM     14  C   UNL     1      -0.425  12.587  21.797  0.00  0.00    +0.000 A 
ATOM     15  C   UNL     1      -0.632  12.575  20.411  0.00  0.00    +0.000 A 
ATOM     16  C   UNL     1      -1.941  12.577  19.907  0.00  0.00    +0.000 A 
ATOM     17  C   UNL     1      -3.035  12.611  20.777  0.00  0.00    +0.000 A 
BRANCH  12  19
ATOM     18  C   UNL     1      -4.100  14.385  23.901  0.00  0.00    +0.000 C 
ATOM     19  S   UNL     1      -4.194  12.730  23.267  0.00  0.00    +0.000 S 
ATOM     20  O   UNL     1      -3.931  11.812  24.359  0.00  0.00    +0.000 OA
ATOM     21  O   UNL     1      -5.402  12.616  22.473  0.00  0.00    +0.000 OA
ENDBRANCH  12  19
ENDBRANCH   1  15
BRANCH   8  22
ATOM     22  C   UNL     1       2.515   7.087  17.920  0.00  0.00    +0.000 A 
ATOM     23  C   UNL     1       3.839   7.381  17.586  0.00  0.00    +0.000 A 
ATOM     24  C   UNL     1       4.784   6.362  17.428  0.00  0.00    +0.000 A 
ATOM     25  C   UNL     1       4.422   5.022  17.586  0.00  0.00    +0.000 A 
ATOM     26  C   UNL     1       3.101   4.676  17.884  0.00  0.00    +0.000 A 
ATOM     27  C   UNL     1       2.162   5.728  18.015  0.00  0.00    +0.000 A 
BRANCH  26  28
ATOM     28  C   UNL     1       2.630   3.253  18.180  0.00  0.00    +0.000 C 
ATOM     29  C   UNL     1       1.125   3.006  18.427  0.00  0.00    +0.000 C 
ATOM     30  C   UNL     1       0.683   3.184  19.882  0.00  0.00    +0.000 C 
ATOM     31  N   UNL     1       1.537   2.464  20.824  0.00  0.00    +0.000 NA
ATOM     32  C   UNL     1       2.929   2.889  20.679  0.00  0.00    +0.000 C 
ATOM     33  C   UNL     1       3.452   2.563  19.284  0.00  0.00    +0.000 C 
ATOM     34  H   UNL     1       1.471   1.461  20.645  0.00  0.00    +0.000 HD
ENDBRANCH  26  28
ENDBRANCH   8  22
TORSDOF 4
ENDMDL
MODEL 8
REMARK VINA RESULT:      -8.7      2.767      3.703
REMARK  Name = 
REMARK  5 active torsions:
REMARK  status: ('A' for Active; 'I' for Inactive)
REMARK    1  A    between atoms: C_1  and  S_2
REMARK    2  A    between atoms: S_2  and  C_5
REMARK    3  A    between atoms: C_8  and  C_9
REMARK    4  A    between atoms: N_16  and  C_17
REMARK    5  A    between atoms: C_21  and  C_22
REMARK                            x       y       z     vdW  Elec       q    Type
REMARK                         _______ _______ _______ _____ _____    ______ ____
ROOT
ATOM      1  C   UNL     1       0.549  12.739  19.612  0.00  0.00    +0.000 A 
ATOM      2  C   UNL     1       1.153  13.910  19.295  0.00  0.00    +0.000 A 
ATOM      3  C   UNL     1       2.297  13.976  18.401  0.00  0.00    +0.000 A 
ATOM      4  C   UNL     1       2.780  12.837  17.885  0.00  0.00    +0.000 A 
ATOM      5  N   UNL     1       2.163  11.623  18.192  0.00  0.00    +0.000 N 
ATOM      6  N   UNL     1       2.513  10.395  17.771  0.00  0.00    +0.000 NA
ATOM      7  C   UNL     1       1.580   9.611  18.313  0.00  0.00    +0.000 A 
ATOM      8  N   UNL     1       1.444   8.275  18.199  0.00  0.00    +0.000 N 
ATOM      9  N   UNL     1       0.648  10.271  19.067  0.00  0.00    +0.000 NA
ATOM     10  C   UNL     1       1.044  11.529  19.017  0.00  0.00    +0.000 A 
ATOM     11  H   UNL     1       0.600   7.910  18.625  0.00  0.00    +0.000 HD
ENDROOT
BRANCH   1  15
ATOM     12  C   UNL     1      -2.703  12.917  22.368  0.00  0.00    +0.000 A 
ATOM     13  C   UNL     1      -2.926  13.187  21.016  0.00  0.00    +0.000 A 
ATOM     14  C   UNL     1      -1.860  13.122  20.115  0.00  0.00    +0.000 A 
ATOM     15  C   UNL     1      -0.574  12.797  20.566  0.00  0.00    +0.000 A 
ATOM     16  C   UNL     1      -0.359  12.558  21.931  0.00  0.00    +0.000 A 
ATOM     17  C   UNL     1      -1.421  12.621  22.837  0.00  0.00    +0.000 A 
BRANCH  12  19
ATOM     18  C   UNL     1      -5.479  12.908  22.434  0.00  0.00    +0.000 C 
ATOM     19  S   UNL     1      -4.066  12.967  23.505  0.00  0.00    +0.000 S 
ATOM     20  O   UNL     1      -4.047  14.262  24.158  0.00  0.00    +0.000 OA
ATOM     21  O   UNL     1      -4.034  11.742  24.282  0.00  0.00    +0.000 OA
ENDBRANCH  12  19
ENDBRANCH   1  15
BRANCH   8  22
ATOM     22  C   UNL     1       2.402   7.275  17.944  0.00  0.00    +0.000 A 
ATOM     23  C   UNL     1       3.727   7.550  17.598  0.00  0.00    +0.000 A 
ATOM     24  C   UNL     1       4.649   6.516  17.403  0.00  0.00    +0.000 A 
ATOM     25  C   UNL     1       4.262   5.180  17.535  0.00  0.00    +0.000 A 
ATOM     26  C   UNL     1       2.938   4.854  17.844  0.00  0.00    +0.000 A 
ATOM     27  C   UNL     1       2.023   5.922  18.012  0.00  0.00    +0.000 A 
BRANCH  26  28
ATOM     28  C   UNL     1       2.442   3.434  18.112  0.00  0.00    +0.000 C 
ATOM     29  C   UNL     1       1.029   3.242  18.705  0.00  0.00    +0.000 C 
ATOM     30  C   UNL     1       0.970   3.280  20.235  0.00  0.00    +0.000 C 
ATOM     31  N   UNL     1       1.968   2.416  20.860  0.00  0.00    +0.000 NA
ATOM     32  C   UNL     1       3.312   2.779  20.410  0.00  0.00    +0.000 C 
ATOM     33  C   UNL     1       3.452   2.583  18.905  0.00  0.00    +0.000 C 
ATOM     34  H   UNL     1       1.782   1.444  20.610  0.00  0.00    +0.000 HD
ENDBRANCH  26  28
ENDBRANCH   8  22
TORSDOF 4
ENDMDL
MODEL 9
REMARK VINA RESULT:      -8.7      1.749      2.150
REMARK  Name = 
REMARK  5 active torsions:
REMARK  status: ('A' for Active; 'I' for Inactive)
REMARK    1  A    between atoms: C_1  and  S_2
REMARK    2  A    between atoms: S_2  and  C_5
REMARK    3  A    between atoms: C_8  and  C_9
REMARK    4  A    between atoms: N_16  and  C_17
REMARK    5  A    between atoms: C_21  and  C_22
REMARK                            x       y       z     vdW  Elec       q    Type
REMARK                         _______ _______ _______ _____ _____    ______ ____
ROOT
ATOM      1  C   UNL     1       0.104  12.666  19.640  0.00  0.00    +0.000 A 
ATOM      2  C   UNL     1       0.681  13.816  19.218  0.00  0.00    +0.000 A 
ATOM      3  C   UNL     1       1.900  13.828  18.426  0.00  0.00    +0.000 A 
ATOM      4  C   UNL     1       2.480  12.660  18.117  0.00  0.00    +0.000 A 
ATOM      5  N   UNL     1       1.893  11.465  18.534  0.00  0.00    +0.000 N 
ATOM      6  N   UNL     1       2.336  10.213  18.319  0.00  0.00    +0.000 NA
ATOM      7  C   UNL     1       1.392   9.457  18.881  0.00  0.00    +0.000 A 
ATOM      8  N   UNL     1       1.327   8.112  18.942  0.00  0.00    +0.000 N 
ATOM      9  N   UNL     1       0.365  10.157  19.453  0.00  0.00    +0.000 NA
ATOM     10  C   UNL     1       0.706  11.418  19.264  0.00  0.00    +0.000 A 
ATOM     11  H   UNL     1       0.465   7.759  19.340  0.00  0.00    +0.000 HD
ENDROOT
BRANCH   1  15
ATOM     12  C   UNL     1      -3.397  13.022  22.052  0.00  0.00    +0.000 A 
ATOM     13  C   UNL     1      -3.522  12.872  20.669  0.00  0.00    +0.000 A 
ATOM     14  C   UNL     1      -2.373  12.750  19.883  0.00  0.00    +0.000 A 
ATOM     15  C   UNL     1      -1.105  12.786  20.476  0.00  0.00    +0.000 A 
ATOM     16  C   UNL     1      -0.994  12.968  21.863  0.00  0.00    +0.000 A 
ATOM     17  C   UNL     1      -2.140  13.091  22.655  0.00  0.00    +0.000 A 
BRANCH  12  19
ATOM     18  C   UNL     1      -4.332  12.474  24.609  0.00  0.00    +0.000 C 
ATOM     19  S   UNL     1      -4.860  13.144  23.053  0.00  0.00    +0.000 S 
ATOM     20  O   UNL     1      -5.854  12.250  22.489  0.00  0.00    +0.000 OA
ATOM     21  O   UNL     1      -5.147  14.553  23.238  0.00  0.00    +0.000 OA
ENDBRANCH  12  19
ENDBRANCH   1  15
BRANCH   8  22
ATOM     22  C   UNL     1       2.350   7.143  18.912  0.00  0.00    +0.000 A 
ATOM     23  C   UNL     1       2.409   6.060  19.793  0.00  0.00    +0.000 A 
ATOM     24  C   UNL     1       3.422   5.101  19.686  0.00  0.00    +0.000 A 
ATOM     25  C   UNL     1       4.409   5.212  18.703  0.00  0.00    +0.000 A 
ATOM     26  C   UNL     1       4.413   6.297  17.823  0.00  0.00    +0.000 A 
ATOM     27  C   UNL     1       3.389   7.264  17.971  0.00  0.00    +0.000 A 
BRANCH  26  28
ATOM     28  C   UNL     1       5.383   6.452  16.653  0.00  0.00    +0.000 C 
ATOM     29  C   UNL     1       5.368   5.389  15.531  0.00  0.00    +0.000 C 
ATOM     30  C   UNL     1       6.269   4.180  15.789  0.00  0.00    +0.000 C 
ATOM     31  N   UNL     1       7.622   4.558  16.191  0.00  0.00    +0.000 NA
ATOM     32  C   UNL     1       7.582   5.405  17.384  0.00  0.00    +0.000 C 
ATOM     33  C   UNL     1       6.834   6.704  17.102  0.00  0.00    +0.000 C 
ATOM     34  H   UNL     1       8.072   5.070  15.431  0.00  0.00    +0.000 HD
ENDBRANCH  26  28
ENDBRANCH   8  22
TORSDOF 4
ENDMDL
