MODEL 1
REMARK VINA RESULT:      -8.8      0.000      0.000
REMARK  Name = 
REMARK  5 active torsions:
REMARK  status: ('A' for Active; 'I' for Inactive)
REMARK    1  A    between atoms: C_1  and  C_2
REMARK    2  A    between atoms: C_5  and  O_6
REMARK    3  A    between atoms: C_9  and  O_10
REMARK    4  A    between atoms: C_12  and  C_13
REMARK    5  A    between atoms: N_15  and  C_16
REMARK                            x       y       z     vdW  Elec       q    Type
REMARK                         _______ _______ _______ _____ _____    ______ ____
ROOT
ATOM      1  C   UNL     1       3.388   7.416  16.922  0.00  0.00    +0.000 C 
ATOM      2  C   UNL     1       2.633   7.938  18.093  0.00  0.00    +0.000 A 
ATOM      3  O   UNL     1       1.944   9.047  17.806  0.00  0.00    +0.000 OA
ATOM      4  C   UNL     1       1.250   9.368  18.907  0.00  0.00    +0.000 A 
ATOM      5  C   UNL     1       0.313  10.393  18.854  0.00  0.00    +0.000 A 
ATOM      6  C   UNL     1      -0.370  10.717  20.014  0.00  0.00    +0.000 A 
ATOM      7  C   UNL     1       0.014  10.107  21.211  0.00  0.00    +0.000 A 
ATOM      8  C   UNL     1       0.981   9.014  21.222  0.00  0.00    +0.000 A 
ATOM      9  C   UNL     1       1.573   8.559  19.996  0.00  0.00    +0.000 A 
ATOM     10  C   UNL     1       2.385   7.477  19.396  0.00  0.00    +0.000 A 
ATOM     11  C   UNL     1      -0.588  10.662  22.467  0.00  0.00    +0.000 C 
ATOM     12  O   UNL     1      -0.117  10.321  23.549  0.00  0.00    +0.000 OA
ATOM     13  C   UNL     1      -1.733  11.622  22.401  0.00  0.00    +0.000 A 
ATOM     14  C   UNL     1      -2.378  12.093  23.555  0.00  0.00    +0.000 A 
ATOM     15  C   UNL     1      -3.495  12.946  23.457  0.00  0.00    +0.000 A 
ATOM     16  C   UNL     1      -3.979  13.335  22.209  0.00  0.00    +0.000 A 
ATOM     17  C   UNL     1      -3.323  12.900  21.063  0.00  0.00    +0.000 A 
ATOM     18  C   UNL     1      -2.195  12.063  21.165  0.00  0.00    +0.000 A 
ATOM     19  C   UNL     1      -1.505  11.665  19.943  0.00  0.00    +0.000 C 
ATOM     20  O   UNL     1      -1.941  12.100  18.879  0.00  0.00    +0.000 OA
ENDROOT
BRANCH  10  21
ATOM     21  C   UNL     1       2.819   6.091  19.667  0.00  0.00    +0.000 C 
ATOM     22  O   UNL     1       4.023   5.900  19.869  0.00  0.00    +0.000 OA
ATOM     23  N   UNL     1       1.992   4.979  19.721  0.00  0.00    +0.000 N 
ATOM     24  H   UNL     1       0.988   5.086  19.774  0.00  0.00    +0.000 HD
BRANCH  23  25
ATOM     25  C   UNL     1       2.643   3.675  20.050  0.00  0.00    +0.000 C 
ATOM     26  C   UNL     1       3.934   3.392  19.282  0.00  0.00    +0.000 C 
ATOM     27  C   UNL     1       3.677   2.839  17.887  0.00  0.00    +0.000 C 
ATOM     28  C   UNL     1       2.699   1.665  17.889  0.00  0.00    +0.000 C 
ATOM     29  N   UNL     1       1.456   1.977  18.594  0.00  0.00    +0.000 NA
ATOM     30  C   UNL     1       1.711   2.434  19.968  0.00  0.00    +0.000 C 
ATOM     31  H   UNL     1       0.888   1.127  18.639  0.00  0.00    +0.000 HD
ENDBRANCH  23  25
ENDBRANCH  10  21
BRANCH   5  32
ATOM     32  O   UNL     1       0.090  11.021  17.660  0.00  0.00    +0.000 OA
ATOM     33  H   UNL     1      -0.842  10.863  17.422  0.00  0.00    +0.000 HD
ENDBRANCH   5  32
BRANCH   8  34
ATOM     34  O   UNL     1       1.374   8.447  22.413  0.00  0.00    +0.000 OA
ATOM     35  H   UNL     1       1.211   9.104  23.133  0.00  0.00    +0.000 HD
ENDBRANCH   8  34
TORSDOF 4
ENDMDL
MODEL 2
REMARK VINA RESULT:      -8.7      0.986      1.025
REMARK  Name = 
REMARK  5 active torsions:
REMARK  status: ('A' for Active; 'I' for Inactive)
REMARK    1  A    between atoms: C_1  and  C_2
REMARK    2  A    between atoms: C_5  and  O_6
REMARK    3  A    between atoms: C_9  and  O_10
REMARK    4  A    between atoms: C_12  and  C_13
REMARK    5  A    between atoms: N_15  and  C_16
REMARK                            x       y       z     vdW  Elec       q    Type
REMARK                         _______ _______ _______ _____ _____    ______ ____
ROOT
ATOM      1  C   UNL     1       3.460   6.774  17.679  0.00  0.00    +0.000 C 
ATOM      2  C   UNL     1       2.629   7.484  18.687  0.00  0.00    +0.000 A 
ATOM      3  O   UNL     1       2.306   8.724  18.304  0.00  0.00    +0.000 OA
ATOM      4  C   UNL     1       1.498   9.224  19.250  0.00  0.00    +0.000 A 
ATOM      5  C   UNL     1       0.871  10.446  19.042  0.00  0.00    +0.000 A 
ATOM      6  C   UNL     1       0.062  10.947  20.047  0.00  0.00    +0.000 A 
ATOM      7  C   UNL     1       0.029  10.282  21.276  0.00  0.00    +0.000 A 
ATOM      8  C   UNL     1       0.677   8.986  21.447  0.00  0.00    +0.000 A 
ATOM      9  C   UNL     1       1.381   8.378  20.353  0.00  0.00    +0.000 A 
ATOM     10  C   UNL     1       2.012   7.120  19.895  0.00  0.00    +0.000 A 
ATOM     11  C   UNL     1      -0.665  10.989  22.400  0.00  0.00    +0.000 C 
ATOM     12  O   UNL     1      -0.527  10.560  23.544  0.00  0.00    +0.000 OA
ATOM     13  C   UNL     1      -1.504  12.199  22.135  0.00  0.00    +0.000 A 
ATOM     14  C   UNL     1      -2.239  12.833  23.148  0.00  0.00    +0.000 A 
ATOM     15  C   UNL     1      -3.069  13.932  22.853  0.00  0.00    +0.000 A 
ATOM     16  C   UNL     1      -3.174  14.407  21.546  0.00  0.00    +0.000 A 
ATOM     17  C   UNL     1      -2.421  13.806  20.544  0.00  0.00    +0.000 A 
ATOM     18  C   UNL     1      -1.578  12.719  20.846  0.00  0.00    +0.000 A 
ATOM     19  C   UNL     1      -0.767  12.144  19.779  0.00  0.00    +0.000 C 
ATOM     20  O   UNL     1      -0.854  12.654  18.664  0.00  0.00    +0.000 OA
ENDROOT
BRANCH  10  21
ATOM     21  C   UNL     1       2.029   5.674  20.200  0.00  0.00    +0.000 C 
ATOM     22  O   UNL     1       2.209   5.342  21.377  0.00  0.00    +0.000 OA
ATOM     23  N   UNL     1       1.855   4.651  19.281  0.00  0.00    +0.000 N 
ATOM     24  H   UNL     1       1.500   4.845  18.354  0.00  0.00    +0.000 HD
BRANCH  23  25
ATOM     25  C   UNL     1       1.871   3.258  19.820  0.00  0.00    +0.000 C 
ATOM     26  C   UNL     1       3.212   2.813  20.406  0.00  0.00    +0.000 C 
ATOM     27  C   UNL     1       4.191   2.344  19.339  0.00  0.00    +0.000 C 
ATOM     28  C   UNL     1       3.577   1.325  18.381  0.00  0.00    +0.000 C 
ATOM     29  N   UNL     1       2.317   1.792  17.802  0.00  0.00    +0.000 NA
ATOM     30  C   UNL     1       1.348   2.167  18.843  0.00  0.00    +0.000 C 
ATOM     31  H   UNL     1       1.915   1.033  17.248  0.00  0.00    +0.000 HD
ENDBRANCH  23  25
ENDBRANCH  10  21
BRANCH   5  32
ATOM     32  O   UNL     1       1.060  11.090  17.850  0.00  0.00    +0.000 OA
ATOM     33  H   UNL     1       1.995  11.365  17.818  0.00  0.00    +0.000 HD
ENDBRANCH   5  32
BRANCH   8  34
ATOM     34  O   UNL     1       0.665   8.360  22.673  0.00  0.00    +0.000 OA
ATOM     35  H   UNL     1      -0.235   7.976  22.811  0.00  0.00    +0.000 HD
ENDBRANCH   8  34
TORSDOF 4
ENDMDL
MODEL 3
REMARK VINA RESULT:      -8.5      2.910      8.924
REMARK  Name = 
REMARK  5 active torsions:
REMARK  status: ('A' for Active; 'I' for Inactive)
REMARK    1  A    between atoms: C_1  and  C_2
REMARK    2  A    between atoms: C_5  and  O_6
REMARK    3  A    between atoms: C_9  and  O_10
REMARK    4  A    between atoms: C_12  and  C_13
REMARK    5  A    between atoms: N_15  and  C_16
REMARK                            x       y       z     vdW  Elec       q    Type
REMARK                         _______ _______ _______ _____ _____    ______ ____
ROOT
ATOM      1  C   UNL     1      -0.390   9.254  22.510  0.00  0.00    +0.000 C 
ATOM      2  C   UNL     1       0.436   8.890  21.328  0.00  0.00    +0.000 A 
ATOM      3  O   UNL     1       1.111   7.749  21.507  0.00  0.00    +0.000 OA
ATOM      4  C   UNL     1       1.747   7.490  20.355  0.00  0.00    +0.000 A 
ATOM      5  C   UNL     1       2.403   6.276  20.190  0.00  0.00    +0.000 A 
ATOM      6  C   UNL     1       3.070   6.049  18.999  0.00  0.00    +0.000 A 
ATOM      7  C   UNL     1       3.181   7.096  18.081  0.00  0.00    +0.000 A 
ATOM      8  C   UNL     1       2.452   8.346  18.276  0.00  0.00    +0.000 A 
ATOM      9  C   UNL     1       1.622   8.528  19.432  0.00  0.00    +0.000 A 
ATOM     10  C   UNL     1       0.588   9.402  20.030  0.00  0.00    +0.000 A 
ATOM     11  C   UNL     1       4.108   6.877  16.925  0.00  0.00    +0.000 C 
ATOM     12  O   UNL     1       4.415   7.837  16.222  0.00  0.00    +0.000 OA
ATOM     13  C   UNL     1       4.658   5.516  16.639  0.00  0.00    +0.000 A 
ATOM     14  C   UNL     1       5.457   5.256  15.515  0.00  0.00    +0.000 A 
ATOM     15  C   UNL     1       5.906   3.949  15.240  0.00  0.00    +0.000 A 
ATOM     16  C   UNL     1       5.561   2.892  16.080  0.00  0.00    +0.000 A 
ATOM     17  C   UNL     1       4.799   3.149  17.214  0.00  0.00    +0.000 A 
ATOM     18  C   UNL     1       4.367   4.459  17.497  0.00  0.00    +0.000 A 
ATOM     19  C   UNL     1       3.610   4.699  18.720  0.00  0.00    +0.000 C 
ATOM     20  O   UNL     1       3.399   3.735  19.454  0.00  0.00    +0.000 OA
ENDROOT
BRANCH  10  21
ATOM     21  C   UNL     1      -0.387  10.444  19.647  0.00  0.00    +0.000 C 
ATOM     22  O   UNL     1      -0.175  11.597  20.041  0.00  0.00    +0.000 OA
ATOM     23  N   UNL     1      -1.523  10.247  18.876  0.00  0.00    +0.000 N 
ATOM     24  H   UNL     1      -1.647   9.390  18.352  0.00  0.00    +0.000 HD
BRANCH  23  25
ATOM     25  C   UNL     1      -2.348  11.456  18.578  0.00  0.00    +0.000 C 
ATOM     26  C   UNL     1      -3.858  11.246  18.700  0.00  0.00    +0.000 C 
ATOM     27  C   UNL     1      -4.462  10.605  17.457  0.00  0.00    +0.000 C 
ATOM     28  C   UNL     1      -4.046  11.310  16.168  0.00  0.00    +0.000 C 
ATOM     29  N   UNL     1      -2.596  11.461  16.057  0.00  0.00    +0.000 NA
ATOM     30  C   UNL     1      -2.031  12.153  17.225  0.00  0.00    +0.000 C 
ATOM     31  H   UNL     1      -2.392  12.017  15.224  0.00  0.00    +0.000 HD
ENDBRANCH  23  25
ENDBRANCH  10  21
BRANCH   5  32
ATOM     32  O   UNL     1       2.345   5.353  21.198  0.00  0.00    +0.000 OA
ATOM     33  H   UNL     1       1.404   5.130  21.328  0.00  0.00    +0.000 HD
ENDBRANCH   5  32
BRANCH   8  34
ATOM     34  O   UNL     1       2.599   9.381  17.380  0.00  0.00    +0.000 OA
ATOM     35  H   UNL     1       1.982   9.221  16.624  0.00  0.00    +0.000 HD
ENDBRANCH   8  34
TORSDOF 4
ENDMDL
MODEL 4
REMARK VINA RESULT:      -8.5      2.151      3.853
REMARK  Name = 
REMARK  5 active torsions:
REMARK  status: ('A' for Active; 'I' for Inactive)
REMARK    1  A    between atoms: C_1  and  C_2
REMARK    2  A    between atoms: C_5  and  O_6
REMARK    3  A    between atoms: C_9  and  O_10
REMARK    4  A    between atoms: C_12  and  C_13
REMARK    5  A    between atoms: N_15  and  C_16
REMARK                            x       y       z     vdW  Elec       q    Type
REMARK                         _______ _______ _______ _____ _____    ______ ____
ROOT
ATOM      1  C   UNL     1       2.845   5.367  19.943  0.00  0.00    +0.000 C 
ATOM      2  C   UNL     1       2.240   6.713  19.757  0.00  0.00    +0.000 A 
ATOM      3  O   UNL     1       1.516   7.101  20.813  0.00  0.00    +0.000 OA
ATOM      4  C   UNL     1       1.096   8.348  20.558  0.00  0.00    +0.000 A 
ATOM      5  C   UNL     1       0.450   9.072  21.553  0.00  0.00    +0.000 A 
ATOM      6  C   UNL     1       0.007  10.348  21.251  0.00  0.00    +0.000 A 
ATOM      7  C   UNL     1       0.093  10.794  19.930  0.00  0.00    +0.000 A 
ATOM      8  C   UNL     1       0.804  10.017  18.920  0.00  0.00    +0.000 A 
ATOM      9  C   UNL     1       1.414   8.764  19.265  0.00  0.00    +0.000 A 
ATOM     10  C   UNL     1       2.342   7.719  18.782  0.00  0.00    +0.000 A 
ATOM     11  C   UNL     1      -0.613  12.077  19.610  0.00  0.00    +0.000 C 
ATOM     12  O   UNL     1      -0.761  12.392  18.432  0.00  0.00    +0.000 OA
ATOM     13  C   UNL     1      -1.135  12.951  20.705  0.00  0.00    +0.000 A 
ATOM     14  C   UNL     1      -1.721  14.199  20.447  0.00  0.00    +0.000 A 
ATOM     15  C   UNL     1      -2.145  15.027  21.506  0.00  0.00    +0.000 A 
ATOM     16  C   UNL     1      -1.986  14.618  22.829  0.00  0.00    +0.000 A 
ATOM     17  C   UNL     1      -1.438  13.368  23.090  0.00  0.00    +0.000 A 
ATOM     18  C   UNL     1      -1.033  12.534  22.029  0.00  0.00    +0.000 A 
ATOM     19  C   UNL     1      -0.506  11.210  22.340  0.00  0.00    +0.000 C 
ATOM     20  O   UNL     1      -0.458  10.884  23.524  0.00  0.00    +0.000 OA
ENDROOT
BRANCH  10  21
ATOM     21  C   UNL     1       3.397   7.507  17.768  0.00  0.00    +0.000 C 
ATOM     22  O   UNL     1       3.299   8.130  16.705  0.00  0.00    +0.000 OA
ATOM     23  N   UNL     1       4.496   6.674  17.906  0.00  0.00    +0.000 N 
ATOM     24  H   UNL     1       4.751   6.302  18.811  0.00  0.00    +0.000 HD
BRANCH  23  25
ATOM     25  C   UNL     1       5.461   6.645  16.765  0.00  0.00    +0.000 C 
ATOM     26  C   UNL     1       5.312   5.443  15.832  0.00  0.00    +0.000 C 
ATOM     27  C   UNL     1       6.005   4.196  16.367  0.00  0.00    +0.000 C 
ATOM     28  C   UNL     1       7.447   4.461  16.796  0.00  0.00    +0.000 C 
ATOM     29  N   UNL     1       7.555   5.589  17.721  0.00  0.00    +0.000 NA
ATOM     30  C   UNL     1       6.955   6.809  17.162  0.00  0.00    +0.000 C 
ATOM     31  H   UNL     1       8.547   5.769  17.895  0.00  0.00    +0.000 HD
ENDBRANCH  23  25
ENDBRANCH  10  21
BRANCH   5  32
ATOM     32  O   UNL     1       0.300   8.505  22.788  0.00  0.00    +0.000 OA
ATOM     33  H   UNL     1      -0.433   8.971  23.231  0.00  0.00    +0.000 HD
ENDBRANCH   5  32
BRANCH   8  34
ATOM     34  O   UNL     1       0.850  10.454  17.615  0.00  0.00    +0.000 OA
ATOM     35  H   UNL     1       0.229   9.898  17.084  0.00  0.00    +0.000 HD
ENDBRANCH   8  34
TORSDOF 4
ENDMDL
MODEL 5
REMARK VINA RESULT:      -8.3      2.708      8.995
REMARK  Name = 
REMARK  5 active torsions:
REMARK  status: ('A' for Active; 'I' for Inactive)
REMARK    1  A    between atoms: C_1  and  C_2
REMARK    2  A    between atoms: C_5  and  O_6
REMARK    3  A    between atoms: C_9  and  O_10
REMARK    4  A    between atoms: C_12  and  C_13
REMARK    5  A    between atoms: N_15  and  C_16
REMARK                            x       y       z     vdW  Elec       q    Type
REMARK                         _______ _______ _______ _____ _____    ______ ____
ROOT
ATOM      1  C   UNL     1      -0.534   9.769  22.398  0.00  0.00    +0.000 C 
ATOM      2  C   UNL     1       0.299   9.328  21.247  0.00  0.00    +0.000 A 
ATOM      3  O   UNL     1       0.933   8.175  21.485  0.00  0.00    +0.000 OA
ATOM      4  C   UNL     1       1.578   7.846  20.356  0.00  0.00    +0.000 A 
ATOM      5  C   UNL     1       2.196   6.606  20.253  0.00  0.00    +0.000 A 
ATOM      6  C   UNL     1       2.874   6.307  19.084  0.00  0.00    +0.000 A 
ATOM      7  C   UNL     1       3.033   7.311  18.125  0.00  0.00    +0.000 A 
ATOM      8  C   UNL     1       2.343   8.590  18.255  0.00  0.00    +0.000 A 
ATOM      9  C   UNL     1       1.501   8.848  19.388  0.00  0.00    +0.000 A 
ATOM     10  C   UNL     1       0.488   9.779  19.931  0.00  0.00    +0.000 A 
ATOM     11  C   UNL     1       3.971   7.013  16.995  0.00  0.00    +0.000 C 
ATOM     12  O   UNL     1       4.320   7.932  16.258  0.00  0.00    +0.000 OA
ATOM     13  C   UNL     1       4.480   5.623  16.776  0.00  0.00    +0.000 A 
ATOM     14  C   UNL     1       5.288   5.290  15.678  0.00  0.00    +0.000 A 
ATOM     15  C   UNL     1       5.698   3.959  15.465  0.00  0.00    +0.000 A 
ATOM     16  C   UNL     1       5.306   2.950  16.344  0.00  0.00    +0.000 A 
ATOM     17  C   UNL     1       4.535   3.280  17.452  0.00  0.00    +0.000 A 
ATOM     18  C   UNL     1       4.142   4.614  17.673  0.00  0.00    +0.000 A 
ATOM     19  C   UNL     1       3.374   4.930  18.872  0.00  0.00    +0.000 C 
ATOM     20  O   UNL     1       3.120   4.006  19.641  0.00  0.00    +0.000 OA
ENDROOT
BRANCH  10  21
ATOM     21  C   UNL     1      -0.447  10.835  19.488  0.00  0.00    +0.000 C 
ATOM     22  O   UNL     1       0.011  11.973  19.331  0.00  0.00    +0.000 OA
ATOM     23  N   UNL     1      -1.798  10.663  19.225  0.00  0.00    +0.000 N 
ATOM     24  H   UNL     1      -2.189   9.735  19.129  0.00  0.00    +0.000 HD
BRANCH  23  25
ATOM     25  C   UNL     1      -2.545  11.865  18.749  0.00  0.00    +0.000 C 
ATOM     26  C   UNL     1      -3.153  12.723  19.859  0.00  0.00    +0.000 C 
ATOM     27  C   UNL     1      -4.481  12.174  20.363  0.00  0.00    +0.000 C 
ATOM     28  C   UNL     1      -5.458  11.861  19.231  0.00  0.00    +0.000 C 
ATOM     29  N   UNL     1      -4.865  11.006  18.203  0.00  0.00    +0.000 NA
ATOM     30  C   UNL     1      -3.625  11.583  17.665  0.00  0.00    +0.000 C 
ATOM     31  H   UNL     1      -5.534  10.911  17.437  0.00  0.00    +0.000 HD
ENDBRANCH  23  25
ENDBRANCH  10  21
BRANCH   5  32
ATOM     32  O   UNL     1       2.092   5.730  21.298  0.00  0.00    +0.000 OA
ATOM     33  H   UNL     1       1.775   6.237  22.068  0.00  0.00    +0.000 HD
ENDBRANCH   5  32
BRANCH   8  34
ATOM     34  O   UNL     1       2.537   9.581  17.318  0.00  0.00    +0.000 OA
ATOM     35  H   UNL     1       1.836   9.491  16.628  0.00  0.00    +0.000 HD
ENDBRANCH   8  34
TORSDOF 4
ENDMDL
MODEL 6
REMARK VINA RESULT:      -8.3      2.970      8.773
REMARK  Name = 
REMARK  5 active torsions:
REMARK  status: ('A' for Active; 'I' for Inactive)
REMARK    1  A    between atoms: C_1  and  C_2
REMARK    2  A    between atoms: C_5  and  O_6
REMARK    3  A    between atoms: C_9  and  O_10
REMARK    4  A    between atoms: C_12  and  C_13
REMARK    5  A    between atoms: N_15  and  C_16
REMARK                            x       y       z     vdW  Elec       q    Type
REMARK                         _______ _______ _______ _____ _____    ______ ____
ROOT
ATOM      1  C   UNL     1      -1.098  12.960  19.386  0.00  0.00    +0.000 C 
ATOM      2  C   UNL     1      -0.526  11.620  19.682  0.00  0.00    +0.000 A 
ATOM      3  O   UNL     1       0.209  11.141  18.672  0.00  0.00    +0.000 OA
ATOM      4  C   UNL     1       0.730   9.978  19.088  0.00  0.00    +0.000 A 
ATOM      5  C   UNL     1       1.673   9.327  18.302  0.00  0.00    +0.000 A 
ATOM      6  C   UNL     1       2.173   8.116  18.748  0.00  0.00    +0.000 A 
ATOM      7  C   UNL     1       1.605   7.532  19.883  0.00  0.00    +0.000 A 
ATOM      8  C   UNL     1       0.638   8.259  20.699  0.00  0.00    +0.000 A 
ATOM      9  C   UNL     1       0.236   9.588  20.333  0.00  0.00    +0.000 A 
ATOM     10  C   UNL     1      -0.484  10.788  20.813  0.00  0.00    +0.000 A 
ATOM     11  C   UNL     1       2.012   6.121  20.184  0.00  0.00    +0.000 C 
ATOM     12  O   UNL     1       1.378   5.489  21.026  0.00  0.00    +0.000 OA
ATOM     13  C   UNL     1       3.163   5.492  19.465  0.00  0.00    +0.000 A 
ATOM     14  C   UNL     1       3.628   4.207  19.782  0.00  0.00    +0.000 A 
ATOM     15  C   UNL     1       4.754   3.669  19.130  0.00  0.00    +0.000 A 
ATOM     16  C   UNL     1       5.427   4.407  18.157  0.00  0.00    +0.000 A 
ATOM     17  C   UNL     1       4.951   5.667  17.813  0.00  0.00    +0.000 A 
ATOM     18  C   UNL     1       3.813   6.195  18.454  0.00  0.00    +0.000 A 
ATOM     19  C   UNL     1       3.314   7.499  18.034  0.00  0.00    +0.000 C 
ATOM     20  O   UNL     1       3.912   8.067  17.122  0.00  0.00    +0.000 OA
ENDROOT
BRANCH  10  21
ATOM     21  C   UNL     1      -0.967  11.406  22.065  0.00  0.00    +0.000 C 
ATOM     22  O   UNL     1      -0.298  11.220  23.088  0.00  0.00    +0.000 OA
ATOM     23  N   UNL     1      -2.107  12.186  22.197  0.00  0.00    +0.000 N 
ATOM     24  H   UNL     1      -2.579  12.549  21.380  0.00  0.00    +0.000 HD
BRANCH  23  25
ATOM     25  C   UNL     1      -2.383  12.743  23.555  0.00  0.00    +0.000 C 
ATOM     26  C   UNL     1      -3.758  12.391  24.124  0.00  0.00    +0.000 C 
ATOM     27  C   UNL     1      -4.861  13.299  23.596  0.00  0.00    +0.000 C 
ATOM     28  C   UNL     1      -4.512  14.782  23.717  0.00  0.00    +0.000 C 
ATOM     29  N   UNL     1      -3.211  15.098  23.128  0.00  0.00    +0.000 NA
ATOM     30  C   UNL     1      -2.140  14.271  23.703  0.00  0.00    +0.000 C 
ATOM     31  H   UNL     1      -2.999  16.079  23.322  0.00  0.00    +0.000 HD
ENDBRANCH  23  25
ENDBRANCH  10  21
BRANCH   5  32
ATOM     32  O   UNL     1       2.081   9.918  17.139  0.00  0.00    +0.000 OA
ATOM     33  H   UNL     1       1.745   9.370  16.405  0.00  0.00    +0.000 HD
ENDBRANCH   5  32
BRANCH   8  34
ATOM     34  O   UNL     1       0.062   7.657  21.794  0.00  0.00    +0.000 OA
ATOM     35  H   UNL     1      -0.200   6.739  21.537  0.00  0.00    +0.000 HD
ENDBRANCH   8  34
TORSDOF 4
ENDMDL
MODEL 7
REMARK VINA RESULT:      -8.3      1.456      1.713
REMARK  Name = 
REMARK  5 active torsions:
REMARK  status: ('A' for Active; 'I' for Inactive)
REMARK    1  A    between atoms: C_1  and  C_2
REMARK    2  A    between atoms: C_5  and  O_6
REMARK    3  A    between atoms: C_9  and  O_10
REMARK    4  A    between atoms: C_12  and  C_13
REMARK    5  A    between atoms: N_15  and  C_16
REMARK                            x       y       z     vdW  Elec       q    Type
REMARK                         _______ _______ _______ _____ _____    ______ ____
ROOT
ATOM      1  C   UNL     1       4.042   7.354  16.716  0.00  0.00    +0.000 C 
ATOM      2  C   UNL     1       3.127   7.828  17.789  0.00  0.00    +0.000 A 
ATOM      3  O   UNL     1       2.882   9.141  17.711  0.00  0.00    +0.000 OA
ATOM      4  C   UNL     1       1.991   9.427  18.672  0.00  0.00    +0.000 A 
ATOM      5  C   UNL     1       1.425  10.695  18.729  0.00  0.00    +0.000 A 
ATOM      6  C   UNL     1       0.527  10.965  19.746  0.00  0.00    +0.000 A 
ATOM      7  C   UNL     1       0.342  10.012  20.750  0.00  0.00    +0.000 A 
ATOM      8  C   UNL     1       0.931   8.681  20.640  0.00  0.00    +0.000 A 
ATOM      9  C   UNL     1       1.732   8.335  19.500  0.00  0.00    +0.000 A 
ATOM     10  C   UNL     1       2.372   7.203  18.794  0.00  0.00    +0.000 A 
ATOM     11  C   UNL     1      -0.450  10.445  21.946  0.00  0.00    +0.000 C 
ATOM     12  O   UNL     1      -0.449   9.731  22.947  0.00  0.00    +0.000 OA
ATOM     13  C   UNL     1      -1.220  11.727  21.925  0.00  0.00    +0.000 A 
ATOM     14  C   UNL     1      -2.042  12.121  22.991  0.00  0.00    +0.000 A 
ATOM     15  C   UNL     1      -2.804  13.304  22.912  0.00  0.00    +0.000 A 
ATOM     16  C   UNL     1      -2.753  14.102  21.771  0.00  0.00    +0.000 A 
ATOM     17  C   UNL     1      -1.913  13.736  20.725  0.00  0.00    +0.000 A 
ATOM     18  C   UNL     1      -1.139  12.563  20.814  0.00  0.00    +0.000 A 
ATOM     19  C   UNL     1      -0.234  12.235  19.718  0.00  0.00    +0.000 C 
ATOM     20  O   UNL     1      -0.185  13.018  18.771  0.00  0.00    +0.000 OA
ENDROOT
BRANCH  10  21
ATOM     21  C   UNL     1       2.315   5.728  18.713  0.00  0.00    +0.000 C 
ATOM     22  O   UNL     1       1.686   5.233  17.771  0.00  0.00    +0.000 OA
ATOM     23  N   UNL     1       2.913   4.845  19.599  0.00  0.00    +0.000 N 
ATOM     24  H   UNL     1       3.606   5.169  20.260  0.00  0.00    +0.000 HD
BRANCH  23  25
ATOM     25  C   UNL     1       2.758   3.390  19.300  0.00  0.00    +0.000 C 
ATOM     26  C   UNL     1       2.205   2.554  20.454  0.00  0.00    +0.000 C 
ATOM     27  C   UNL     1       3.277   2.167  21.464  0.00  0.00    +0.000 C 
ATOM     28  C   UNL     1       4.514   1.557  20.807  0.00  0.00    +0.000 C 
ATOM     29  N   UNL     1       5.047   2.396  19.734  0.00  0.00    +0.000 NA
ATOM     30  C   UNL     1       4.025   2.697  18.722  0.00  0.00    +0.000 C 
ATOM     31  H   UNL     1       5.811   1.892  19.280  0.00  0.00    +0.000 HD
ENDBRANCH  23  25
ENDBRANCH  10  21
BRANCH   5  32
ATOM     32  O   UNL     1       1.761  11.610  17.770  0.00  0.00    +0.000 OA
ATOM     33  H   UNL     1       2.652  11.941  17.988  0.00  0.00    +0.000 HD
ENDBRANCH   5  32
BRANCH   8  34
ATOM     34  O   UNL     1       0.767   7.764  21.654  0.00  0.00    +0.000 OA
ATOM     35  H   UNL     1      -0.166   7.439  21.626  0.00  0.00    +0.000 HD
ENDBRANCH   8  34
TORSDOF 4
ENDMDL
MODEL 8
REMARK VINA RESULT:      -8.1      2.833      9.247
REMARK  Name = 
REMARK  5 active torsions:
REMARK  status: ('A' for Active; 'I' for Inactive)
REMARK    1  A    between atoms: C_1  and  C_2
REMARK    2  A    between atoms: C_5  and  O_6
REMARK    3  A    between atoms: C_9  and  O_10
REMARK    4  A    between atoms: C_12  and  C_13
REMARK    5  A    between atoms: N_15  and  C_16
REMARK                            x       y       z     vdW  Elec       q    Type
REMARK                         _______ _______ _______ _____ _____    ______ ____
ROOT
ATOM      1  C   UNL     1      -0.521   9.338  22.711  0.00  0.00    +0.000 C 
ATOM      2  C   UNL     1       0.299   9.001  21.516  0.00  0.00    +0.000 A 
ATOM      3  O   UNL     1       0.964   7.850  21.658  0.00  0.00    +0.000 OA
ATOM      4  C   UNL     1       1.594   7.621  20.497  0.00  0.00    +0.000 A 
ATOM      5  C   UNL     1       2.240   6.407  20.294  0.00  0.00    +0.000 A 
ATOM      6  C   UNL     1       2.902   6.210  19.095  0.00  0.00    +0.000 A 
ATOM      7  C   UNL     1       3.018   7.284  18.208  0.00  0.00    +0.000 A 
ATOM      8  C   UNL     1       2.301   8.533  18.442  0.00  0.00    +0.000 A 
ATOM      9  C   UNL     1       1.475   8.687  19.606  0.00  0.00    +0.000 A 
ATOM     10  C   UNL     1       0.451   9.551  20.233  0.00  0.00    +0.000 A 
ATOM     11  C   UNL     1       3.941   7.092  17.043  0.00  0.00    +0.000 C 
ATOM     12  O   UNL     1       4.254   8.069  16.368  0.00  0.00    +0.000 OA
ATOM     13  C   UNL     1       4.478   5.735  16.714  0.00  0.00    +0.000 A 
ATOM     14  C   UNL     1       5.272   5.502  15.581  0.00  0.00    +0.000 A 
ATOM     15  C   UNL     1       5.710   4.200  15.266  0.00  0.00    +0.000 A 
ATOM     16  C   UNL     1       5.358   3.121  16.075  0.00  0.00    +0.000 A 
ATOM     17  C   UNL     1       4.601   3.350  17.218  0.00  0.00    +0.000 A 
ATOM     18  C   UNL     1       4.182   4.655  17.542  0.00  0.00    +0.000 A 
ATOM     19  C   UNL     1       3.429   4.864  18.774  0.00  0.00    +0.000 C 
ATOM     20  O   UNL     1       3.213   3.881  19.479  0.00  0.00    +0.000 OA
ENDROOT
BRANCH  10  21
ATOM     21  C   UNL     1      -0.517  10.613  19.885  0.00  0.00    +0.000 C 
ATOM     22  O   UNL     1      -1.299  10.387  18.955  0.00  0.00    +0.000 OA
ATOM     23  N   UNL     1      -0.631  11.843  20.514  0.00  0.00    +0.000 N 
ATOM     24  H   UNL     1      -0.176  12.011  21.402  0.00  0.00    +0.000 HD
BRANCH  23  25
ATOM     25  C   UNL     1      -1.711  12.749  20.021  0.00  0.00    +0.000 C 
ATOM     26  C   UNL     1      -1.289  14.208  19.840  0.00  0.00    +0.000 C 
ATOM     27  C   UNL     1      -1.315  14.992  21.146  0.00  0.00    +0.000 C 
ATOM     28  C   UNL     1      -2.629  14.827  21.907  0.00  0.00    +0.000 C 
ATOM     29  N   UNL     1      -2.988  13.422  22.102  0.00  0.00    +0.000 NA
ATOM     30  C   UNL     1      -3.039  12.693  20.827  0.00  0.00    +0.000 C 
ATOM     31  H   UNL     1      -3.914  13.383  22.533  0.00  0.00    +0.000 HD
ENDBRANCH  23  25
ENDBRANCH  10  21
BRANCH   5  32
ATOM     32  O   UNL     1       2.177   5.455  21.274  0.00  0.00    +0.000 OA
ATOM     33  H   UNL     1       2.228   4.586  20.834  0.00  0.00    +0.000 HD
ENDBRANCH   5  32
BRANCH   8  34
ATOM     34  O   UNL     1       2.454   9.593  17.577  0.00  0.00    +0.000 OA
ATOM     35  H   UNL     1       3.253  10.103  17.856  0.00  0.00    +0.000 HD
ENDBRANCH   8  34
TORSDOF 4
ENDMDL
MODEL 9
REMARK VINA RESULT:      -8.1      3.840      9.475
REMARK  Name = 
REMARK  5 active torsions:
REMARK  status: ('A' for Active; 'I' for Inactive)
REMARK    1  A    between atoms: C_1  and  C_2
REMARK    2  A    between atoms: C_5  and  O_6
REMARK    3  A    between atoms: C_9  and  O_10
REMARK    4  A    between atoms: C_12  and  C_13
REMARK    5  A    between atoms: N_15  and  C_16
REMARK                            x       y       z     vdW  Elec       q    Type
REMARK                         _______ _______ _______ _____ _____    ______ ____
ROOT
ATOM      1  C   UNL     1      -3.825  13.415  24.501  0.00  0.00    +0.000 C 
ATOM      2  C   UNL     1      -3.112  12.885  23.308  0.00  0.00    +0.000 A 
ATOM      3  O   UNL     1      -2.084  12.094  23.634  0.00  0.00    +0.000 OA
ATOM      4  C   UNL     1      -1.580  11.621  22.486  0.00  0.00    +0.000 A 
ATOM      5  C   UNL     1      -0.597  10.639  22.520  0.00  0.00    +0.000 A 
ATOM      6  C   UNL     1      -0.079  10.188  21.318  0.00  0.00    +0.000 A 
ATOM      7  C   UNL     1      -0.454  10.838  20.140  0.00  0.00    +0.000 A 
ATOM      8  C   UNL     1      -1.512  11.845  20.141  0.00  0.00    +0.000 A 
ATOM      9  C   UNL     1      -2.173  12.200  21.364  0.00  0.00    +0.000 A 
ATOM     10  C   UNL     1      -3.332  12.931  21.922  0.00  0.00    +0.000 A 
ATOM     11  C   UNL     1       0.309  10.474  18.903  0.00  0.00    +0.000 C 
ATOM     12  O   UNL     1       0.178  11.171  17.900  0.00  0.00    +0.000 OA
ATOM     13  C   UNL     1       1.223   9.290  18.895  0.00  0.00    +0.000 A 
ATOM     14  C   UNL     1       1.885   8.868  17.732  0.00  0.00    +0.000 A 
ATOM     15  C   UNL     1       2.688   7.710  17.743  0.00  0.00    +0.000 A 
ATOM     16  C   UNL     1       2.836   6.963  18.911  0.00  0.00    +0.000 A 
ATOM     17  C   UNL     1       2.211   7.396  20.074  0.00  0.00    +0.000 A 
ATOM     18  C   UNL     1       1.424   8.565  20.065  0.00  0.00    +0.000 A 
ATOM     19  C   UNL     1       0.822   9.014  21.316  0.00  0.00    +0.000 C 
ATOM     20  O   UNL     1       1.049   8.349  22.325  0.00  0.00    +0.000 OA
ENDROOT
BRANCH  10  21
ATOM     21  C   UNL     1      -4.639  13.484  21.510  0.00  0.00    +0.000 C 
ATOM     22  O   UNL     1      -5.453  13.748  22.403  0.00  0.00    +0.000 OA
ATOM     23  N   UNL     1      -5.036  13.741  20.207  0.00  0.00    +0.000 N 
ATOM     24  H   UNL     1      -4.359  13.748  19.455  0.00  0.00    +0.000 HD
BRANCH  23  25
ATOM     25  C   UNL     1      -6.392  14.340  20.025  0.00  0.00    +0.000 C 
ATOM     26  C   UNL     1      -7.491  13.340  19.666  0.00  0.00    +0.000 C 
ATOM     27  C   UNL     1      -7.512  13.001  18.181  0.00  0.00    +0.000 C 
ATOM     28  C   UNL     1      -7.503  14.243  17.292  0.00  0.00    +0.000 C 
ATOM     29  N   UNL     1      -6.417  15.163  17.630  0.00  0.00    +0.000 NA
ATOM     30  C   UNL     1      -6.453  15.548  19.048  0.00  0.00    +0.000 C 
ATOM     31  H   UNL     1      -6.522  16.008  17.064  0.00  0.00    +0.000 HD
ENDBRANCH  23  25
ENDBRANCH  10  21
BRANCH   5  32
ATOM     32  O   UNL     1      -0.200  10.146  23.733  0.00  0.00    +0.000 OA
ATOM     33  H   UNL     1       0.742   9.909  23.652  0.00  0.00    +0.000 HD
ENDBRANCH   5  32
BRANCH   8  34
ATOM     34  O   UNL     1      -1.846  12.500  18.977  0.00  0.00    +0.000 OA
ATOM     35  H   UNL     1      -1.152  13.181  18.799  0.00  0.00    +0.000 HD
ENDBRANCH   8  34
TORSDOF 4
ENDMDL
