MODEL 1
REMARK VINA RESULT:      -7.3      0.000      0.000
REMARK  Name = 
REMARK  12 active torsions:
REMARK  status: ('A' for Active; 'I' for Inactive)
REMARK    1  A    between atoms: C_1  and  C_2
REMARK    2  A    between atoms: C_2  and  N_3
REMARK    3  A    between atoms: C_7  and  C_8
REMARK    4  A    between atoms: C_8  and  N_9
REMARK    5  A    between atoms: N_9  and  C_10
REMARK    6  A    between atoms: C_10  and  C_11
REMARK    7  A    between atoms: C_15  and  C_16
REMARK    8  A    between atoms: C_18  and  C_19
REMARK    9  A    between atoms: C_22  and  O_23
REMARK   10  A    between atoms: N_26  and  C_27
REMARK   11  A    between atoms: C_32  and  O_33
REMARK   12  A    between atoms: O_33  and  C_34
REMARK                            x       y       z     vdW  Elec       q    Type
REMARK                         _______ _______ _______ _____ _____    ______ ____
ROOT
ATOM      1  N   UNL     1       0.296  11.998  20.515  0.00  0.00    +0.000 N 
ATOM      2  C   UNL     1      -0.674  12.502  21.379  0.00  0.00    +0.000 C 
ATOM      3  O   UNL     1      -0.499  13.559  21.990  0.00  0.00    +0.000 OA
ATOM      4  N   UNL     1      -1.834  11.767  21.497  0.00  0.00    +0.000 N 
ATOM      5  H   UNL     1      -1.699  10.770  21.561  0.00  0.00    +0.000 HD
ENDROOT
BRANCH   4   6
ATOM      6  C   UNL     1      -2.925  12.311  22.223  0.00  0.00    +0.000 A 
ATOM      7  C   UNL     1      -2.935  12.127  23.620  0.00  0.00    +0.000 A 
ATOM      8  C   UNL     1      -3.941  12.673  24.416  0.00  0.00    +0.000 A 
ATOM      9  C   UNL     1      -4.965  13.399  23.822  0.00  0.00    +0.000 A 
ATOM     10  C   UNL     1      -4.967  13.590  22.436  0.00  0.00    +0.000 A 
ATOM     11  C   UNL     1      -3.950  13.058  21.627  0.00  0.00    +0.000 A 
BRANCH  11  12
ATOM     12  O   UNL     1      -4.063  13.373  20.299  0.00  0.00    +0.000 OA
ATOM     13  C   UNL     1      -5.257  12.951  19.648  0.00  0.00    +0.000 C 
ENDBRANCH  11  12
ENDBRANCH   4   6
BRANCH   1  14
ATOM     14  C   UNL     1       1.493  12.862  20.332  0.00  0.00    +0.000 C 
BRANCH  14  19
ATOM     15  N   UNL     1       1.151  15.188  19.343  0.00  0.00    +0.000 NA
ATOM     16  C   UNL     1       2.206  16.064  18.802  0.00  0.00    +0.000 C 
ATOM     17  C   UNL     1       3.016  15.237  17.823  0.00  0.00    +0.000 C 
ATOM     18  C   UNL     1       2.944  13.852  18.413  0.00  0.00    +0.000 C 
ATOM     19  C   UNL     1       1.556  13.782  19.067  0.00  0.00    +0.000 C 
BRANCH  15  21
ATOM     20  C   UNL     1      -0.276  17.002  18.194  0.00  0.00    +0.000 C 
ATOM     21  C   UNL     1      -0.153  15.600  18.785  0.00  0.00    +0.000 C 
ENDBRANCH  15  21
ENDBRANCH  14  19
ENDBRANCH   1  14
BRANCH   1  22
ATOM     22  C   UNL     1       0.058  10.892  19.556  0.00  0.00    +0.000 C 
BRANCH  22  23
ATOM     23  C   UNL     1       0.870   9.624  19.786  0.00  0.00    +0.000 A 
ATOM     24  C   UNL     1       1.806   9.200  18.851  0.00  0.00    +0.000 A 
ATOM     25  C   UNL     1       2.373   7.920  18.923  0.00  0.00    +0.000 A 
ATOM     26  C   UNL     1       3.209   7.508  17.880  0.00  0.00    +0.000 A 
ATOM     27  C   UNL     1       3.724   6.216  17.846  0.00  0.00    +0.000 A 
ATOM     28  C   UNL     1       4.484   5.737  16.645  0.00  0.00    +0.000 C 
ATOM     29  C   UNL     1       3.454   5.361  18.910  0.00  0.00    +0.000 A 
ATOM     30  C   UNL     1       2.609   5.757  19.973  0.00  0.00    +0.000 A 
ATOM     31  C   UNL     1       2.284   4.720  21.016  0.00  0.00    +0.000 C 
ATOM     32  C   UNL     1       2.033   7.055  19.993  0.00  0.00    +0.000 A 
ATOM     33  N   UNL     1       1.164   7.475  20.940  0.00  0.00    +0.000 NA
ATOM     34  C   UNL     1       0.606   8.707  20.792  0.00  0.00    +0.000 A 
BRANCH  34  35
ATOM     35  O   UNL     1      -0.307   8.983  21.777  0.00  0.00    +0.000 OA
ATOM     36  H   UNL     1       0.032   8.408  22.482  0.00  0.00    +0.000 HD
ENDBRANCH  34  35
ENDBRANCH  22  23
ENDBRANCH   1  22
TORSDOF 8
ENDMDL
MODEL 2
REMARK VINA RESULT:      -7.2      3.107     10.362
REMARK  Name = 
REMARK  12 active torsions:
REMARK  status: ('A' for Active; 'I' for Inactive)
REMARK    1  A    between atoms: C_1  and  C_2
REMARK    2  A    between atoms: C_2  and  N_3
REMARK    3  A    between atoms: C_7  and  C_8
REMARK    4  A    between atoms: C_8  and  N_9
REMARK    5  A    between atoms: N_9  and  C_10
REMARK    6  A    between atoms: C_10  and  C_11
REMARK    7  A    between atoms: C_15  and  C_16
REMARK    8  A    between atoms: C_18  and  C_19
REMARK    9  A    between atoms: C_22  and  O_23
REMARK   10  A    between atoms: N_26  and  C_27
REMARK   11  A    between atoms: C_32  and  O_33
REMARK   12  A    between atoms: O_33  and  C_34
REMARK                            x       y       z     vdW  Elec       q    Type
REMARK                         _______ _______ _______ _____ _____    ______ ____
ROOT
ATOM      1  N   UNL     1       2.946   6.461  19.188  0.00  0.00    +0.000 N 
ATOM      2  C   UNL     1       4.052   5.956  18.509  0.00  0.00    +0.000 C 
ATOM      3  O   UNL     1       4.811   5.141  19.039  0.00  0.00    +0.000 OA
ATOM      4  N   UNL     1       4.238   6.402  17.218  0.00  0.00    +0.000 N 
ATOM      5  H   UNL     1       4.085   7.390  17.085  0.00  0.00    +0.000 HD
ENDROOT
BRANCH   4   6
ATOM      6  C   UNL     1       5.241   5.799  16.417  0.00  0.00    +0.000 A 
ATOM      7  C   UNL     1       4.857   4.725  15.590  0.00  0.00    +0.000 A 
ATOM      8  C   UNL     1       5.768   4.109  14.732  0.00  0.00    +0.000 A 
ATOM      9  C   UNL     1       7.085   4.549  14.702  0.00  0.00    +0.000 A 
ATOM     10  C   UNL     1       7.480   5.614  15.518  0.00  0.00    +0.000 A 
ATOM     11  C   UNL     1       6.566   6.253  16.373  0.00  0.00    +0.000 A 
BRANCH  11  12
ATOM     12  O   UNL     1       7.090   7.310  17.068  0.00  0.00    +0.000 OA
ATOM     13  C   UNL     1       7.861   6.989  18.222  0.00  0.00    +0.000 C 
ENDBRANCH  11  12
ENDBRANCH   4   6
BRANCH   1  14
ATOM     14  C   UNL     1       2.716   5.887  20.542  0.00  0.00    +0.000 C 
BRANCH  14  19
ATOM     15  N   UNL     1       2.181   3.595  19.560  0.00  0.00    +0.000 NA
ATOM     16  C   UNL     1       2.470   2.294  20.189  0.00  0.00    +0.000 C 
ATOM     17  C   UNL     1       1.929   2.351  21.604  0.00  0.00    +0.000 C 
ATOM     18  C   UNL     1       2.102   3.803  21.972  0.00  0.00    +0.000 C 
ATOM     19  C   UNL     1       1.890   4.562  20.654  0.00  0.00    +0.000 C 
BRANCH  15  21
ATOM     20  C   UNL     1       1.313   4.025  17.170  0.00  0.00    +0.000 C 
ATOM     21  C   UNL     1       1.111   3.420  18.557  0.00  0.00    +0.000 C 
ENDBRANCH  15  21
ENDBRANCH  14  19
ENDBRANCH   1  14
BRANCH   1  22
ATOM     22  C   UNL     1       1.854   7.227  18.541  0.00  0.00    +0.000 C 
BRANCH  22  23
ATOM     23  C   UNL     1       1.611   8.630  19.083  0.00  0.00    +0.000 A 
ATOM     24  C   UNL     1       0.939   8.821  20.284  0.00  0.00    +0.000 A 
ATOM     25  C   UNL     1       0.489  10.092  20.668  0.00  0.00    +0.000 A 
ATOM     26  C   UNL     1      -0.293  10.194  21.824  0.00  0.00    +0.000 A 
ATOM     27  C   UNL     1      -0.849  11.412  22.204  0.00  0.00    +0.000 A 
ATOM     28  C   UNL     1      -1.814  11.477  23.350  0.00  0.00    +0.000 C 
ATOM     29  C   UNL     1      -0.550  12.546  21.453  0.00  0.00    +0.000 A 
ATOM     30  C   UNL     1       0.235  12.462  20.280  0.00  0.00    +0.000 A 
ATOM     31  C   UNL     1       0.403  13.724  19.474  0.00  0.00    +0.000 C 
ATOM     32  C   UNL     1       0.765  11.216  19.851  0.00  0.00    +0.000 A 
ATOM     33  N   UNL     1       1.464  11.053  18.706  0.00  0.00    +0.000 NA
ATOM     34  C   UNL     1       1.832   9.790  18.358  0.00  0.00    +0.000 A 
BRANCH  34  35
ATOM     35  O   UNL     1       2.471   9.753  17.146  0.00  0.00    +0.000 OA
ATOM     36  H   UNL     1       2.447  10.697  16.918  0.00  0.00    +0.000 HD
ENDBRANCH  34  35
ENDBRANCH  22  23
ENDBRANCH   1  22
TORSDOF 8
ENDMDL
MODEL 3
REMARK VINA RESULT:      -7.1      2.693      8.521
REMARK  Name = 
REMARK  12 active torsions:
REMARK  status: ('A' for Active; 'I' for Inactive)
REMARK    1  A    between atoms: C_1  and  C_2
REMARK    2  A    between atoms: C_2  and  N_3
REMARK    3  A    between atoms: C_7  and  C_8
REMARK    4  A    between atoms: C_8  and  N_9
REMARK    5  A    between atoms: N_9  and  C_10
REMARK    6  A    between atoms: C_10  and  C_11
REMARK    7  A    between atoms: C_15  and  C_16
REMARK    8  A    between atoms: C_18  and  C_19
REMARK    9  A    between atoms: C_22  and  O_23
REMARK   10  A    between atoms: N_26  and  C_27
REMARK   11  A    between atoms: C_32  and  O_33
REMARK   12  A    between atoms: O_33  and  C_34
REMARK                            x       y       z     vdW  Elec       q    Type
REMARK                         _______ _______ _______ _____ _____    ______ ____
ROOT
ATOM      1  N   UNL     1       0.770   9.615  19.489  0.00  0.00    +0.000 N 
ATOM      2  C   UNL     1       1.364   8.694  18.630  0.00  0.00    +0.000 C 
ATOM      3  O   UNL     1       1.182   8.745  17.412  0.00  0.00    +0.000 OA
ATOM      4  N   UNL     1       2.173   7.742  19.214  0.00  0.00    +0.000 N 
ATOM      5  H   UNL     1       1.810   7.342  20.065  0.00  0.00    +0.000 HD
ENDROOT
BRANCH   4   6
ATOM      6  C   UNL     1       2.941   6.886  18.384  0.00  0.00    +0.000 A 
ATOM      7  C   UNL     1       4.003   7.461  17.659  0.00  0.00    +0.000 A 
ATOM      8  C   UNL     1       4.841   6.683  16.860  0.00  0.00    +0.000 A 
ATOM      9  C   UNL     1       4.616   5.317  16.761  0.00  0.00    +0.000 A 
ATOM     10  C   UNL     1       3.565   4.732  17.475  0.00  0.00    +0.000 A 
ATOM     11  C   UNL     1       2.726   5.504  18.296  0.00  0.00    +0.000 A 
BRANCH  11  12
ATOM     12  O   UNL     1       1.778   4.781  18.970  0.00  0.00    +0.000 OA
ATOM     13  C   UNL     1       1.469   3.495  18.444  0.00  0.00    +0.000 C 
ENDBRANCH  11  12
ENDBRANCH   4   6
BRANCH   1  14
ATOM     14  C   UNL     1      -0.017  10.688  18.823  0.00  0.00    +0.000 C 
BRANCH  14  19
ATOM     15  N   UNL     1      -2.286  11.835  18.625  0.00  0.00    +0.000 NA
ATOM     16  C   UNL     1      -3.229  11.704  17.499  0.00  0.00    +0.000 C 
ATOM     17  C   UNL     1      -3.412  10.222  17.240  0.00  0.00    +0.000 C 
ATOM     18  C   UNL     1      -2.070   9.647  17.611  0.00  0.00    +0.000 C 
ATOM     19  C   UNL     1      -1.574  10.536  18.761  0.00  0.00    +0.000 C 
BRANCH  15  21
ATOM     20  C   UNL     1      -4.507  12.618  19.677  0.00  0.00    +0.000 C 
ATOM     21  C   UNL     1      -3.023  12.291  19.822  0.00  0.00    +0.000 C 
ENDBRANCH  15  21
ENDBRANCH  14  19
ENDBRANCH   1  14
BRANCH   1  22
ATOM     22  C   UNL     1       1.144   9.783  20.914  0.00  0.00    +0.000 C 
BRANCH  22  23
ATOM     23  C   UNL     1       0.528  10.979  21.630  0.00  0.00    +0.000 A 
ATOM     24  C   UNL     1      -0.641  10.840  22.368  0.00  0.00    +0.000 A 
ATOM     25  C   UNL     1      -1.352  11.961  22.817  0.00  0.00    +0.000 A 
ATOM     26  C   UNL     1      -2.586  11.755  23.441  0.00  0.00    +0.000 A 
ATOM     27  C   UNL     1      -3.383  12.830  23.822  0.00  0.00    +0.000 A 
ATOM     28  C   UNL     1      -4.770  12.597  24.341  0.00  0.00    +0.000 C 
ATOM     29  C   UNL     1      -2.894  14.121  23.640  0.00  0.00    +0.000 A 
ATOM     30  C   UNL     1      -1.649  14.351  23.008  0.00  0.00    +0.000 A 
ATOM     31  C   UNL     1      -1.263  15.784  22.751  0.00  0.00    +0.000 C 
ATOM     32  C   UNL     1      -0.851  13.263  22.565  0.00  0.00    +0.000 A 
ATOM     33  N   UNL     1       0.314  13.411  21.895  0.00  0.00    +0.000 NA
ATOM     34  C   UNL     1       0.934  12.290  21.439  0.00  0.00    +0.000 A 
BRANCH  34  35
ATOM     35  O   UNL     1       2.063  12.581  20.717  0.00  0.00    +0.000 OA
ATOM     36  H   UNL     1       2.739  12.225  21.318  0.00  0.00    +0.000 HD
ENDBRANCH  34  35
ENDBRANCH  22  23
ENDBRANCH   1  22
TORSDOF 8
ENDMDL
MODEL 4
REMARK VINA RESULT:      -7.1      4.400      9.100
REMARK  Name = 
REMARK  12 active torsions:
REMARK  status: ('A' for Active; 'I' for Inactive)
REMARK    1  A    between atoms: C_1  and  C_2
REMARK    2  A    between atoms: C_2  and  N_3
REMARK    3  A    between atoms: C_7  and  C_8
REMARK    4  A    between atoms: C_8  and  N_9
REMARK    5  A    between atoms: N_9  and  C_10
REMARK    6  A    between atoms: C_10  and  C_11
REMARK    7  A    between atoms: C_15  and  C_16
REMARK    8  A    between atoms: C_18  and  C_19
REMARK    9  A    between atoms: C_22  and  O_23
REMARK   10  A    between atoms: N_26  and  C_27
REMARK   11  A    between atoms: C_32  and  O_33
REMARK   12  A    between atoms: O_33  and  C_34
REMARK                            x       y       z     vdW  Elec       q    Type
REMARK                         _______ _______ _______ _____ _____    ______ ____
ROOT
ATOM      1  N   UNL     1       3.253   5.091  18.069  0.00  0.00    +0.000 N 
ATOM      2  C   UNL     1       2.329   5.994  18.590  0.00  0.00    +0.000 C 
ATOM      3  O   UNL     1       1.149   5.678  18.755  0.00  0.00    +0.000 OA
ATOM      4  N   UNL     1       2.811   7.242  18.922  0.00  0.00    +0.000 N 
ATOM      5  H   UNL     1       3.449   7.643  18.253  0.00  0.00    +0.000 HD
ENDROOT
BRANCH   4   6
ATOM      6  C   UNL     1       1.964   8.146  19.615  0.00  0.00    +0.000 A 
ATOM      7  C   UNL     1       1.540   7.783  20.908  0.00  0.00    +0.000 A 
ATOM      8  C   UNL     1       0.750   8.636  21.678  0.00  0.00    +0.000 A 
ATOM      9  C   UNL     1       0.357   9.861  21.157  0.00  0.00    +0.000 A 
ATOM     10  C   UNL     1       0.771  10.235  19.875  0.00  0.00    +0.000 A 
ATOM     11  C   UNL     1       1.581   9.391  19.097  0.00  0.00    +0.000 A 
BRANCH  11  12
ATOM     12  O   UNL     1       1.946   9.919  17.886  0.00  0.00    +0.000 OA
ATOM     13  C   UNL     1       2.317  11.293  17.880  0.00  0.00    +0.000 C 
ENDBRANCH  11  12
ENDBRANCH   4   6
BRANCH   1  14
ATOM     14  C   UNL     1       2.727   3.723  17.812  0.00  0.00    +0.000 C 
BRANCH  14  19
ATOM     15  N   UNL     1       3.415   3.135  20.196  0.00  0.00    +0.000 NA
ATOM     16  C   UNL     1       2.536   3.145  21.380  0.00  0.00    +0.000 C 
ATOM     17  C   UNL     1       1.297   2.346  21.024  0.00  0.00    +0.000 C 
ATOM     18  C   UNL     1       1.142   2.607  19.548  0.00  0.00    +0.000 C 
ATOM     19  C   UNL     1       2.580   2.746  19.027  0.00  0.00    +0.000 C 
BRANCH  15  21
ATOM     20  C   UNL     1       4.663   0.921  19.759  0.00  0.00    +0.000 C 
ATOM     21  C   UNL     1       4.582   2.270  20.468  0.00  0.00    +0.000 C 
ENDBRANCH  15  21
ENDBRANCH  14  19
ENDBRANCH   1  14
BRANCH   1  22
ATOM     22  C   UNL     1       4.721   5.301  18.087  0.00  0.00    +0.000 C 
BRANCH  22  23
ATOM     23  C   UNL     1       5.399   5.388  16.726  0.00  0.00    +0.000 A 
ATOM     24  C   UNL     1       4.949   4.621  15.658  0.00  0.00    +0.000 A 
ATOM     25  C   UNL     1       5.706   4.498  14.485  0.00  0.00    +0.000 A 
ATOM     26  C   UNL     1       5.260   3.610  13.500  0.00  0.00    +0.000 A 
ATOM     27  C   UNL     1       6.016   3.372  12.357  0.00  0.00    +0.000 A 
ATOM     28  C   UNL     1       5.608   2.301  11.390  0.00  0.00    +0.000 C 
ATOM     29  C   UNL     1       7.193   4.093  12.173  0.00  0.00    +0.000 A 
ATOM     30  C   UNL     1       7.663   4.994  13.158  0.00  0.00    +0.000 A 
ATOM     31  C   UNL     1       9.004   5.636  12.917  0.00  0.00    +0.000 C 
ATOM     32  C   UNL     1       6.927   5.205  14.354  0.00  0.00    +0.000 A 
ATOM     33  N   UNL     1       7.351   5.997  15.364  0.00  0.00    +0.000 NA
ATOM     34  C   UNL     1       6.601   6.039  16.499  0.00  0.00    +0.000 A 
BRANCH  34  35
ATOM     35  O   UNL     1       7.174   6.820  17.469  0.00  0.00    +0.000 OA
ATOM     36  H   UNL     1       6.588   6.614  18.214  0.00  0.00    +0.000 HD
ENDBRANCH  34  35
ENDBRANCH  22  23
ENDBRANCH   1  22
TORSDOF 8
ENDMDL
MODEL 5
REMARK VINA RESULT:      -7.0      3.834     10.769
REMARK  Name = 
REMARK  12 active torsions:
REMARK  status: ('A' for Active; 'I' for Inactive)
REMARK    1  A    between atoms: C_1  and  C_2
REMARK    2  A    between atoms: C_2  and  N_3
REMARK    3  A    between atoms: C_7  and  C_8
REMARK    4  A    between atoms: C_8  and  N_9
REMARK    5  A    between atoms: N_9  and  C_10
REMARK    6  A    between atoms: C_10  and  C_11
REMARK    7  A    between atoms: C_15  and  C_16
REMARK    8  A    between atoms: C_18  and  C_19
REMARK    9  A    between atoms: C_22  and  O_23
REMARK   10  A    between atoms: N_26  and  C_27
REMARK   11  A    between atoms: C_32  and  O_33
REMARK   12  A    between atoms: O_33  and  C_34
REMARK                            x       y       z     vdW  Elec       q    Type
REMARK                         _______ _______ _______ _____ _____    ______ ____
ROOT
ATOM      1  N   UNL     1       3.095   5.505  18.032  0.00  0.00    +0.000 N 
ATOM      2  C   UNL     1       3.781   4.866  17.002  0.00  0.00    +0.000 C 
ATOM      3  O   UNL     1       3.364   3.816  16.510  0.00  0.00    +0.000 OA
ATOM      4  N   UNL     1       4.933   5.481  16.559  0.00  0.00    +0.000 N 
ATOM      5  H   UNL     1       5.526   5.847  17.287  0.00  0.00    +0.000 HD
ENDROOT
BRANCH   4   6
ATOM      6  C   UNL     1       5.583   4.976  15.402  0.00  0.00    +0.000 A 
ATOM      7  C   UNL     1       4.785   4.341  14.431  0.00  0.00    +0.000 A 
ATOM      8  C   UNL     1       5.334   3.863  13.241  0.00  0.00    +0.000 A 
ATOM      9  C   UNL     1       6.697   4.000  13.013  0.00  0.00    +0.000 A 
ATOM     10  C   UNL     1       7.501   4.629  13.969  0.00  0.00    +0.000 A 
ATOM     11  C   UNL     1       6.956   5.129  15.163  0.00  0.00    +0.000 A 
BRANCH  11  12
ATOM     12  O   UNL     1       7.859   5.764  15.973  0.00  0.00    +0.000 OA
ATOM     13  C   UNL     1       7.341   6.777  16.828  0.00  0.00    +0.000 C 
ENDBRANCH  11  12
ENDBRANCH   4   6
BRANCH   1  14
ATOM     14  C   UNL     1       1.805   4.873  18.422  0.00  0.00    +0.000 C 
BRANCH  14  19
ATOM     15  N   UNL     1       3.102   3.447  20.092  0.00  0.00    +0.000 NA
ATOM     16  C   UNL     1       2.709   3.172  21.486  0.00  0.00    +0.000 C 
ATOM     17  C   UNL     1       1.270   2.696  21.460  0.00  0.00    +0.000 C 
ATOM     18  C   UNL     1       0.689   3.448  20.291  0.00  0.00    +0.000 C 
ATOM     19  C   UNL     1       1.851   3.574  19.296  0.00  0.00    +0.000 C 
BRANCH  15  21
ATOM     20  C   UNL     1       3.536   1.329  18.686  0.00  0.00    +0.000 C 
ATOM     21  C   UNL     1       4.047   2.404  19.641  0.00  0.00    +0.000 C 
ENDBRANCH  15  21
ENDBRANCH  14  19
ENDBRANCH   1  14
BRANCH   1  22
ATOM     22  C   UNL     1       3.381   6.886  18.490  0.00  0.00    +0.000 C 
BRANCH  22  23
ATOM     23  C   UNL     1       2.239   7.605  19.196  0.00  0.00    +0.000 A 
ATOM     24  C   UNL     1       1.614   8.697  18.605  0.00  0.00    +0.000 A 
ATOM     25  C   UNL     1       0.744   9.517  19.337  0.00  0.00    +0.000 A 
ATOM     26  C   UNL     1       0.251  10.672  18.721  0.00  0.00    +0.000 A 
ATOM     27  C   UNL     1      -0.538  11.575  19.427  0.00  0.00    +0.000 A 
ATOM     28  C   UNL     1      -0.926  12.884  18.807  0.00  0.00    +0.000 C 
ATOM     29  C   UNL     1      -0.893  11.271  20.738  0.00  0.00    +0.000 A 
ATOM     30  C   UNL     1      -0.402  10.109  21.380  0.00  0.00    +0.000 A 
ATOM     31  C   UNL     1      -0.746   9.930  22.835  0.00  0.00    +0.000 C 
ATOM     32  C   UNL     1       0.449   9.206  20.688  0.00  0.00    +0.000 A 
ATOM     33  N   UNL     1       1.008   8.116  21.259  0.00  0.00    +0.000 NA
ATOM     34  C   UNL     1       1.883   7.386  20.517  0.00  0.00    +0.000 A 
BRANCH  34  35
ATOM     35  O   UNL     1       2.431   6.352  21.233  0.00  0.00    +0.000 OA
ATOM     36  H   UNL     1       2.702   5.772  20.503  0.00  0.00    +0.000 HD
ENDBRANCH  34  35
ENDBRANCH  22  23
ENDBRANCH   1  22
TORSDOF 8
ENDMDL
MODEL 6
REMARK VINA RESULT:      -6.9      2.569      5.437
REMARK  Name = 
REMARK  12 active torsions:
REMARK  status: ('A' for Active; 'I' for Inactive)
REMARK    1  A    between atoms: C_1  and  C_2
REMARK    2  A    between atoms: C_2  and  N_3
REMARK    3  A    between atoms: C_7  and  C_8
REMARK    4  A    between atoms: C_8  and  N_9
REMARK    5  A    between atoms: N_9  and  C_10
REMARK    6  A    between atoms: C_10  and  C_11
REMARK    7  A    between atoms: C_15  and  C_16
REMARK    8  A    between atoms: C_18  and  C_19
REMARK    9  A    between atoms: C_22  and  O_23
REMARK   10  A    between atoms: N_26  and  C_27
REMARK   11  A    between atoms: C_32  and  O_33
REMARK   12  A    between atoms: O_33  and  C_34
REMARK                            x       y       z     vdW  Elec       q    Type
REMARK                         _______ _______ _______ _____ _____    ______ ____
ROOT
ATOM      1  N   UNL     1       0.102  11.487  19.994  0.00  0.00    +0.000 N 
ATOM      2  C   UNL     1       0.529  12.691  19.439  0.00  0.00    +0.000 C 
ATOM      3  O   UNL     1      -0.277  13.520  19.012  0.00  0.00    +0.000 OA
ATOM      4  N   UNL     1       1.891  12.907  19.413  0.00  0.00    +0.000 N 
ATOM      5  H   UNL     1       2.441  12.107  19.142  0.00  0.00    +0.000 HD
ENDROOT
BRANCH   4   6
ATOM      6  C   UNL     1       2.381  14.180  19.022  0.00  0.00    +0.000 A 
ATOM      7  C   UNL     1       2.975  14.287  17.749  0.00  0.00    +0.000 A 
ATOM      8  C   UNL     1       3.434  15.512  17.265  0.00  0.00    +0.000 A 
ATOM      9  C   UNL     1       3.322  16.647  18.057  0.00  0.00    +0.000 A 
ATOM     10  C   UNL     1       2.733  16.555  19.322  0.00  0.00    +0.000 A 
ATOM     11  C   UNL     1       2.252  15.330  19.813  0.00  0.00    +0.000 A 
BRANCH  11  12
ATOM     12  O   UNL     1       1.657  15.410  21.044  0.00  0.00    +0.000 OA
ATOM     13  C   UNL     1       0.539  16.286  21.151  0.00  0.00    +0.000 C 
ENDBRANCH  11  12
ENDBRANCH   4   6
BRANCH   1  14
ATOM     14  C   UNL     1      -1.373  11.326  20.099  0.00  0.00    +0.000 C 
BRANCH  14  19
ATOM     15  N   UNL     1      -2.959  11.626  18.125  0.00  0.00    +0.000 NA
ATOM     16  C   UNL     1      -2.615  11.453  16.702  0.00  0.00    +0.000 C 
ATOM     17  C   UNL     1      -1.927  10.109  16.568  0.00  0.00    +0.000 C 
ATOM     18  C   UNL     1      -1.214   9.963  17.889  0.00  0.00    +0.000 C 
ATOM     19  C   UNL     1      -2.133  10.662  18.902  0.00  0.00    +0.000 C 
BRANCH  15  21
ATOM     20  C   UNL     1      -5.316  11.826  17.096  0.00  0.00    +0.000 C 
ATOM     21  C   UNL     1      -4.422  11.493  18.288  0.00  0.00    +0.000 C 
ENDBRANCH  15  21
ENDBRANCH  14  19
ENDBRANCH   1  14
BRANCH   1  22
ATOM     22  C   UNL     1       0.979  10.569  20.760  0.00  0.00    +0.000 C 
BRANCH  22  23
ATOM     23  C   UNL     1       1.334   9.257  20.072  0.00  0.00    +0.000 A 
ATOM     24  C   UNL     1       1.159   8.043  20.725  0.00  0.00    +0.000 A 
ATOM     25  C   UNL     1       1.709   6.859  20.212  0.00  0.00    +0.000 A 
ATOM     26  C   UNL     1       1.608   5.696  20.983  0.00  0.00    +0.000 A 
ATOM     27  C   UNL     1       2.216   4.514  20.574  0.00  0.00    +0.000 A 
ATOM     28  C   UNL     1       2.238   3.321  21.483  0.00  0.00    +0.000 C 
ATOM     29  C   UNL     1       2.865   4.488  19.342  0.00  0.00    +0.000 A 
ATOM     30  C   UNL     1       2.981   5.654  18.550  0.00  0.00    +0.000 A 
ATOM     31  C   UNL     1       3.803   5.551  17.292  0.00  0.00    +0.000 C 
ATOM     32  C   UNL     1       2.411   6.881  18.982  0.00  0.00    +0.000 A 
ATOM     33  N   UNL     1       2.542   8.046  18.309  0.00  0.00    +0.000 NA
ATOM     34  C   UNL     1       2.033   9.171  18.878  0.00  0.00    +0.000 A 
BRANCH  34  35
ATOM     35  O   UNL     1       2.293  10.292  18.132  0.00  0.00    +0.000 OA
ATOM     36  H   UNL     1       2.781   9.890  17.395  0.00  0.00    +0.000 HD
ENDBRANCH  34  35
ENDBRANCH  22  23
ENDBRANCH   1  22
TORSDOF 8
ENDMDL
MODEL 7
REMARK VINA RESULT:      -6.8      2.582      4.831
REMARK  Name = 
REMARK  12 active torsions:
REMARK  status: ('A' for Active; 'I' for Inactive)
REMARK    1  A    between atoms: C_1  and  C_2
REMARK    2  A    between atoms: C_2  and  N_3
REMARK    3  A    between atoms: C_7  and  C_8
REMARK    4  A    between atoms: C_8  and  N_9
REMARK    5  A    between atoms: N_9  and  C_10
REMARK    6  A    between atoms: C_10  and  C_11
REMARK    7  A    between atoms: C_15  and  C_16
REMARK    8  A    between atoms: C_18  and  C_19
REMARK    9  A    between atoms: C_22  and  O_23
REMARK   10  A    between atoms: N_26  and  C_27
REMARK   11  A    between atoms: C_32  and  O_33
REMARK   12  A    between atoms: O_33  and  C_34
REMARK                            x       y       z     vdW  Elec       q    Type
REMARK                         _______ _______ _______ _____ _____    ______ ____
ROOT
ATOM      1  N   UNL     1      -0.416  11.937  19.458  0.00  0.00    +0.000 N 
ATOM      2  C   UNL     1       0.189  13.126  19.862  0.00  0.00    +0.000 C 
ATOM      3  O   UNL     1       0.229  14.107  19.117  0.00  0.00    +0.000 OA
ATOM      4  N   UNL     1       0.719  13.144  21.134  0.00  0.00    +0.000 N 
ATOM      5  H   UNL     1       1.225  12.312  21.395  0.00  0.00    +0.000 HD
ENDROOT
BRANCH   4   6
ATOM      6  C   UNL     1       1.193  14.371  21.666  0.00  0.00    +0.000 A 
ATOM      7  C   UNL     1       0.287  15.154  22.407  0.00  0.00    +0.000 A 
ATOM      8  C   UNL     1       0.683  16.348  23.009  0.00  0.00    +0.000 A 
ATOM      9  C   UNL     1       1.993  16.786  22.863  0.00  0.00    +0.000 A 
ATOM     10  C   UNL     1       2.904  16.018  22.130  0.00  0.00    +0.000 A 
ATOM     11  C   UNL     1       2.519  14.806  21.534  0.00  0.00    +0.000 A 
BRANCH  11  12
ATOM     12  O   UNL     1       3.534  14.145  20.895  0.00  0.00    +0.000 OA
ATOM     13  C   UNL     1       4.234  14.876  19.893  0.00  0.00    +0.000 C 
ENDBRANCH  11  12
ENDBRANCH   4   6
BRANCH   1  14
ATOM     14  C   UNL     1      -1.065  11.978  18.120  0.00  0.00    +0.000 C 
BRANCH  14  19
ATOM     15  N   UNL     1      -3.504  11.658  17.448  0.00  0.00    +0.000 NA
ATOM     16  C   UNL     1      -3.986  11.016  16.211  0.00  0.00    +0.000 C 
ATOM     17  C   UNL     1      -3.273   9.683  16.092  0.00  0.00    +0.000 C 
ATOM     18  C   UNL     1      -1.935   9.960  16.728  0.00  0.00    +0.000 C 
ATOM     19  C   UNL     1      -2.237  10.980  17.836  0.00  0.00    +0.000 C 
BRANCH  15  21
ATOM     20  C   UNL     1      -6.028  11.578  17.973  0.00  0.00    +0.000 C 
ATOM     21  C   UNL     1      -4.582  11.629  18.459  0.00  0.00    +0.000 C 
ENDBRANCH  15  21
ENDBRANCH  14  19
ENDBRANCH   1  14
BRANCH   1  22
ATOM     22  C   UNL     1      -0.736  10.817  20.375  0.00  0.00    +0.000 C 
BRANCH  22  23
ATOM     23  C   UNL     1       0.259   9.663  20.391  0.00  0.00    +0.000 A 
ATOM     24  C   UNL     1       1.191   9.514  19.371  0.00  0.00    +0.000 A 
ATOM     25  C   UNL     1       1.937   8.335  19.238  0.00  0.00    +0.000 A 
ATOM     26  C   UNL     1       2.761   8.198  18.116  0.00  0.00    +0.000 A 
ATOM     27  C   UNL     1       3.452   7.014  17.878  0.00  0.00    +0.000 A 
ATOM     28  C   UNL     1       4.202   6.822  16.594  0.00  0.00    +0.000 C 
ATOM     29  C   UNL     1       3.367   5.991  18.818  0.00  0.00    +0.000 A 
ATOM     30  C   UNL     1       2.537   6.108  19.957  0.00  0.00    +0.000 A 
ATOM     31  C   UNL     1       2.423   4.902  20.852  0.00  0.00    +0.000 C 
ATOM     32  C   UNL     1       1.785   7.292  20.184  0.00  0.00    +0.000 A 
ATOM     33  N   UNL     1       0.921   7.445  21.213  0.00  0.00    +0.000 NA
ATOM     34  C   UNL     1       0.187   8.589  21.264  0.00  0.00    +0.000 A 
BRANCH  34  35
ATOM     35  O   UNL     1      -0.698   8.589  22.311  0.00  0.00    +0.000 OA
ATOM     36  H   UNL     1      -1.225   7.806  22.083  0.00  0.00    +0.000 HD
ENDBRANCH  34  35
ENDBRANCH  22  23
ENDBRANCH   1  22
TORSDOF 8
ENDMDL
MODEL 8
REMARK VINA RESULT:      -6.8      2.418      4.658
REMARK  Name = 
REMARK  12 active torsions:
REMARK  status: ('A' for Active; 'I' for Inactive)
REMARK    1  A    between atoms: C_1  and  C_2
REMARK    2  A    between atoms: C_2  and  N_3
REMARK    3  A    between atoms: C_7  and  C_8
REMARK    4  A    between atoms: C_8  and  N_9
REMARK    5  A    between atoms: N_9  and  C_10
REMARK    6  A    between atoms: C_10  and  C_11
REMARK    7  A    between atoms: C_15  and  C_16
REMARK    8  A    between atoms: C_18  and  C_19
REMARK    9  A    between atoms: C_22  and  O_23
REMARK   10  A    between atoms: N_26  and  C_27
REMARK   11  A    between atoms: C_32  and  O_33
REMARK   12  A    between atoms: O_33  and  C_34
REMARK                            x       y       z     vdW  Elec       q    Type
REMARK                         _______ _______ _______ _____ _____    ______ ____
ROOT
ATOM      1  N   UNL     1      -0.447  12.043  19.487  0.00  0.00    +0.000 N 
ATOM      2  C   UNL     1       0.251  13.188  19.863  0.00  0.00    +0.000 C 
ATOM      3  O   UNL     1       0.289  14.182  19.135  0.00  0.00    +0.000 OA
ATOM      4  N   UNL     1       0.876  13.151  21.091  0.00  0.00    +0.000 N 
ATOM      5  H   UNL     1       1.354  12.287  21.298  0.00  0.00    +0.000 HD
ENDROOT
BRANCH   4   6
ATOM      6  C   UNL     1       1.456  14.339  21.607  0.00  0.00    +0.000 A 
ATOM      7  C   UNL     1       2.834  14.537  21.396  0.00  0.00    +0.000 A 
ATOM      8  C   UNL     1       3.473  15.701  21.823  0.00  0.00    +0.000 A 
ATOM      9  C   UNL     1       2.743  16.678  22.485  0.00  0.00    +0.000 A 
ATOM     10  C   UNL     1       1.373  16.495  22.701  0.00  0.00    +0.000 A 
ATOM     11  C   UNL     1       0.717  15.335  22.260  0.00  0.00    +0.000 A 
BRANCH  11  12
ATOM     12  O   UNL     1      -0.632  15.325  22.499  0.00  0.00    +0.000 OA
ATOM     13  C   UNL     1      -1.045  14.850  23.776  0.00  0.00    +0.000 C 
ENDBRANCH  11  12
ENDBRANCH   4   6
BRANCH   1  14
ATOM     14  C   UNL     1      -1.193  12.147  18.203  0.00  0.00    +0.000 C 
BRANCH  14  19
ATOM     15  N   UNL     1      -3.587  11.672  17.467  0.00  0.00    +0.000 NA
ATOM     16  C   UNL     1      -3.994  10.990  16.225  0.00  0.00    +0.000 C 
ATOM     17  C   UNL     1      -3.198   9.703  16.140  0.00  0.00    +0.000 C 
ATOM     18  C   UNL     1      -1.897  10.067  16.810  0.00  0.00    +0.000 C 
ATOM     19  C   UNL     1      -2.293  11.077  17.897  0.00  0.00    +0.000 C 
BRANCH  15  21
ATOM     20  C   UNL     1      -6.117  11.460  17.922  0.00  0.00    +0.000 C 
ATOM     21  C   UNL     1      -4.690  11.586  18.448  0.00  0.00    +0.000 C 
ENDBRANCH  15  21
ENDBRANCH  14  19
ENDBRANCH   1  14
BRANCH   1  22
ATOM     22  C   UNL     1      -0.758  10.921  20.406  0.00  0.00    +0.000 C 
BRANCH  22  23
ATOM     23  C   UNL     1       0.233   9.764  20.406  0.00  0.00    +0.000 A 
ATOM     24  C   UNL     1       1.159   9.622  19.380  0.00  0.00    +0.000 A 
ATOM     25  C   UNL     1       1.900   8.441  19.232  0.00  0.00    +0.000 A 
ATOM     26  C   UNL     1       2.719   8.312  18.105  0.00  0.00    +0.000 A 
ATOM     27  C   UNL     1       3.404   7.128  17.853  0.00  0.00    +0.000 A 
ATOM     28  C   UNL     1       4.147   6.945  16.563  0.00  0.00    +0.000 C 
ATOM     29  C   UNL     1       3.321   6.097  18.784  0.00  0.00    +0.000 A 
ATOM     30  C   UNL     1       2.497   6.207  19.929  0.00  0.00    +0.000 A 
ATOM     31  C   UNL     1       2.384   4.993  20.813  0.00  0.00    +0.000 C 
ATOM     32  C   UNL     1       1.750   7.390  20.170  0.00  0.00    +0.000 A 
ATOM     33  N   UNL     1       0.892   7.537  21.204  0.00  0.00    +0.000 NA
ATOM     34  C   UNL     1       0.162   8.683  21.269  0.00  0.00    +0.000 A 
BRANCH  34  35
ATOM     35  O   UNL     1      -0.718   8.677  22.322  0.00  0.00    +0.000 OA
ATOM     36  H   UNL     1      -1.108   7.795  22.205  0.00  0.00    +0.000 HD
ENDBRANCH  34  35
ENDBRANCH  22  23
ENDBRANCH   1  22
TORSDOF 8
ENDMDL
MODEL 9
REMARK VINA RESULT:      -6.8      2.480      5.741
REMARK  Name = 
REMARK  12 active torsions:
REMARK  status: ('A' for Active; 'I' for Inactive)
REMARK    1  A    between atoms: C_1  and  C_2
REMARK    2  A    between atoms: C_2  and  N_3
REMARK    3  A    between atoms: C_7  and  C_8
REMARK    4  A    between atoms: C_8  and  N_9
REMARK    5  A    between atoms: N_9  and  C_10
REMARK    6  A    between atoms: C_10  and  C_11
REMARK    7  A    between atoms: C_15  and  C_16
REMARK    8  A    between atoms: C_18  and  C_19
REMARK    9  A    between atoms: C_22  and  O_23
REMARK   10  A    between atoms: N_26  and  C_27
REMARK   11  A    between atoms: C_32  and  O_33
REMARK   12  A    between atoms: O_33  and  C_34
REMARK                            x       y       z     vdW  Elec       q    Type
REMARK                         _______ _______ _______ _____ _____    ______ ____
ROOT
ATOM      1  N   UNL     1      -0.327  11.841  19.561  0.00  0.00    +0.000 N 
ATOM      2  C   UNL     1       0.026  13.044  18.955  0.00  0.00    +0.000 C 
ATOM      3  O   UNL     1      -0.826  13.787  18.464  0.00  0.00    +0.000 OA
ATOM      4  N   UNL     1       1.369  13.360  18.950  0.00  0.00    +0.000 N 
ATOM      5  H   UNL     1       1.984  12.591  18.735  0.00  0.00    +0.000 HD
ENDROOT
BRANCH   4   6
ATOM      6  C   UNL     1       1.774  14.645  18.505  0.00  0.00    +0.000 A 
ATOM      7  C   UNL     1       0.854  15.702  18.642  0.00  0.00    +0.000 A 
ATOM      8  C   UNL     1       1.189  17.006  18.279  0.00  0.00    +0.000 A 
ATOM      9  C   UNL     1       2.448  17.268  17.755  0.00  0.00    +0.000 A 
ATOM     10  C   UNL     1       3.372  16.227  17.614  0.00  0.00    +0.000 A 
ATOM     11  C   UNL     1       3.050  14.914  17.993  0.00  0.00    +0.000 A 
BRANCH  11  12
ATOM     12  O   UNL     1       4.075  14.017  17.842  0.00  0.00    +0.000 OA
ATOM     13  C   UNL     1       5.395  14.548  17.902  0.00  0.00    +0.000 C 
ENDBRANCH  11  12
ENDBRANCH   4   6
BRANCH   1  14
ATOM     14  C   UNL     1      -1.788  11.574  19.638  0.00  0.00    +0.000 C 
BRANCH  14  19
ATOM     15  N   UNL     1      -3.177  11.651  17.501  0.00  0.00    +0.000 NA
ATOM     16  C   UNL     1      -2.712  11.288  16.150  0.00  0.00    +0.000 C 
ATOM     17  C   UNL     1      -2.061   9.922  16.254  0.00  0.00    +0.000 C 
ATOM     18  C   UNL     1      -1.477   9.933  17.643  0.00  0.00    +0.000 C 
ATOM     19  C   UNL     1      -2.459  10.778  18.468  0.00  0.00    +0.000 C 
BRANCH  15  21
ATOM     20  C   UNL     1      -5.336  11.480  18.902  0.00  0.00    +0.000 C 
ATOM     21  C   UNL     1      -4.653  11.574  17.540  0.00  0.00    +0.000 C 
ENDBRANCH  15  21
ENDBRANCH  14  19
ENDBRANCH   1  14
BRANCH   1  22
ATOM     22  C   UNL     1       0.593  11.031  20.396  0.00  0.00    +0.000 C 
BRANCH  22  23
ATOM     23  C   UNL     1       1.087   9.730  19.774  0.00  0.00    +0.000 A 
ATOM     24  C   UNL     1       0.954   8.524  20.452  0.00  0.00    +0.000 A 
ATOM     25  C   UNL     1       1.620   7.371  20.015  0.00  0.00    +0.000 A 
ATOM     26  C   UNL     1       1.548   6.224  20.813  0.00  0.00    +0.000 A 
ATOM     27  C   UNL     1       2.266   5.079  20.482  0.00  0.00    +0.000 A 
ATOM     28  C   UNL     1       2.308   3.915  21.428  0.00  0.00    +0.000 C 
ATOM     29  C   UNL     1       2.999   5.067  19.299  0.00  0.00    +0.000 A 
ATOM     30  C   UNL     1       3.086   6.218  18.480  0.00  0.00    +0.000 A 
ATOM     31  C   UNL     1       3.998   6.141  17.284  0.00  0.00    +0.000 C 
ATOM     32  C   UNL     1       2.402   7.411  18.834  0.00  0.00    +0.000 A 
ATOM     33  N   UNL     1       2.497   8.564  18.135  0.00  0.00    +0.000 NA
ATOM     34  C   UNL     1       1.871   9.664  18.633  0.00  0.00    +0.000 A 
BRANCH  34  35
ATOM     35  O   UNL     1       2.102  10.781  17.871  0.00  0.00    +0.000 OA
ATOM     36  H   UNL     1       1.664  10.512  17.048  0.00  0.00    +0.000 HD
ENDBRANCH  34  35
ENDBRANCH  22  23
ENDBRANCH   1  22
TORSDOF 8
ENDMDL
