MODEL 1
REMARK VINA RESULT:      -9.5      0.000      0.000
REMARK  Name = 
REMARK  9 active torsions:
REMARK  status: ('A' for Active; 'I' for Inactive)
REMARK    1  A    between atoms: C_2  and  C_4
REMARK    2  A    between atoms: C_7  and  O_8
REMARK    3  A    between atoms: O_8  and  C_9
REMARK    4  A    between atoms: C_9  and  C_10
REMARK    5  A    between atoms: C_15  and  N_16
REMARK    6  A    between atoms: N_16  and  C_17
REMARK    7  A    between atoms: C_17  and  C_18
REMARK    8  A    between atoms: C_24  and  C_26
REMARK    9  A    between atoms: C_26  and  O_28
REMARK                            x       y       z     vdW  Elec       q    Type
REMARK                         _______ _______ _______ _____ _____    ______ ____
ROOT
ATOM      1  C   UNL     1       1.724   7.989  20.312  0.00  0.00    +0.000 C 
ATOM      2  C   UNL     1       1.506   6.518  20.682  0.00  0.00    +0.000 C 
ATOM      3  O   UNL     1       2.592   5.653  20.327  0.00  0.00    +0.000 OA
ATOM      4  C   UNL     1       3.246   6.029  19.185  0.00  0.00    +0.000 A 
ATOM      5  C   UNL     1       4.234   5.148  18.711  0.00  0.00    +0.000 A 
ATOM      6  C   UNL     1       4.996   5.492  17.585  0.00  0.00    +0.000 A 
ATOM      7  C   UNL     1       4.757   6.704  16.932  0.00  0.00    +0.000 A 
ATOM      8  C   UNL     1       3.752   7.565  17.396  0.00  0.00    +0.000 A 
ATOM      9  C   UNL     1       3.003   7.228  18.525  0.00  0.00    +0.000 A 
ATOM     10  O   UNL     1       2.040   8.118  18.915  0.00  0.00    +0.000 OA
ENDROOT
BRANCH   6  11
ATOM     11  N   UNL     1       6.063   4.657  17.164  0.00  0.00    +0.000 N 
ATOM     12  C   UNL     1       7.359   4.772  17.666  0.00  0.00    +0.000 C 
ATOM     13  O   UNL     1       8.316   4.082  17.299  0.00  0.00    +0.000 OA
BRANCH  12  14
ATOM     14  C   UNL     1       7.710   5.815  18.760  0.00  0.00    +0.000 C 
ATOM     15  O   UNL     1       8.120   6.946  18.594  0.00  0.00    +0.000 OA
BRANCH  14  16
ATOM     16  O   UNL     1       7.493   5.261  19.974  0.00  0.00    +0.000 OA
ATOM     17  H   UNL     1       7.276   4.305  19.848  0.00  0.00    +0.000 HD
ENDBRANCH  14  16
ENDBRANCH  12  14
BRANCH  11  18
ATOM     18  C   UNL     1       5.797   3.637  16.141  0.00  0.00    +0.000 C 
BRANCH  18  19
ATOM     19  C   UNL     1       6.247   4.066  14.760  0.00  0.00    +0.000 A 
ATOM     20  C   UNL     1       5.779   3.389  13.626  0.00  0.00    +0.000 A 
ATOM     21  C   UNL     1       6.301   3.674  12.364  0.00  0.00    +0.000 A 
ATOM     22  C   UNL     1       7.283   4.651  12.216  0.00  0.00    +0.000 A 
ATOM     23  C   UNL     1       7.704   5.382  13.324  0.00  0.00    +0.000 A 
ATOM     24  C   UNL     1       7.182   5.100  14.587  0.00  0.00    +0.000 A 
ENDBRANCH  18  19
ENDBRANCH  11  18
ENDBRANCH   6  11
BRANCH   1  25
ATOM     25  C   UNL     1       0.423   8.772  20.584  0.00  0.00    +0.000 C 
BRANCH  25  26
ATOM     26  O   UNL     1       0.497  10.094  20.033  0.00  0.00    +0.000 OA
BRANCH  26  30
ATOM     27  C   UNL     1      -2.663  11.128  17.502  0.00  0.00    +0.000 A 
ATOM     28  C   UNL     1      -1.790  10.080  17.196  0.00  0.00    +0.000 A 
ATOM     29  C   UNL     1      -0.752   9.756  18.077  0.00  0.00    +0.000 A 
ATOM     30  C   UNL     1      -0.571  10.477  19.261  0.00  0.00    +0.000 A 
ATOM     31  C   UNL     1      -1.480  11.486  19.589  0.00  0.00    +0.000 A 
ATOM     32  C   UNL     1      -2.518  11.816  18.710  0.00  0.00    +0.000 A 
BRANCH  27  34
ATOM     33  N   UNL     1      -3.548  11.388  15.277  0.00  0.00    +0.000 NA
ATOM     34  C   UNL     1      -3.741  11.514  16.548  0.00  0.00    +0.000 C 
ATOM     35  N   UNL     1      -4.918  12.025  17.019  0.00  0.00    +0.000 N 
ATOM     36  H   UNL     1      -4.393  11.659  14.772  0.00  0.00    +0.000 HD
ATOM     37  H   UNL     1      -5.453  12.569  16.353  0.00  0.00    +0.000 HD
ATOM     38  H   UNL     1      -4.856  12.498  17.915  0.00  0.00    +0.000 HD
ENDBRANCH  27  34
ENDBRANCH  26  30
ENDBRANCH  25  26
ENDBRANCH   1  25
TORSDOF 9
ENDMDL
MODEL 2
REMARK VINA RESULT:      -9.4      2.542      3.810
REMARK  Name = 
REMARK  9 active torsions:
REMARK  status: ('A' for Active; 'I' for Inactive)
REMARK    1  A    between atoms: C_2  and  C_4
REMARK    2  A    between atoms: C_7  and  O_8
REMARK    3  A    between atoms: O_8  and  C_9
REMARK    4  A    between atoms: C_9  and  C_10
REMARK    5  A    between atoms: C_15  and  N_16
REMARK    6  A    between atoms: N_16  and  C_17
REMARK    7  A    between atoms: C_17  and  C_18
REMARK    8  A    between atoms: C_24  and  C_26
REMARK    9  A    between atoms: C_26  and  O_28
REMARK                            x       y       z     vdW  Elec       q    Type
REMARK                         _______ _______ _______ _____ _____    ______ ____
ROOT
ATOM      1  C   UNL     1       0.914  10.365  20.135  0.00  0.00    +0.000 C 
ATOM      2  C   UNL     1       0.325   9.469  21.229  0.00  0.00    +0.000 C 
ATOM      3  O   UNL     1       1.029   8.237  21.425  0.00  0.00    +0.000 OA
ATOM      4  C   UNL     1       1.576   7.725  20.279  0.00  0.00    +0.000 A 
ATOM      5  C   UNL     1       2.165   6.453  20.381  0.00  0.00    +0.000 A 
ATOM      6  C   UNL     1       2.807   5.887  19.269  0.00  0.00    +0.000 A 
ATOM      7  C   UNL     1       2.843   6.589  18.061  0.00  0.00    +0.000 A 
ATOM      8  C   UNL     1       2.231   7.847  17.962  0.00  0.00    +0.000 A 
ATOM      9  C   UNL     1       1.604   8.414  19.073  0.00  0.00    +0.000 A 
ATOM     10  O   UNL     1       1.029   9.643  18.896  0.00  0.00    +0.000 OA
ENDROOT
BRANCH   6  11
ATOM     11  N   UNL     1       3.492   4.652  19.393  0.00  0.00    +0.000 N 
ATOM     12  C   UNL     1       2.844   3.418  19.352  0.00  0.00    +0.000 C 
ATOM     13  O   UNL     1       3.406   2.326  19.487  0.00  0.00    +0.000 OA
BRANCH  12  14
ATOM     14  C   UNL     1       1.311   3.319  19.128  0.00  0.00    +0.000 C 
ATOM     15  O   UNL     1       0.721   3.316  18.066  0.00  0.00    +0.000 OA
BRANCH  14  16
ATOM     16  O   UNL     1       0.700   3.239  20.331  0.00  0.00    +0.000 OA
ATOM     17  H   UNL     1       0.731   2.299  20.637  0.00  0.00    +0.000 HD
ENDBRANCH  14  16
ENDBRANCH  12  14
BRANCH  11  18
ATOM     18  C   UNL     1       4.947   4.671  19.592  0.00  0.00    +0.000 C 
BRANCH  18  19
ATOM     19  C   UNL     1       5.708   4.910  18.305  0.00  0.00    +0.000 A 
ATOM     20  C   UNL     1       6.653   5.942  18.228  0.00  0.00    +0.000 A 
ATOM     21  C   UNL     1       7.248   6.268  17.008  0.00  0.00    +0.000 A 
ATOM     22  C   UNL     1       6.921   5.557  15.856  0.00  0.00    +0.000 A 
ATOM     23  C   UNL     1       6.040   4.482  15.933  0.00  0.00    +0.000 A 
ATOM     24  C   UNL     1       5.444   4.152  17.152  0.00  0.00    +0.000 A 
ENDBRANCH  18  19
ENDBRANCH  11  18
ENDBRANCH   6  11
BRANCH   1  25
ATOM     25  C   UNL     1      -0.030  11.563  19.906  0.00  0.00    +0.000 C 
BRANCH  25  26
ATOM     26  O   UNL     1      -0.611  11.513  18.596  0.00  0.00    +0.000 OA
BRANCH  26  30
ATOM     27  C   UNL     1      -4.772  11.310  18.259  0.00  0.00    +0.000 A 
ATOM     28  C   UNL     1      -3.931  10.530  17.460  0.00  0.00    +0.000 A 
ATOM     29  C   UNL     1      -2.542  10.617  17.613  0.00  0.00    +0.000 A 
ATOM     30  C   UNL     1      -1.982  11.486  18.555  0.00  0.00    +0.000 A 
ATOM     31  C   UNL     1      -2.828  12.222  19.388  0.00  0.00    +0.000 A 
ATOM     32  C   UNL     1      -4.217  12.141  19.237  0.00  0.00    +0.000 A 
BRANCH  27  34
ATOM     33  N   UNL     1      -6.947  10.375  18.698  0.00  0.00    +0.000 NA
ATOM     34  C   UNL     1      -6.249  11.263  18.071  0.00  0.00    +0.000 C 
ATOM     35  N   UNL     1      -6.856  12.139  17.217  0.00  0.00    +0.000 N 
ATOM     36  H   UNL     1      -7.938  10.505  18.488  0.00  0.00    +0.000 HD
ATOM     37  H   UNL     1      -7.767  11.854  16.876  0.00  0.00    +0.000 HD
ATOM     38  H   UNL     1      -6.272  12.482  16.461  0.00  0.00    +0.000 HD
ENDBRANCH  27  34
ENDBRANCH  26  30
ENDBRANCH  25  26
ENDBRANCH   1  25
TORSDOF 9
ENDMDL
MODEL 3
REMARK VINA RESULT:      -9.3      2.328      3.735
REMARK  Name = 
REMARK  9 active torsions:
REMARK  status: ('A' for Active; 'I' for Inactive)
REMARK    1  A    between atoms: C_2  and  C_4
REMARK    2  A    between atoms: C_7  and  O_8
REMARK    3  A    between atoms: O_8  and  C_9
REMARK    4  A    between atoms: C_9  and  C_10
REMARK    5  A    between atoms: C_15  and  N_16
REMARK    6  A    between atoms: N_16  and  C_17
REMARK    7  A    between atoms: C_17  and  C_18
REMARK    8  A    between atoms: C_24  and  C_26
REMARK    9  A    between atoms: C_26  and  O_28
REMARK                            x       y       z     vdW  Elec       q    Type
REMARK                         _______ _______ _______ _____ _____    ______ ____
ROOT
ATOM      1  C   UNL     1       0.562  10.744  20.787  0.00  0.00    +0.000 C 
ATOM      2  C   UNL     1       0.187   9.657  21.800  0.00  0.00    +0.000 C 
ATOM      3  O   UNL     1       1.013   8.488  21.745  0.00  0.00    +0.000 OA
ATOM      4  C   UNL     1       1.462   8.188  20.487  0.00  0.00    +0.000 A 
ATOM      5  C   UNL     1       2.167   6.980  20.345  0.00  0.00    +0.000 A 
ATOM      6  C   UNL     1       2.718   6.633  19.103  0.00  0.00    +0.000 A 
ATOM      7  C   UNL     1       2.550   7.486  18.009  0.00  0.00    +0.000 A 
ATOM      8  C   UNL     1       1.824   8.677  18.154  0.00  0.00    +0.000 A 
ATOM      9  C   UNL     1       1.287   9.028  19.393  0.00  0.00    +0.000 A 
ATOM     10  O   UNL     1       0.590  10.205  19.453  0.00  0.00    +0.000 OA
ENDROOT
BRANCH   6  11
ATOM     11  N   UNL     1       3.517   5.467  18.979  0.00  0.00    +0.000 N 
ATOM     12  C   UNL     1       2.978   4.185  18.889  0.00  0.00    +0.000 C 
ATOM     13  O   UNL     1       3.646   3.148  18.810  0.00  0.00    +0.000 OA
BRANCH  12  14
ATOM     14  C   UNL     1       1.444   3.953  18.883  0.00  0.00    +0.000 C 
ATOM     15  O   UNL     1       0.722   3.777  19.844  0.00  0.00    +0.000 OA
BRANCH  14  16
ATOM     16  O   UNL     1       1.006   3.970  17.603  0.00  0.00    +0.000 OA
ATOM     17  H   UNL     1       1.297   3.134  17.162  0.00  0.00    +0.000 HD
ENDBRANCH  14  16
ENDBRANCH  12  14
BRANCH  11  18
ATOM     18  C   UNL     1       4.978   5.615  18.962  0.00  0.00    +0.000 C 
BRANCH  18  19
ATOM     19  C   UNL     1       5.583   5.281  17.614  0.00  0.00    +0.000 A 
ATOM     20  C   UNL     1       6.811   4.611  17.542  0.00  0.00    +0.000 A 
ATOM     21  C   UNL     1       7.450   4.433  16.313  0.00  0.00    +0.000 A 
ATOM     22  C   UNL     1       6.862   4.906  15.142  0.00  0.00    +0.000 A 
ATOM     23  C   UNL     1       5.607   5.508  15.192  0.00  0.00    +0.000 A 
ATOM     24  C   UNL     1       4.965   5.685  16.419  0.00  0.00    +0.000 A 
ENDBRANCH  18  19
ENDBRANCH  11  18
ENDBRANCH   6  11
BRANCH   1  25
ATOM     25  C   UNL     1      -0.502  11.858  20.830  0.00  0.00    +0.000 C 
BRANCH  25  26
ATOM     26  O   UNL     1      -0.906  12.233  19.506  0.00  0.00    +0.000 OA
BRANCH  26  30
ATOM     27  C   UNL     1      -4.912  11.718  18.434  0.00  0.00    +0.000 A 
ATOM     28  C   UNL     1      -3.872  11.207  17.654  0.00  0.00    +0.000 A 
ATOM     29  C   UNL     1      -2.543  11.389  18.054  0.00  0.00    +0.000 A 
ATOM     30  C   UNL     1      -2.242  12.087  19.228  0.00  0.00    +0.000 A 
ATOM     31  C   UNL     1      -3.287  12.547  20.033  0.00  0.00    +0.000 A 
ATOM     32  C   UNL     1      -4.618  12.370  19.635  0.00  0.00    +0.000 A 
BRANCH  27  34
ATOM     33  N   UNL     1      -7.086  10.686  18.547  0.00  0.00    +0.000 NA
ATOM     34  C   UNL     1      -6.328  11.574  17.993  0.00  0.00    +0.000 C 
ATOM     35  N   UNL     1      -6.812  12.360  16.986  0.00  0.00    +0.000 N 
ATOM     36  H   UNL     1      -8.028  10.745  18.158  0.00  0.00    +0.000 HD
ATOM     37  H   UNL     1      -7.632  12.002  16.511  0.00  0.00    +0.000 HD
ATOM     38  H   UNL     1      -6.118  12.690  16.323  0.00  0.00    +0.000 HD
ENDBRANCH  27  34
ENDBRANCH  26  30
ENDBRANCH  25  26
ENDBRANCH   1  25
TORSDOF 9
ENDMDL
MODEL 4
REMARK VINA RESULT:      -9.3      2.676      4.114
REMARK  Name = 
REMARK  9 active torsions:
REMARK  status: ('A' for Active; 'I' for Inactive)
REMARK    1  A    between atoms: C_2  and  C_4
REMARK    2  A    between atoms: C_7  and  O_8
REMARK    3  A    between atoms: O_8  and  C_9
REMARK    4  A    between atoms: C_9  and  C_10
REMARK    5  A    between atoms: C_15  and  N_16
REMARK    6  A    between atoms: N_16  and  C_17
REMARK    7  A    between atoms: C_17  and  C_18
REMARK    8  A    between atoms: C_24  and  C_26
REMARK    9  A    between atoms: C_26  and  O_28
REMARK                            x       y       z     vdW  Elec       q    Type
REMARK                         _______ _______ _______ _____ _____    ______ ____
ROOT
ATOM      1  C   UNL     1       0.824   9.742  19.013  0.00  0.00    +0.000 C 
ATOM      2  C   UNL     1       1.976   9.819  18.006  0.00  0.00    +0.000 C 
ATOM      3  O   UNL     1       2.511   8.546  17.623  0.00  0.00    +0.000 OA
ATOM      4  C   UNL     1       2.475   7.609  18.620  0.00  0.00    +0.000 A 
ATOM      5  C   UNL     1       3.105   6.382  18.349  0.00  0.00    +0.000 A 
ATOM      6  C   UNL     1       3.054   5.346  19.293  0.00  0.00    +0.000 A 
ATOM      7  C   UNL     1       2.389   5.546  20.505  0.00  0.00    +0.000 A 
ATOM      8  C   UNL     1       1.785   6.783  20.777  0.00  0.00    +0.000 A 
ATOM      9  C   UNL     1       1.825   7.809  19.832  0.00  0.00    +0.000 A 
ATOM     10  O   UNL     1       1.214   8.986  20.172  0.00  0.00    +0.000 OA
ENDROOT
BRANCH   6  11
ATOM     11  N   UNL     1       3.597   4.072  18.983  0.00  0.00    +0.000 N 
ATOM     12  C   UNL     1       2.846   3.046  18.412  0.00  0.00    +0.000 C 
ATOM     13  O   UNL     1       3.281   1.917  18.158  0.00  0.00    +0.000 OA
BRANCH  12  14
ATOM     14  C   UNL     1       1.353   3.250  18.041  0.00  0.00    +0.000 C 
ATOM     15  O   UNL     1       0.895   4.037  17.237  0.00  0.00    +0.000 OA
BRANCH  14  16
ATOM     16  O   UNL     1       0.603   2.397  18.774  0.00  0.00    +0.000 OA
ATOM     17  H   UNL     1       1.128   1.574  18.932  0.00  0.00    +0.000 HD
ENDBRANCH  14  16
ENDBRANCH  12  14
BRANCH  11  18
ATOM     18  C   UNL     1       5.010   3.816  19.294  0.00  0.00    +0.000 C 
BRANCH  18  19
ATOM     19  C   UNL     1       5.952   4.684  18.485  0.00  0.00    +0.000 A 
ATOM     20  C   UNL     1       6.813   5.579  19.132  0.00  0.00    +0.000 A 
ATOM     21  C   UNL     1       7.574   6.489  18.396  0.00  0.00    +0.000 A 
ATOM     22  C   UNL     1       7.497   6.503  17.005  0.00  0.00    +0.000 A 
ATOM     23  C   UNL     1       6.700   5.570  16.346  0.00  0.00    +0.000 A 
ATOM     24  C   UNL     1       5.940   4.657  17.080  0.00  0.00    +0.000 A 
ENDBRANCH  18  19
ENDBRANCH  11  18
ENDBRANCH   6  11
BRANCH   1  25
ATOM     25  C   UNL     1       0.464  11.170  19.472  0.00  0.00    +0.000 C 
BRANCH  25  26
ATOM     26  O   UNL     1      -0.175  11.901  18.416  0.00  0.00    +0.000 OA
BRANCH  26  30
ATOM     27  C   UNL     1      -4.348  11.781  18.608  0.00  0.00    +0.000 A 
ATOM     28  C   UNL     1      -3.578  12.291  19.658  0.00  0.00    +0.000 A 
ATOM     29  C   UNL     1      -2.183  12.326  19.549  0.00  0.00    +0.000 A 
ATOM     30  C   UNL     1      -1.546  11.847  18.401  0.00  0.00    +0.000 A 
ATOM     31  C   UNL     1      -2.322  11.390  17.333  0.00  0.00    +0.000 A 
ATOM     32  C   UNL     1      -3.717  11.350  17.437  0.00  0.00    +0.000 A 
BRANCH  27  34
ATOM     33  N   UNL     1      -6.379  11.744  19.902  0.00  0.00    +0.000 NA
ATOM     34  C   UNL     1      -5.830  11.692  18.733  0.00  0.00    +0.000 C 
ATOM     35  N   UNL     1      -6.600  11.530  17.617  0.00  0.00    +0.000 N 
ATOM     36  H   UNL     1      -7.395  11.708  19.807  0.00  0.00    +0.000 HD
ATOM     37  H   UNL     1      -7.523  11.145  17.777  0.00  0.00    +0.000 HD
ATOM     38  H   UNL     1      -6.140  11.070  16.837  0.00  0.00    +0.000 HD
ENDBRANCH  27  34
ENDBRANCH  26  30
ENDBRANCH  25  26
ENDBRANCH   1  25
TORSDOF 9
ENDMDL
MODEL 5
REMARK VINA RESULT:      -9.3      2.329      3.799
REMARK  Name = 
REMARK  9 active torsions:
REMARK  status: ('A' for Active; 'I' for Inactive)
REMARK    1  A    between atoms: C_2  and  C_4
REMARK    2  A    between atoms: C_7  and  O_8
REMARK    3  A    between atoms: O_8  and  C_9
REMARK    4  A    between atoms: C_9  and  C_10
REMARK    5  A    between atoms: C_15  and  N_16
REMARK    6  A    between atoms: N_16  and  C_17
REMARK    7  A    between atoms: C_17  and  C_18
REMARK    8  A    between atoms: C_24  and  C_26
REMARK    9  A    between atoms: C_26  and  O_28
REMARK                            x       y       z     vdW  Elec       q    Type
REMARK                         _______ _______ _______ _____ _____    ______ ____
ROOT
ATOM      1  C   UNL     1       0.495  10.711  20.751  0.00  0.00    +0.000 C 
ATOM      2  C   UNL     1       0.121   9.620  21.761  0.00  0.00    +0.000 C 
ATOM      3  O   UNL     1       0.959   8.459  21.713  0.00  0.00    +0.000 OA
ATOM      4  C   UNL     1       1.423   8.165  20.459  0.00  0.00    +0.000 A 
ATOM      5  C   UNL     1       2.141   6.963  20.324  0.00  0.00    +0.000 A 
ATOM      6  C   UNL     1       2.707   6.622  19.087  0.00  0.00    +0.000 A 
ATOM      7  C   UNL     1       2.542   7.474  17.992  0.00  0.00    +0.000 A 
ATOM      8  C   UNL     1       1.803   8.658  18.130  0.00  0.00    +0.000 A 
ATOM      9  C   UNL     1       1.250   9.003  19.365  0.00  0.00    +0.000 A 
ATOM     10  O   UNL     1       0.542  10.173  19.418  0.00  0.00    +0.000 OA
ENDROOT
BRANCH   6  11
ATOM     11  N   UNL     1       3.519   5.464  18.970  0.00  0.00    +0.000 N 
ATOM     12  C   UNL     1       2.994   4.176  18.882  0.00  0.00    +0.000 C 
ATOM     13  O   UNL     1       3.673   3.146  18.809  0.00  0.00    +0.000 OA
BRANCH  12  14
ATOM     14  C   UNL     1       1.462   3.929  18.870  0.00  0.00    +0.000 C 
ATOM     15  O   UNL     1       0.740   3.733  19.827  0.00  0.00    +0.000 OA
BRANCH  14  16
ATOM     16  O   UNL     1       1.027   3.956  17.590  0.00  0.00    +0.000 OA
ATOM     17  H   UNL     1       0.540   4.804  17.442  0.00  0.00    +0.000 HD
ENDBRANCH  14  16
ENDBRANCH  12  14
BRANCH  11  18
ATOM     18  C   UNL     1       4.979   5.627  18.960  0.00  0.00    +0.000 C 
BRANCH  18  19
ATOM     19  C   UNL     1       5.593   5.292  17.616  0.00  0.00    +0.000 A 
ATOM     20  C   UNL     1       6.829   4.634  17.553  0.00  0.00    +0.000 A 
ATOM     21  C   UNL     1       7.475   4.456  16.328  0.00  0.00    +0.000 A 
ATOM     22  C   UNL     1       6.888   4.917  15.152  0.00  0.00    +0.000 A 
ATOM     23  C   UNL     1       5.627   5.508  15.193  0.00  0.00    +0.000 A 
ATOM     24  C   UNL     1       4.977   5.685  16.416  0.00  0.00    +0.000 A 
ENDBRANCH  18  19
ENDBRANCH  11  18
ENDBRANCH   6  11
BRANCH   1  25
ATOM     25  C   UNL     1      -0.580  11.815  20.785  0.00  0.00    +0.000 C 
BRANCH  25  26
ATOM     26  O   UNL     1      -0.866  12.291  19.463  0.00  0.00    +0.000 OA
BRANCH  26  30
ATOM     27  C   UNL     1      -4.860  11.743  18.362  0.00  0.00    +0.000 A 
ATOM     28  C   UNL     1      -4.508  12.325  19.583  0.00  0.00    +0.000 A 
ATOM     29  C   UNL     1      -3.159  12.504  19.909  0.00  0.00    +0.000 A 
ATOM     30  C   UNL     1      -2.153  12.097  19.027  0.00  0.00    +0.000 A 
ATOM     31  C   UNL     1      -2.511  11.567  17.785  0.00  0.00    +0.000 A 
ATOM     32  C   UNL     1      -3.859  11.384  17.455  0.00  0.00    +0.000 A 
BRANCH  27  34
ATOM     33  N   UNL     1      -6.874  12.236  17.135  0.00  0.00    +0.000 NA
ATOM     34  C   UNL     1      -6.292  11.502  18.026  0.00  0.00    +0.000 C 
ATOM     35  N   UNL     1      -6.991  10.526  18.677  0.00  0.00    +0.000 N 
ATOM     36  H   UNL     1      -7.834  11.916  16.999  0.00  0.00    +0.000 HD
ATOM     37  H   UNL     1      -7.999  10.630  18.663  0.00  0.00    +0.000 HD
ATOM     38  H   UNL     1      -6.658  10.305  19.610  0.00  0.00    +0.000 HD
ENDBRANCH  27  34
ENDBRANCH  26  30
ENDBRANCH  25  26
ENDBRANCH   1  25
TORSDOF 9
ENDMDL
MODEL 6
REMARK VINA RESULT:      -9.3      3.256      4.709
REMARK  Name = 
REMARK  9 active torsions:
REMARK  status: ('A' for Active; 'I' for Inactive)
REMARK    1  A    between atoms: C_2  and  C_4
REMARK    2  A    between atoms: C_7  and  O_8
REMARK    3  A    between atoms: O_8  and  C_9
REMARK    4  A    between atoms: C_9  and  C_10
REMARK    5  A    between atoms: C_15  and  N_16
REMARK    6  A    between atoms: N_16  and  C_17
REMARK    7  A    between atoms: C_17  and  C_18
REMARK    8  A    between atoms: C_24  and  C_26
REMARK    9  A    between atoms: C_26  and  O_28
REMARK                            x       y       z     vdW  Elec       q    Type
REMARK                         _______ _______ _______ _____ _____    ______ ____
ROOT
ATOM      1  C   UNL     1       0.788   9.755  19.025  0.00  0.00    +0.000 C 
ATOM      2  C   UNL     1       1.936   9.835  18.014  0.00  0.00    +0.000 C 
ATOM      3  O   UNL     1       2.477   8.564  17.633  0.00  0.00    +0.000 OA
ATOM      4  C   UNL     1       2.450   7.630  18.633  0.00  0.00    +0.000 A 
ATOM      5  C   UNL     1       3.086   6.406  18.363  0.00  0.00    +0.000 A 
ATOM      6  C   UNL     1       3.045   5.372  19.311  0.00  0.00    +0.000 A 
ATOM      7  C   UNL     1       2.382   5.573  20.525  0.00  0.00    +0.000 A 
ATOM      8  C   UNL     1       1.772   6.807  20.795  0.00  0.00    +0.000 A 
ATOM      9  C   UNL     1       1.803   7.830  19.847  0.00  0.00    +0.000 A 
ATOM     10  O   UNL     1       1.186   9.004  20.185  0.00  0.00    +0.000 OA
ENDROOT
BRANCH   6  11
ATOM     11  N   UNL     1       3.594   4.101  19.003  0.00  0.00    +0.000 N 
ATOM     12  C   UNL     1       2.849   3.072  18.430  0.00  0.00    +0.000 C 
ATOM     13  O   UNL     1       3.289   1.945  18.178  0.00  0.00    +0.000 OA
BRANCH  12  14
ATOM     14  C   UNL     1       1.357   3.269  18.054  0.00  0.00    +0.000 C 
ATOM     15  O   UNL     1       0.900   4.036  17.230  0.00  0.00    +0.000 OA
BRANCH  14  16
ATOM     16  O   UNL     1       0.604   2.437  18.809  0.00  0.00    +0.000 OA
ATOM     17  H   UNL     1       0.134   1.808  18.208  0.00  0.00    +0.000 HD
ENDBRANCH  14  16
ENDBRANCH  12  14
BRANCH  11  18
ATOM     18  C   UNL     1       5.006   3.851  19.319  0.00  0.00    +0.000 C 
BRANCH  18  19
ATOM     19  C   UNL     1       5.948   4.708  18.499  0.00  0.00    +0.000 A 
ATOM     20  C   UNL     1       6.818   5.604  19.136  0.00  0.00    +0.000 A 
ATOM     21  C   UNL     1       7.579   6.505  18.389  0.00  0.00    +0.000 A 
ATOM     22  C   UNL     1       7.494   6.510  16.998  0.00  0.00    +0.000 A 
ATOM     23  C   UNL     1       6.689   5.576  16.350  0.00  0.00    +0.000 A 
ATOM     24  C   UNL     1       5.929   4.672  17.095  0.00  0.00    +0.000 A 
ENDBRANCH  18  19
ENDBRANCH  11  18
ENDBRANCH   6  11
BRANCH   1  25
ATOM     25  C   UNL     1       0.421  11.182  19.481  0.00  0.00    +0.000 C 
BRANCH  25  26
ATOM     26  O   UNL     1       0.464  11.290  20.910  0.00  0.00    +0.000 OA
BRANCH  26  30
ATOM     27  C   UNL     1      -3.181  12.493  22.564  0.00  0.00    +0.000 A 
ATOM     28  C   UNL     1      -2.865  12.738  21.225  0.00  0.00    +0.000 A 
ATOM     29  C   UNL     1      -1.639  12.307  20.705  0.00  0.00    +0.000 A 
ATOM     30  C   UNL     1      -0.717  11.638  21.516  0.00  0.00    +0.000 A 
ATOM     31  C   UNL     1      -1.061  11.347  22.838  0.00  0.00    +0.000 A 
ATOM     32  C   UNL     1      -2.284  11.778  23.364  0.00  0.00    +0.000 A 
BRANCH  27  34
ATOM     33  N   UNL     1      -5.403  13.398  22.355  0.00  0.00    +0.000 NA
ATOM     34  C   UNL     1      -4.461  12.992  23.141  0.00  0.00    +0.000 C 
ATOM     35  N   UNL     1      -4.624  13.043  24.496  0.00  0.00    +0.000 N 
ATOM     36  H   UNL     1      -6.219  13.668  22.907  0.00  0.00    +0.000 HD
ATOM     37  H   UNL     1      -5.339  13.682  24.824  0.00  0.00    +0.000 HD
ATOM     38  H   UNL     1      -3.768  13.143  25.032  0.00  0.00    +0.000 HD
ENDBRANCH  27  34
ENDBRANCH  26  30
ENDBRANCH  25  26
ENDBRANCH   1  25
TORSDOF 9
ENDMDL
MODEL 7
REMARK VINA RESULT:      -9.3      3.335      4.769
REMARK  Name = 
REMARK  9 active torsions:
REMARK  status: ('A' for Active; 'I' for Inactive)
REMARK    1  A    between atoms: C_2  and  C_4
REMARK    2  A    between atoms: C_7  and  O_8
REMARK    3  A    between atoms: O_8  and  C_9
REMARK    4  A    between atoms: C_9  and  C_10
REMARK    5  A    between atoms: C_15  and  N_16
REMARK    6  A    between atoms: N_16  and  C_17
REMARK    7  A    between atoms: C_17  and  C_18
REMARK    8  A    between atoms: C_24  and  C_26
REMARK    9  A    between atoms: C_26  and  O_28
REMARK                            x       y       z     vdW  Elec       q    Type
REMARK                         _______ _______ _______ _____ _____    ______ ____
ROOT
ATOM      1  C   UNL     1       0.787   9.890  19.067  0.00  0.00    +0.000 C 
ATOM      2  C   UNL     1       1.883   9.954  17.999  0.00  0.00    +0.000 C 
ATOM      3  O   UNL     1       2.386   8.676  17.591  0.00  0.00    +0.000 OA
ATOM      4  C   UNL     1       2.396   7.742  18.591  0.00  0.00    +0.000 A 
ATOM      5  C   UNL     1       3.000   6.509  18.290  0.00  0.00    +0.000 A 
ATOM      6  C   UNL     1       2.992   5.475  19.238  0.00  0.00    +0.000 A 
ATOM      7  C   UNL     1       2.394   5.684  20.483  0.00  0.00    +0.000 A 
ATOM      8  C   UNL     1       1.816   6.926  20.785  0.00  0.00    +0.000 A 
ATOM      9  C   UNL     1       1.813   7.950  19.836  0.00  0.00    +0.000 A 
ATOM     10  O   UNL     1       1.232   9.132  20.206  0.00  0.00    +0.000 OA
ENDROOT
BRANCH   6  11
ATOM     11  N   UNL     1       3.507   4.197  18.903  0.00  0.00    +0.000 N 
ATOM     12  C   UNL     1       2.695   3.125  18.536  0.00  0.00    +0.000 C 
ATOM     13  O   UNL     1       3.109   1.992  18.268  0.00  0.00    +0.000 OA
BRANCH  12  14
ATOM     14  C   UNL     1       1.154   3.278  18.435  0.00  0.00    +0.000 C 
ATOM     15  O   UNL     1       0.320   2.860  19.213  0.00  0.00    +0.000 OA
BRANCH  14  16
ATOM     16  O   UNL     1       0.858   3.964  17.308  0.00  0.00    +0.000 OA
ATOM     17  H   UNL     1       0.718   4.914  17.547  0.00  0.00    +0.000 HD
ENDBRANCH  14  16
ENDBRANCH  12  14
BRANCH  11  18
ATOM     18  C   UNL     1       4.959   3.986  18.963  0.00  0.00    +0.000 C 
BRANCH  18  19
ATOM     19  C   UNL     1       5.661   4.397  17.685  0.00  0.00    +0.000 A 
ATOM     20  C   UNL     1       6.687   5.350  17.722  0.00  0.00    +0.000 A 
ATOM     21  C   UNL     1       7.236   5.847  16.538  0.00  0.00    +0.000 A 
ATOM     22  C   UNL     1       6.779   5.386  15.306  0.00  0.00    +0.000 A 
ATOM     23  C   UNL     1       5.811   4.385  15.257  0.00  0.00    +0.000 A 
ATOM     24  C   UNL     1       5.262   3.885  16.439  0.00  0.00    +0.000 A 
ENDBRANCH  18  19
ENDBRANCH  11  18
ENDBRANCH   6  11
BRANCH   1  25
ATOM     25  C   UNL     1       0.464  11.321  19.541  0.00  0.00    +0.000 C 
BRANCH  25  26
ATOM     26  O   UNL     1      -0.944  11.584  19.452  0.00  0.00    +0.000 OA
BRANCH  26  30
ATOM     27  C   UNL     1      -3.055  12.366  22.973  0.00  0.00    +0.000 A 
ATOM     28  C   UNL     1      -3.575  12.690  21.717  0.00  0.00    +0.000 A 
ATOM     29  C   UNL     1      -2.843  12.400  20.560  0.00  0.00    +0.000 A 
ATOM     30  C   UNL     1      -1.586  11.793  20.646  0.00  0.00    +0.000 A 
ATOM     31  C   UNL     1      -1.095  11.421  21.900  0.00  0.00    +0.000 A 
ATOM     32  C   UNL     1      -1.823  11.712  23.060  0.00  0.00    +0.000 A 
BRANCH  27  34
ATOM     33  N   UNL     1      -4.590  11.846  24.754  0.00  0.00    +0.000 NA
ATOM     34  C   UNL     1      -3.803  12.716  24.213  0.00  0.00    +0.000 C 
ATOM     35  N   UNL     1      -3.677  13.963  24.757  0.00  0.00    +0.000 N 
ATOM     36  H   UNL     1      -4.992  12.230  25.610  0.00  0.00    +0.000 HD
ATOM     37  H   UNL     1      -4.433  14.250  25.367  0.00  0.00    +0.000 HD
ATOM     38  H   UNL     1      -3.433  14.698  24.102  0.00  0.00    +0.000 HD
ENDBRANCH  27  34
ENDBRANCH  26  30
ENDBRANCH  25  26
ENDBRANCH   1  25
TORSDOF 9
ENDMDL
MODEL 8
REMARK VINA RESULT:      -9.2      3.398      4.812
REMARK  Name = 
REMARK  9 active torsions:
REMARK  status: ('A' for Active; 'I' for Inactive)
REMARK    1  A    between atoms: C_2  and  C_4
REMARK    2  A    between atoms: C_7  and  O_8
REMARK    3  A    between atoms: O_8  and  C_9
REMARK    4  A    between atoms: C_9  and  C_10
REMARK    5  A    between atoms: C_15  and  N_16
REMARK    6  A    between atoms: N_16  and  C_17
REMARK    7  A    between atoms: C_17  and  C_18
REMARK    8  A    between atoms: C_24  and  C_26
REMARK    9  A    between atoms: C_26  and  O_28
REMARK                            x       y       z     vdW  Elec       q    Type
REMARK                         _______ _______ _______ _____ _____    ______ ____
ROOT
ATOM      1  C   UNL     1       0.825   9.734  19.047  0.00  0.00    +0.000 C 
ATOM      2  C   UNL     1       1.975   9.818  18.038  0.00  0.00    +0.000 C 
ATOM      3  O   UNL     1       2.512   8.548  17.648  0.00  0.00    +0.000 OA
ATOM      4  C   UNL     1       2.480   7.606  18.641  0.00  0.00    +0.000 A 
ATOM      5  C   UNL     1       3.112   6.382  18.363  0.00  0.00    +0.000 A 
ATOM      6  C   UNL     1       3.066   5.341  19.303  0.00  0.00    +0.000 A 
ATOM      7  C   UNL     1       2.401   5.535  20.517  0.00  0.00    +0.000 A 
ATOM      8  C   UNL     1       1.795   6.768  20.796  0.00  0.00    +0.000 A 
ATOM      9  C   UNL     1       1.831   7.799  19.855  0.00  0.00    +0.000 A 
ATOM     10  O   UNL     1       1.218   8.973  20.202  0.00  0.00    +0.000 OA
ENDROOT
BRANCH   6  11
ATOM     11  N   UNL     1       3.611   4.071  18.987  0.00  0.00    +0.000 N 
ATOM     12  C   UNL     1       2.863   3.047  18.408  0.00  0.00    +0.000 C 
ATOM     13  O   UNL     1       3.300   1.920  18.148  0.00  0.00    +0.000 OA
BRANCH  12  14
ATOM     14  C   UNL     1       1.371   3.251  18.034  0.00  0.00    +0.000 C 
ATOM     15  O   UNL     1       0.915   4.030  17.221  0.00  0.00    +0.000 OA
BRANCH  14  16
ATOM     16  O   UNL     1       0.618   2.409  18.777  0.00  0.00    +0.000 OA
ATOM     17  H   UNL     1       1.043   2.306  19.664  0.00  0.00    +0.000 HD
ENDBRANCH  14  16
ENDBRANCH  12  14
BRANCH  11  18
ATOM     18  C   UNL     1       5.023   3.814  19.300  0.00  0.00    +0.000 C 
BRANCH  18  19
ATOM     19  C   UNL     1       5.966   4.690  18.500  0.00  0.00    +0.000 A 
ATOM     20  C   UNL     1       6.843   5.563  19.159  0.00  0.00    +0.000 A 
ATOM     21  C   UNL     1       7.605   6.481  18.435  0.00  0.00    +0.000 A 
ATOM     22  C   UNL     1       7.514   6.527  17.046  0.00  0.00    +0.000 A 
ATOM     23  C   UNL     1       6.702   5.616  16.375  0.00  0.00    +0.000 A 
ATOM     24  C   UNL     1       5.940   4.695  17.096  0.00  0.00    +0.000 A 
ENDBRANCH  18  19
ENDBRANCH  11  18
ENDBRANCH   6  11
BRANCH   1  25
ATOM     25  C   UNL     1       0.462  11.158  19.512  0.00  0.00    +0.000 C 
BRANCH  25  26
ATOM     26  O   UNL     1      -0.916  11.450  19.240  0.00  0.00    +0.000 OA
BRANCH  26  30
ATOM     27  C   UNL     1      -3.040  12.571  22.660  0.00  0.00    +0.000 A 
ATOM     28  C   UNL     1      -1.802  11.928  22.742  0.00  0.00    +0.000 A 
ATOM     29  C   UNL     1      -1.115  11.581  21.573  0.00  0.00    +0.000 A 
ATOM     30  C   UNL     1      -1.660  11.864  20.316  0.00  0.00    +0.000 A 
ATOM     31  C   UNL     1      -2.871  12.556  20.240  0.00  0.00    +0.000 A 
ATOM     32  C   UNL     1      -3.563  12.903  21.407  0.00  0.00    +0.000 A 
BRANCH  27  34
ATOM     33  N   UNL     1      -3.322  13.754  24.739  0.00  0.00    +0.000 NA
ATOM     34  C   UNL     1      -3.803  12.900  23.897  0.00  0.00    +0.000 C 
ATOM     35  N   UNL     1      -4.994  12.279  24.149  0.00  0.00    +0.000 N 
ATOM     36  H   UNL     1      -3.983  13.891  25.505  0.00  0.00    +0.000 HD
ATOM     37  H   UNL     1      -5.286  12.278  25.119  0.00  0.00    +0.000 HD
ATOM     38  H   UNL     1      -5.099  11.360  23.733  0.00  0.00    +0.000 HD
ENDBRANCH  27  34
ENDBRANCH  26  30
ENDBRANCH  25  26
ENDBRANCH   1  25
TORSDOF 9
ENDMDL
MODEL 9
REMARK VINA RESULT:      -9.2      2.459      3.743
REMARK  Name = 
REMARK  9 active torsions:
REMARK  status: ('A' for Active; 'I' for Inactive)
REMARK    1  A    between atoms: C_2  and  C_4
REMARK    2  A    between atoms: C_7  and  O_8
REMARK    3  A    between atoms: O_8  and  C_9
REMARK    4  A    between atoms: C_9  and  C_10
REMARK    5  A    between atoms: C_15  and  N_16
REMARK    6  A    between atoms: N_16  and  C_17
REMARK    7  A    between atoms: C_17  and  C_18
REMARK    8  A    between atoms: C_24  and  C_26
REMARK    9  A    between atoms: C_26  and  O_28
REMARK                            x       y       z     vdW  Elec       q    Type
REMARK                         _______ _______ _______ _____ _____    ______ ____
ROOT
ATOM      1  C   UNL     1       0.630   9.769  19.028  0.00  0.00    +0.000 C 
ATOM      2  C   UNL     1       1.688   9.803  17.920  0.00  0.00    +0.000 C 
ATOM      3  O   UNL     1       2.204   8.517  17.556  0.00  0.00    +0.000 OA
ATOM      4  C   UNL     1       2.268   7.632  18.599  0.00  0.00    +0.000 A 
ATOM      5  C   UNL     1       2.888   6.398  18.336  0.00  0.00    +0.000 A 
ATOM      6  C   UNL     1       2.934   5.412  19.332  0.00  0.00    +0.000 A 
ATOM      7  C   UNL     1       2.375   5.669  20.587  0.00  0.00    +0.000 A 
ATOM      8  C   UNL     1       1.781   6.913  20.849  0.00  0.00    +0.000 A 
ATOM      9  C   UNL     1       1.724   7.889  19.852  0.00  0.00    +0.000 A 
ATOM     10  O   UNL     1       1.130   9.076  20.185  0.00  0.00    +0.000 OA
ENDROOT
BRANCH   6  11
ATOM     11  N   UNL     1       3.465   4.129  19.041  0.00  0.00    +0.000 N 
ATOM     12  C   UNL     1       2.664   3.019  18.777  0.00  0.00    +0.000 C 
ATOM     13  O   UNL     1       3.093   1.883  18.550  0.00  0.00    +0.000 OA
BRANCH  12  14
ATOM     14  C   UNL     1       1.116   3.130  18.750  0.00  0.00    +0.000 C 
ATOM     15  O   UNL     1       0.418   3.472  17.817  0.00  0.00    +0.000 OA
BRANCH  14  16
ATOM     16  O   UNL     1       0.634   2.783  19.965  0.00  0.00    +0.000 OA
ATOM     17  H   UNL     1       1.043   3.373  20.645  0.00  0.00    +0.000 HD
ENDBRANCH  14  16
ENDBRANCH  12  14
BRANCH  11  18
ATOM     18  C   UNL     1       4.923   3.956  19.035  0.00  0.00    +0.000 C 
BRANCH  18  19
ATOM     19  C   UNL     1       5.559   4.411  17.737  0.00  0.00    +0.000 A 
ATOM     20  C   UNL     1       5.225   3.778  16.532  0.00  0.00    +0.000 A 
ATOM     21  C   UNL     1       5.913   4.085  15.356  0.00  0.00    +0.000 A 
ATOM     22  C   UNL     1       6.929   5.038  15.367  0.00  0.00    +0.000 A 
ATOM     23  C   UNL     1       7.221   5.726  16.542  0.00  0.00    +0.000 A 
ATOM     24  C   UNL     1       6.532   5.423  17.719  0.00  0.00    +0.000 A 
ENDBRANCH  18  19
ENDBRANCH  11  18
ENDBRANCH   6  11
BRANCH   1  25
ATOM     25  C   UNL     1       0.293  11.214  19.444  0.00  0.00    +0.000 C 
BRANCH  25  26
ATOM     26  O   UNL     1      -0.356  11.916  18.374  0.00  0.00    +0.000 OA
BRANCH  26  30
ATOM     27  C   UNL     1      -4.502  11.541  18.013  0.00  0.00    +0.000 A 
ATOM     28  C   UNL     1      -3.636  11.128  16.997  0.00  0.00    +0.000 A 
ATOM     29  C   UNL     1      -2.252  11.258  17.162  0.00  0.00    +0.000 A 
ATOM     30  C   UNL     1      -1.723  11.807  18.334  0.00  0.00    +0.000 A 
ATOM     31  C   UNL     1      -2.590  12.166  19.369  0.00  0.00    +0.000 A 
ATOM     32  C   UNL     1      -3.975  12.040  19.208  0.00  0.00    +0.000 A 
BRANCH  27  34
ATOM     33  N   UNL     1      -6.571  12.262  17.014  0.00  0.00    +0.000 NA
ATOM     34  C   UNL     1      -5.978  11.453  17.829  0.00  0.00    +0.000 C 
ATOM     35  N   UNL     1      -6.702  10.538  18.539  0.00  0.00    +0.000 N 
ATOM     36  H   UNL     1      -7.568  12.044  16.978  0.00  0.00    +0.000 HD
ATOM     37  H   UNL     1      -7.689  10.743  18.633  0.00  0.00    +0.000 HD
ATOM     38  H   UNL     1      -6.297  10.262  19.428  0.00  0.00    +0.000 HD
ENDBRANCH  27  34
ENDBRANCH  26  30
ENDBRANCH  25  26
ENDBRANCH   1  25
TORSDOF 9
ENDMDL
