MODEL 1
REMARK VINA RESULT:      -6.8      0.000      0.000
REMARK  Name = 
REMARK  10 active torsions:
REMARK  status: ('A' for Active; 'I' for Inactive)
REMARK    1  A    between atoms: C_1  and  C_2
REMARK    2  A    between atoms: C_2  and  N_3
REMARK    3  A    between atoms: N_3  and  C_4
REMARK    4  A    between atoms: N_3  and  C_6
REMARK    5  A    between atoms: C_4  and  C_5
REMARK    6  A    between atoms: C_6  and  C_7
REMARK    7  A    between atoms: C_7  and  N_8
REMARK    8  A    between atoms: C_10  and  O_11
REMARK    9  A    between atoms: O_11  and  C_12
REMARK   10  A    between atoms: C_15  and  N_16
REMARK                            x       y       z     vdW  Elec       q    Type
REMARK                         _______ _______ _______ _____ _____    ______ ____
ROOT
ATOM      1  N   UNL     1       5.389   4.414  18.852  0.00  0.00    +0.000 N 
ATOM      2  N   UNL     1       6.287   5.132  19.568  0.00  0.00    +0.000 NA
ATOM      3  C   UNL     1       7.133   5.581  18.640  0.00  0.00    +0.000 A 
ATOM      4  C   UNL     1       6.804   5.158  17.337  0.00  0.00    +0.000 A 
ATOM      5  C   UNL     1       7.360   5.337  16.057  0.00  0.00    +0.000 A 
ATOM      6  C   UNL     1       6.723   4.728  14.966  0.00  0.00    +0.000 A 
ATOM      7  C   UNL     1       5.561   3.964  15.137  0.00  0.00    +0.000 A 
ATOM      8  C   UNL     1       5.002   3.786  16.410  0.00  0.00    +0.000 A 
ATOM      9  C   UNL     1       5.650   4.395  17.496  0.00  0.00    +0.000 A 
ENDROOT
BRANCH   6  10
ATOM     10  N   UNL     1       7.287   4.892  13.622  0.00  0.00    +0.000 N 
ATOM     11  O   UNL     1       8.190   5.734  13.471  0.00  0.00    +0.000 OA
ATOM     12  O   UNL     1       6.835   4.184  12.713  0.00  0.00    +0.000 OA
ENDBRANCH   6  10
BRANCH   3  13
ATOM     13  O   UNL     1       8.195   6.355  18.955  0.00  0.00    +0.000 OA
ATOM     14  C   UNL     1       8.163   7.663  18.400  0.00  0.00    +0.000 C 
ENDBRANCH   3  13
BRANCH   1  15
ATOM     15  C   UNL     1       4.307   3.726  19.547  0.00  0.00    +0.000 C 
BRANCH  15  16
ATOM     16  C   UNL     1       3.135   4.662  19.875  0.00  0.00    +0.000 C 
BRANCH  16  17
ATOM     17  N   UNL     1       2.035   4.703  18.878  0.00  0.00    +0.000 NA
BRANCH  17  19
ATOM     18  C   UNL     1       2.877   7.083  18.560  0.00  0.00    +0.000 C 
ATOM     19  C   UNL     1       2.288   5.819  17.940  0.00  0.00    +0.000 C 
ENDBRANCH  17  19
BRANCH  17  20
ATOM     20  C   UNL     1       1.771   3.421  18.212  0.00  0.00    +0.000 C 
ATOM     21  C   UNL     1       0.870   2.447  18.963  0.00  0.00    +0.000 C 
ENDBRANCH  17  20
ENDBRANCH  16  17
ENDBRANCH  15  16
ENDBRANCH   1  15
TORSDOF 7
ENDMDL
MODEL 2
REMARK VINA RESULT:      -6.8      3.657      6.337
REMARK  Name = 
REMARK  10 active torsions:
REMARK  status: ('A' for Active; 'I' for Inactive)
REMARK    1  A    between atoms: C_1  and  C_2
REMARK    2  A    between atoms: C_2  and  N_3
REMARK    3  A    between atoms: N_3  and  C_4
REMARK    4  A    between atoms: N_3  and  C_6
REMARK    5  A    between atoms: C_4  and  C_5
REMARK    6  A    between atoms: C_6  and  C_7
REMARK    7  A    between atoms: C_7  and  N_8
REMARK    8  A    between atoms: C_10  and  O_11
REMARK    9  A    between atoms: O_11  and  C_12
REMARK   10  A    between atoms: C_15  and  N_16
REMARK                            x       y       z     vdW  Elec       q    Type
REMARK                         _______ _______ _______ _____ _____    ______ ____
ROOT
ATOM      1  N   UNL     1       4.076   6.705  17.406  0.00  0.00    +0.000 N 
ATOM      2  N   UNL     1       3.400   7.863  17.599  0.00  0.00    +0.000 NA
ATOM      3  C   UNL     1       2.582   7.578  18.612  0.00  0.00    +0.000 A 
ATOM      4  C   UNL     1       2.709   6.253  19.073  0.00  0.00    +0.000 A 
ATOM      5  C   UNL     1       2.090   5.477  20.072  0.00  0.00    +0.000 A 
ATOM      6  C   UNL     1       2.500   4.144  20.224  0.00  0.00    +0.000 A 
ATOM      7  C   UNL     1       3.501   3.594  19.412  0.00  0.00    +0.000 A 
ATOM      8  C   UNL     1       4.121   4.364  18.419  0.00  0.00    +0.000 A 
ATOM      9  C   UNL     1       3.700   5.695  18.270  0.00  0.00    +0.000 A 
ENDROOT
BRANCH   6  10
ATOM     10  N   UNL     1       1.866   3.312  21.252  0.00  0.00    +0.000 N 
ATOM     11  O   UNL     1       0.741   2.842  21.005  0.00  0.00    +0.000 OA
ATOM     12  O   UNL     1       2.484   3.122  22.308  0.00  0.00    +0.000 OA
ENDBRANCH   6  10
BRANCH   3  13
ATOM     13  O   UNL     1       1.722   8.491  19.116  0.00  0.00    +0.000 OA
ATOM     14  C   UNL     1       1.337   9.512  18.206  0.00  0.00    +0.000 C 
ENDBRANCH   3  13
BRANCH   1  15
ATOM     15  C   UNL     1       5.058   6.620  16.331  0.00  0.00    +0.000 C 
BRANCH  15  16
ATOM     16  C   UNL     1       6.498   6.555  16.860  0.00  0.00    +0.000 C 
BRANCH  16  17
ATOM     17  N   UNL     1       7.257   5.322  16.531  0.00  0.00    +0.000 NA
BRANCH  17  19
ATOM     18  C   UNL     1       7.675   5.605  19.024  0.00  0.00    +0.000 C 
ATOM     19  C   UNL     1       7.738   4.710  17.790  0.00  0.00    +0.000 C 
ENDBRANCH  17  19
BRANCH  17  20
ATOM     20  C   UNL     1       6.543   4.384  15.655  0.00  0.00    +0.000 C 
ATOM     21  C   UNL     1       6.847   4.491  14.165  0.00  0.00    +0.000 C 
ENDBRANCH  17  20
ENDBRANCH  16  17
ENDBRANCH  15  16
ENDBRANCH   1  15
TORSDOF 7
ENDMDL
MODEL 3
REMARK VINA RESULT:      -6.7      1.207      2.154
REMARK  Name = 
REMARK  10 active torsions:
REMARK  status: ('A' for Active; 'I' for Inactive)
REMARK    1  A    between atoms: C_1  and  C_2
REMARK    2  A    between atoms: C_2  and  N_3
REMARK    3  A    between atoms: N_3  and  C_4
REMARK    4  A    between atoms: N_3  and  C_6
REMARK    5  A    between atoms: C_4  and  C_5
REMARK    6  A    between atoms: C_6  and  C_7
REMARK    7  A    between atoms: C_7  and  N_8
REMARK    8  A    between atoms: C_10  and  O_11
REMARK    9  A    between atoms: O_11  and  C_12
REMARK   10  A    between atoms: C_15  and  N_16
REMARK                            x       y       z     vdW  Elec       q    Type
REMARK                         _______ _______ _______ _____ _____    ______ ____
ROOT
ATOM      1  N   UNL     1       4.883   3.681  17.618  0.00  0.00    +0.000 N 
ATOM      2  N   UNL     1       5.685   4.046  18.647  0.00  0.00    +0.000 NA
ATOM      3  C   UNL     1       6.739   4.590  18.038  0.00  0.00    +0.000 A 
ATOM      4  C   UNL     1       6.639   4.575  16.632  0.00  0.00    +0.000 A 
ATOM      5  C   UNL     1       7.455   4.996  15.566  0.00  0.00    +0.000 A 
ATOM      6  C   UNL     1       6.993   4.793  14.258  0.00  0.00    +0.000 A 
ATOM      7  C   UNL     1       5.752   4.193  14.010  0.00  0.00    +0.000 A 
ATOM      8  C   UNL     1       4.935   3.774  15.069  0.00  0.00    +0.000 A 
ATOM      9  C   UNL     1       5.408   3.977  16.374  0.00  0.00    +0.000 A 
ENDROOT
BRANCH   6  10
ATOM     10  N   UNL     1       7.829   5.216  13.129  0.00  0.00    +0.000 N 
ATOM     11  O   UNL     1       8.785   5.975  13.367  0.00  0.00    +0.000 OA
ATOM     12  O   UNL     1       7.539   4.793  12.002  0.00  0.00    +0.000 OA
ENDBRANCH   6  10
BRANCH   3  13
ATOM     13  O   UNL     1       7.786   5.089  18.731  0.00  0.00    +0.000 OA
ATOM     14  C   UNL     1       7.892   6.506  18.712  0.00  0.00    +0.000 C 
ENDBRANCH   3  13
BRANCH   1  15
ATOM     15  C   UNL     1       3.622   3.004  17.899  0.00  0.00    +0.000 C 
BRANCH  15  16
ATOM     16  C   UNL     1       2.452   3.986  18.043  0.00  0.00    +0.000 C 
BRANCH  16  17
ATOM     17  N   UNL     1       1.939   4.191  19.422  0.00  0.00    +0.000 NA
BRANCH  17  19
ATOM     18  C   UNL     1       1.480   2.845  21.532  0.00  0.00    +0.000 C 
ATOM     19  C   UNL     1       2.265   2.996  20.232  0.00  0.00    +0.000 C 
ENDBRANCH  17  19
BRANCH  17  20
ATOM     20  C   UNL     1       2.355   5.456  20.043  0.00  0.00    +0.000 C 
ATOM     21  C   UNL     1       2.769   6.569  19.087  0.00  0.00    +0.000 C 
ENDBRANCH  17  20
ENDBRANCH  16  17
ENDBRANCH  15  16
ENDBRANCH   1  15
TORSDOF 7
ENDMDL
MODEL 4
REMARK VINA RESULT:      -6.6      0.463      1.862
REMARK  Name = 
REMARK  10 active torsions:
REMARK  status: ('A' for Active; 'I' for Inactive)
REMARK    1  A    between atoms: C_1  and  C_2
REMARK    2  A    between atoms: C_2  and  N_3
REMARK    3  A    between atoms: N_3  and  C_4
REMARK    4  A    between atoms: N_3  and  C_6
REMARK    5  A    between atoms: C_4  and  C_5
REMARK    6  A    between atoms: C_6  and  C_7
REMARK    7  A    between atoms: C_7  and  N_8
REMARK    8  A    between atoms: C_10  and  O_11
REMARK    9  A    between atoms: O_11  and  C_12
REMARK   10  A    between atoms: C_15  and  N_16
REMARK                            x       y       z     vdW  Elec       q    Type
REMARK                         _______ _______ _______ _____ _____    ______ ____
ROOT
ATOM      1  N   UNL     1       5.665   4.517  18.912  0.00  0.00    +0.000 N 
ATOM      2  N   UNL     1       6.512   5.385  19.515  0.00  0.00    +0.000 NA
ATOM      3  C   UNL     1       7.240   5.858  18.503  0.00  0.00    +0.000 A 
ATOM      4  C   UNL     1       6.886   5.305  17.257  0.00  0.00    +0.000 A 
ATOM      5  C   UNL     1       7.338   5.452  15.932  0.00  0.00    +0.000 A 
ATOM      6  C   UNL     1       6.714   4.693  14.931  0.00  0.00    +0.000 A 
ATOM      7  C   UNL     1       5.665   3.816  15.232  0.00  0.00    +0.000 A 
ATOM      8  C   UNL     1       5.210   3.669  16.549  0.00  0.00    +0.000 A 
ATOM      9  C   UNL     1       5.844   4.427  17.545  0.00  0.00    +0.000 A 
ENDROOT
BRANCH   6  10
ATOM     10  N   UNL     1       7.172   4.822  13.543  0.00  0.00    +0.000 N 
ATOM     11  O   UNL     1       6.708   4.031  12.703  0.00  0.00    +0.000 OA
ATOM     12  O   UNL     1       7.993   5.711  13.284  0.00  0.00    +0.000 OA
ENDBRANCH   6  10
BRANCH   3  13
ATOM     13  O   UNL     1       8.219   6.771  18.692  0.00  0.00    +0.000 OA
ATOM     14  C   UNL     1       8.008   8.013  18.035  0.00  0.00    +0.000 C 
ENDBRANCH   3  13
BRANCH   1  15
ATOM     15  C   UNL     1       4.718   3.761  19.724  0.00  0.00    +0.000 C 
BRANCH  15  16
ATOM     16  C   UNL     1       3.366   4.476  19.861  0.00  0.00    +0.000 C 
BRANCH  16  17
ATOM     17  N   UNL     1       2.367   4.191  18.799  0.00  0.00    +0.000 NA
BRANCH  17  19
ATOM     18  C   UNL     1       0.623   2.341  18.878  0.00  0.00    +0.000 C 
ATOM     19  C   UNL     1       1.138   3.665  19.433  0.00  0.00    +0.000 C 
ENDBRANCH  17  19
BRANCH  17  20
ATOM     20  C   UNL     1       2.124   5.309  17.878  0.00  0.00    +0.000 C 
ATOM     21  C   UNL     1       2.776   6.637  18.246  0.00  0.00    +0.000 C 
ENDBRANCH  17  20
ENDBRANCH  16  17
ENDBRANCH  15  16
ENDBRANCH   1  15
TORSDOF 7
ENDMDL
MODEL 5
REMARK VINA RESULT:      -6.6      1.166      1.818
REMARK  Name = 
REMARK  10 active torsions:
REMARK  status: ('A' for Active; 'I' for Inactive)
REMARK    1  A    between atoms: C_1  and  C_2
REMARK    2  A    between atoms: C_2  and  N_3
REMARK    3  A    between atoms: N_3  and  C_4
REMARK    4  A    between atoms: N_3  and  C_6
REMARK    5  A    between atoms: C_4  and  C_5
REMARK    6  A    between atoms: C_6  and  C_7
REMARK    7  A    between atoms: C_7  and  N_8
REMARK    8  A    between atoms: C_10  and  O_11
REMARK    9  A    between atoms: O_11  and  C_12
REMARK   10  A    between atoms: C_15  and  N_16
REMARK                            x       y       z     vdW  Elec       q    Type
REMARK                         _______ _______ _______ _____ _____    ______ ____
ROOT
ATOM      1  N   UNL     1       5.041   3.993  17.969  0.00  0.00    +0.000 N 
ATOM      2  N   UNL     1       5.968   4.335  18.896  0.00  0.00    +0.000 NA
ATOM      3  C   UNL     1       6.997   4.757  18.161  0.00  0.00    +0.000 A 
ATOM      4  C   UNL     1       6.758   4.685  16.775  0.00  0.00    +0.000 A 
ATOM      5  C   UNL     1       7.496   4.985  15.615  0.00  0.00    +0.000 A 
ATOM      6  C   UNL     1       6.892   4.762  14.368  0.00  0.00    +0.000 A 
ATOM      7  C   UNL     1       5.588   4.259  14.272  0.00  0.00    +0.000 A 
ATOM      8  C   UNL     1       4.849   3.962  15.425  0.00  0.00    +0.000 A 
ATOM      9  C   UNL     1       5.463   4.184  16.667  0.00  0.00    +0.000 A 
ENDROOT
BRANCH   6  10
ATOM     10  N   UNL     1       7.644   5.058  13.144  0.00  0.00    +0.000 N 
ATOM     11  O   UNL     1       8.576   5.878  13.220  0.00  0.00    +0.000 OA
ATOM     12  O   UNL     1       7.311   4.475  12.104  0.00  0.00    +0.000 OA
ENDBRANCH   6  10
BRANCH   3  13
ATOM     13  O   UNL     1       8.145   5.196  18.724  0.00  0.00    +0.000 OA
ATOM     14  C   UNL     1       8.192   6.595  18.966  0.00  0.00    +0.000 C 
ENDBRANCH   3  13
BRANCH   1  15
ATOM     15  C   UNL     1       3.763   3.440  18.404  0.00  0.00    +0.000 C 
BRANCH  15  16
ATOM     16  C   UNL     1       3.145   4.240  19.559  0.00  0.00    +0.000 C 
BRANCH  16  17
ATOM     17  N   UNL     1       1.671   4.137  19.708  0.00  0.00    +0.000 NA
BRANCH  17  19
ATOM     18  C   UNL     1       0.503   2.130  18.671  0.00  0.00    +0.000 C 
ATOM     19  C   UNL     1       1.113   3.516  18.487  0.00  0.00    +0.000 C 
ENDBRANCH  17  19
BRANCH  17  20
ATOM     20  C   UNL     1       1.231   3.491  20.952  0.00  0.00    +0.000 C 
ATOM     21  C   UNL     1       2.313   2.789  21.765  0.00  0.00    +0.000 C 
ENDBRANCH  17  20
ENDBRANCH  16  17
ENDBRANCH  15  16
ENDBRANCH   1  15
TORSDOF 7
ENDMDL
MODEL 6
REMARK VINA RESULT:      -6.6      1.284      1.423
REMARK  Name = 
REMARK  10 active torsions:
REMARK  status: ('A' for Active; 'I' for Inactive)
REMARK    1  A    between atoms: C_1  and  C_2
REMARK    2  A    between atoms: C_2  and  N_3
REMARK    3  A    between atoms: N_3  and  C_4
REMARK    4  A    between atoms: N_3  and  C_6
REMARK    5  A    between atoms: C_4  and  C_5
REMARK    6  A    between atoms: C_6  and  C_7
REMARK    7  A    between atoms: C_7  and  N_8
REMARK    8  A    between atoms: C_10  and  O_11
REMARK    9  A    between atoms: O_11  and  C_12
REMARK   10  A    between atoms: C_15  and  N_16
REMARK                            x       y       z     vdW  Elec       q    Type
REMARK                         _______ _______ _______ _____ _____    ______ ____
ROOT
ATOM      1  N   UNL     1       5.002   3.982  17.846  0.00  0.00    +0.000 N 
ATOM      2  N   UNL     1       5.954   4.214  18.780  0.00  0.00    +0.000 NA
ATOM      3  C   UNL     1       7.009   4.592  18.058  0.00  0.00    +0.000 A 
ATOM      4  C   UNL     1       6.760   4.600  16.671  0.00  0.00    +0.000 A 
ATOM      5  C   UNL     1       7.515   4.896  15.521  0.00  0.00    +0.000 A 
ATOM      6  C   UNL     1       6.892   4.773  14.270  0.00  0.00    +0.000 A 
ATOM      7  C   UNL     1       5.554   4.372  14.161  0.00  0.00    +0.000 A 
ATOM      8  C   UNL     1       4.799   4.079  15.304  0.00  0.00    +0.000 A 
ATOM      9  C   UNL     1       5.432   4.200  16.551  0.00  0.00    +0.000 A 
ENDROOT
BRANCH   6  10
ATOM     10  N   UNL     1       7.659   5.068  13.055  0.00  0.00    +0.000 N 
ATOM     11  O   UNL     1       8.590   5.887  13.141  0.00  0.00    +0.000 OA
ATOM     12  O   UNL     1       7.338   4.484  12.011  0.00  0.00    +0.000 OA
ENDBRANCH   6  10
BRANCH   3  13
ATOM     13  O   UNL     1       8.189   4.920  18.632  0.00  0.00    +0.000 OA
ATOM     14  C   UNL     1       8.087   5.812  19.733  0.00  0.00    +0.000 C 
ENDBRANCH   3  13
BRANCH   1  15
ATOM     15  C   UNL     1       3.689   3.506  18.265  0.00  0.00    +0.000 C 
BRANCH  15  16
ATOM     16  C   UNL     1       3.515   3.541  19.790  0.00  0.00    +0.000 C 
BRANCH  16  17
ATOM     17  N   UNL     1       2.631   4.609  20.321  0.00  0.00    +0.000 NA
BRANCH  17  19
ATOM     18  C   UNL     1       2.213   7.063  19.794  0.00  0.00    +0.000 C 
ATOM     19  C   UNL     1       2.464   5.648  19.280  0.00  0.00    +0.000 C 
ENDBRANCH  17  19
BRANCH  17  20
ATOM     20  C   UNL     1       1.361   4.125  20.879  0.00  0.00    +0.000 C 
ATOM     21  C   UNL     1       1.375   2.713  21.455  0.00  0.00    +0.000 C 
ENDBRANCH  17  20
ENDBRANCH  16  17
ENDBRANCH  15  16
ENDBRANCH   1  15
TORSDOF 7
ENDMDL
MODEL 7
REMARK VINA RESULT:      -6.5      3.586      6.077
REMARK  Name = 
REMARK  10 active torsions:
REMARK  status: ('A' for Active; 'I' for Inactive)
REMARK    1  A    between atoms: C_1  and  C_2
REMARK    2  A    between atoms: C_2  and  N_3
REMARK    3  A    between atoms: N_3  and  C_4
REMARK    4  A    between atoms: N_3  and  C_6
REMARK    5  A    between atoms: C_4  and  C_5
REMARK    6  A    between atoms: C_6  and  C_7
REMARK    7  A    between atoms: C_7  and  N_8
REMARK    8  A    between atoms: C_10  and  O_11
REMARK    9  A    between atoms: O_11  and  C_12
REMARK   10  A    between atoms: C_15  and  N_16
REMARK                            x       y       z     vdW  Elec       q    Type
REMARK                         _______ _______ _______ _____ _____    ______ ____
ROOT
ATOM      1  N   UNL     1       4.055   6.687  17.164  0.00  0.00    +0.000 N 
ATOM      2  N   UNL     1       3.530   7.801  17.729  0.00  0.00    +0.000 NA
ATOM      3  C   UNL     1       2.624   7.318  18.579  0.00  0.00    +0.000 A 
ATOM      4  C   UNL     1       2.546   5.911  18.568  0.00  0.00    +0.000 A 
ATOM      5  C   UNL     1       1.773   4.946  19.241  0.00  0.00    +0.000 A 
ATOM      6  C   UNL     1       1.991   3.594  18.939  0.00  0.00    +0.000 A 
ATOM      7  C   UNL     1       2.954   3.206  17.998  0.00  0.00    +0.000 A 
ATOM      8  C   UNL     1       3.727   4.163  17.329  0.00  0.00    +0.000 A 
ATOM      9  C   UNL     1       3.498   5.513  17.633  0.00  0.00    +0.000 A 
ENDROOT
BRANCH   6  10
ATOM     10  N   UNL     1       1.192   2.569  19.620  0.00  0.00    +0.000 N 
ATOM     11  O   UNL     1       0.245   2.062  18.995  0.00  0.00    +0.000 OA
ATOM     12  O   UNL     1       1.505   2.265  20.779  0.00  0.00    +0.000 OA
ENDBRANCH   6  10
BRANCH   3  13
ATOM     13  O   UNL     1       1.867   8.126  19.354  0.00  0.00    +0.000 OA
ATOM     14  C   UNL     1       1.432   9.321  18.720  0.00  0.00    +0.000 C 
ENDBRANCH   3  13
BRANCH   1  15
ATOM     15  C   UNL     1       5.077   6.822  16.132  0.00  0.00    +0.000 C 
BRANCH  15  16
ATOM     16  C   UNL     1       6.499   6.758  16.708  0.00  0.00    +0.000 C 
BRANCH  16  17
ATOM     17  N   UNL     1       7.355   5.653  16.206  0.00  0.00    +0.000 NA
BRANCH  17  19
ATOM     18  C   UNL     1       7.402   5.139  18.697  0.00  0.00    +0.000 C 
ATOM     19  C   UNL     1       7.469   4.623  17.262  0.00  0.00    +0.000 C 
ENDBRANCH  17  19
BRANCH  17  20
ATOM     20  C   UNL     1       6.950   5.115  14.900  0.00  0.00    +0.000 C 
ATOM     21  C   UNL     1       6.267   3.752  14.918  0.00  0.00    +0.000 C 
ENDBRANCH  17  20
ENDBRANCH  16  17
ENDBRANCH  15  16
ENDBRANCH   1  15
TORSDOF 7
ENDMDL
MODEL 8
REMARK VINA RESULT:      -6.5      0.854      1.115
REMARK  Name = 
REMARK  10 active torsions:
REMARK  status: ('A' for Active; 'I' for Inactive)
REMARK    1  A    between atoms: C_1  and  C_2
REMARK    2  A    between atoms: C_2  and  N_3
REMARK    3  A    between atoms: N_3  and  C_4
REMARK    4  A    between atoms: N_3  and  C_6
REMARK    5  A    between atoms: C_4  and  C_5
REMARK    6  A    between atoms: C_6  and  C_7
REMARK    7  A    between atoms: C_7  and  N_8
REMARK    8  A    between atoms: C_10  and  O_11
REMARK    9  A    between atoms: O_11  and  C_12
REMARK   10  A    between atoms: C_15  and  N_16
REMARK                            x       y       z     vdW  Elec       q    Type
REMARK                         _______ _______ _______ _____ _____    ______ ____
ROOT
ATOM      1  N   UNL     1       5.773   4.465  18.544  0.00  0.00    +0.000 N 
ATOM      2  N   UNL     1       6.537   5.387  19.178  0.00  0.00    +0.000 NA
ATOM      3  C   UNL     1       7.258   5.921  18.192  0.00  0.00    +0.000 A 
ATOM      4  C   UNL     1       6.982   5.356  16.932  0.00  0.00    +0.000 A 
ATOM      5  C   UNL     1       7.461   5.547  15.622  0.00  0.00    +0.000 A 
ATOM      6  C   UNL     1       6.923   4.755  14.597  0.00  0.00    +0.000 A 
ATOM      7  C   UNL     1       5.932   3.801  14.860  0.00  0.00    +0.000 A 
ATOM      8  C   UNL     1       5.451   3.609  16.162  0.00  0.00    +0.000 A 
ATOM      9  C   UNL     1       5.999   4.402  17.182  0.00  0.00    +0.000 A 
ENDROOT
BRANCH   6  10
ATOM     10  N   UNL     1       7.412   4.930  13.225  0.00  0.00    +0.000 N 
ATOM     11  O   UNL     1       7.016   4.127  12.362  0.00  0.00    +0.000 OA
ATOM     12  O   UNL     1       8.189   5.867  13.001  0.00  0.00    +0.000 OA
ENDBRANCH   6  10
BRANCH   3  13
ATOM     13  O   UNL     1       8.162   6.901  18.417  0.00  0.00    +0.000 OA
ATOM     14  C   UNL     1       7.836   8.156  17.836  0.00  0.00    +0.000 C 
ENDBRANCH   3  13
BRANCH   1  15
ATOM     15  C   UNL     1       4.860   3.635  19.321  0.00  0.00    +0.000 C 
BRANCH  15  16
ATOM     16  C   UNL     1       3.457   3.573  18.700  0.00  0.00    +0.000 C 
BRANCH  16  17
ATOM     17  N   UNL     1       2.464   4.539  19.235  0.00  0.00    +0.000 NA
BRANCH  17  19
ATOM     18  C   UNL     1       3.077   6.779  18.197  0.00  0.00    +0.000 C 
ATOM     19  C   UNL     1       2.175   5.548  18.192  0.00  0.00    +0.000 C 
ENDBRANCH  17  19
BRANCH  17  20
ATOM     20  C   UNL     1       1.261   3.920  19.806  0.00  0.00    +0.000 C 
ATOM     21  C   UNL     1       1.443   3.197  21.136  0.00  0.00    +0.000 C 
ENDBRANCH  17  20
ENDBRANCH  16  17
ENDBRANCH  15  16
ENDBRANCH   1  15
TORSDOF 7
ENDMDL
MODEL 9
REMARK VINA RESULT:      -6.4      1.366      1.957
REMARK  Name = 
REMARK  10 active torsions:
REMARK  status: ('A' for Active; 'I' for Inactive)
REMARK    1  A    between atoms: C_1  and  C_2
REMARK    2  A    between atoms: C_2  and  N_3
REMARK    3  A    between atoms: N_3  and  C_4
REMARK    4  A    between atoms: N_3  and  C_6
REMARK    5  A    between atoms: C_4  and  C_5
REMARK    6  A    between atoms: C_6  and  C_7
REMARK    7  A    between atoms: C_7  and  N_8
REMARK    8  A    between atoms: C_10  and  O_11
REMARK    9  A    between atoms: O_11  and  C_12
REMARK   10  A    between atoms: C_15  and  N_16
REMARK                            x       y       z     vdW  Elec       q    Type
REMARK                         _______ _______ _______ _____ _____    ______ ____
ROOT
ATOM      1  N   UNL     1       5.860   5.174  18.144  0.00  0.00    +0.000 N 
ATOM      2  N   UNL     1       6.586   6.305  18.318  0.00  0.00    +0.000 NA
ATOM      3  C   UNL     1       7.091   6.536  17.106  0.00  0.00    +0.000 A 
ATOM      4  C   UNL     1       6.712   5.571  16.152  0.00  0.00    +0.000 A 
ATOM      5  C   UNL     1       6.976   5.357  14.786  0.00  0.00    +0.000 A 
ATOM      6  C   UNL     1       6.401   4.236  14.168  0.00  0.00    +0.000 A 
ATOM      7  C   UNL     1       5.582   3.353  14.882  0.00  0.00    +0.000 A 
ATOM      8  C   UNL     1       5.315   3.564  16.242  0.00  0.00    +0.000 A 
ATOM      9  C   UNL     1       5.898   4.685  16.852  0.00  0.00    +0.000 A 
ENDROOT
BRANCH   6  10
ATOM     10  N   UNL     1       6.667   3.986  12.747  0.00  0.00    +0.000 N 
ATOM     11  O   UNL     1       6.014   3.090  12.184  0.00  0.00    +0.000 OA
ATOM     12  O   UNL     1       7.525   4.681  12.186  0.00  0.00    +0.000 OA
ENDBRANCH   6  10
BRANCH   3  13
ATOM     13  O   UNL     1       7.889   7.597  16.854  0.00  0.00    +0.000 OA
ATOM     14  C   UNL     1       8.040   8.500  17.941  0.00  0.00    +0.000 C 
ENDBRANCH   3  13
BRANCH   1  15
ATOM     15  C   UNL     1       5.174   4.582  19.286  0.00  0.00    +0.000 C 
BRANCH  15  16
ATOM     16  C   UNL     1       3.803   5.224  19.541  0.00  0.00    +0.000 C 
BRANCH  16  17
ATOM     17  N   UNL     1       2.653   4.289  19.640  0.00  0.00    +0.000 NA
BRANCH  17  19
ATOM     18  C   UNL     1       2.214   2.511  17.873  0.00  0.00    +0.000 C 
ATOM     19  C   UNL     1       2.172   3.983  18.274  0.00  0.00    +0.000 C 
ENDBRANCH  17  19
BRANCH  17  20
ATOM     20  C   UNL     1       2.911   3.094  20.455  0.00  0.00    +0.000 C 
ATOM     21  C   UNL     1       1.992   2.888  21.654  0.00  0.00    +0.000 C 
ENDBRANCH  17  20
ENDBRANCH  16  17
ENDBRANCH  15  16
ENDBRANCH   1  15
TORSDOF 7
ENDMDL
