MODEL 1
REMARK VINA RESULT:      -7.4      0.000      0.000
REMARK  Name = 
REMARK  6 active torsions:
REMARK  status: ('A' for Active; 'I' for Inactive)
REMARK    1  A    between atoms: C_1  and  O_2
REMARK    2  A    between atoms: O_2  and  C_3
REMARK    3  A    between atoms: C_6  and  C_7
REMARK    4  A    between atoms: C_7  and  C_8
REMARK    5  A    between atoms: C_21  and  O_22
REMARK    6  A    between atoms: O_22  and  C_23
REMARK                            x       y       z     vdW  Elec       q    Type
REMARK                         _______ _______ _______ _____ _____    ______ ____
ROOT
ATOM      1  C   UNL     1       2.307   6.957  18.804  0.00  0.00    +0.000 C 
ATOM      2  O   UNL     1       2.525   7.195  19.991  0.00  0.00    +0.000 OA
ATOM      3  N   UNL     1       1.698   7.865  17.937  0.00  0.00    +0.000 N 
ATOM      4  C   UNL     1       1.673   9.234  18.217  0.00  0.00    +0.000 A 
ATOM      5  N   UNL     1       2.461   9.994  17.447  0.00  0.00    +0.000 NA
ATOM      6  N   UNL     1       2.272  11.238  17.907  0.00  0.00    +0.000 N 
ATOM      7  C   UNL     1       1.250  11.361  18.805  0.00  0.00    +0.000 A 
ATOM      8  C   UNL     1       0.684  12.513  19.379  0.00  0.00    +0.000 A 
ATOM      9  C   UNL     1      -0.398  12.334  20.239  0.00  0.00    +0.000 A 
ATOM     10  C   UNL     1      -0.874  11.055  20.511  0.00  0.00    +0.000 A 
ATOM     11  C   UNL     1      -0.273   9.906  19.936  0.00  0.00    +0.000 A 
ATOM     12  C   UNL     1       0.825  10.055  19.056  0.00  0.00    +0.000 A 
ATOM     13  H   UNL     1       2.039   7.752  16.991  0.00  0.00    +0.000 HD
ATOM     14  H   UNL     1       2.841  11.983  17.527  0.00  0.00    +0.000 HD
ENDROOT
BRANCH   1  15
ATOM     15  C   UNL     1       2.614   5.570  18.162  0.00  0.00    +0.000 C 
BRANCH  15  19
ATOM     16  C   UNL     1       6.370   5.003  15.914  0.00  0.00    +0.000 A 
ATOM     17  C   UNL     1       5.448   3.958  16.064  0.00  0.00    +0.000 A 
ATOM     18  C   UNL     1       4.259   4.106  16.804  0.00  0.00    +0.000 A 
ATOM     19  C   UNL     1       3.950   5.300  17.448  0.00  0.00    +0.000 A 
ATOM     20  C   UNL     1       4.913   6.341  17.334  0.00  0.00    +0.000 A 
ATOM     21  C   UNL     1       6.118   6.208  16.592  0.00  0.00    +0.000 A 
BRANCH  16  23
ATOM     22  C   UNL     1       7.360   4.861  13.753  0.00  0.00    +0.000 C 
ATOM     23  O   UNL     1       7.508   4.873  15.171  0.00  0.00    +0.000 OA
ENDBRANCH  16  23
BRANCH  21  24
ATOM     24  O   UNL     1       6.898   7.342  16.617  0.00  0.00    +0.000 OA
ATOM     25  C   UNL     1       7.700   7.623  17.763  0.00  0.00    +0.000 C 
ENDBRANCH  21  24
ENDBRANCH  15  19
ENDBRANCH   1  15
TORSDOF 4
ENDMDL
MODEL 2
REMARK VINA RESULT:      -7.2      1.586      2.091
REMARK  Name = 
REMARK  6 active torsions:
REMARK  status: ('A' for Active; 'I' for Inactive)
REMARK    1  A    between atoms: C_1  and  O_2
REMARK    2  A    between atoms: O_2  and  C_3
REMARK    3  A    between atoms: C_6  and  C_7
REMARK    4  A    between atoms: C_7  and  C_8
REMARK    5  A    between atoms: C_21  and  O_22
REMARK    6  A    between atoms: O_22  and  C_23
REMARK                            x       y       z     vdW  Elec       q    Type
REMARK                         _______ _______ _______ _____ _____    ______ ____
ROOT
ATOM      1  C   UNL     1       2.700   6.458  19.069  0.00  0.00    +0.000 C 
ATOM      2  O   UNL     1       1.974   6.541  18.080  0.00  0.00    +0.000 OA
ATOM      3  N   UNL     1       2.641   7.347  20.144  0.00  0.00    +0.000 N 
ATOM      4  C   UNL     1       1.504   8.123  20.383  0.00  0.00    +0.000 A 
ATOM      5  N   UNL     1       0.779   7.770  21.452  0.00  0.00    +0.000 NA
ATOM      6  N   UNL     1      -0.239   8.639  21.464  0.00  0.00    +0.000 N 
ATOM      7  C   UNL     1      -0.114   9.671  20.577  0.00  0.00    +0.000 A 
ATOM      8  C   UNL     1      -0.903  10.822  20.411  0.00  0.00    +0.000 A 
ATOM      9  C   UNL     1      -0.500  11.740  19.443  0.00  0.00    +0.000 A 
ATOM     10  C   UNL     1       0.635  11.498  18.676  0.00  0.00    +0.000 A 
ATOM     11  C   UNL     1       1.403  10.319  18.847  0.00  0.00    +0.000 A 
ATOM     12  C   UNL     1       1.023   9.369  19.824  0.00  0.00    +0.000 A 
ATOM     13  H   UNL     1       2.887   6.888  21.012  0.00  0.00    +0.000 HD
ATOM     14  H   UNL     1      -0.976   8.509  22.145  0.00  0.00    +0.000 HD
ENDROOT
BRANCH   1  15
ATOM     15  C   UNL     1       3.832   5.393  19.186  0.00  0.00    +0.000 C 
BRANCH  15  19
ATOM     16  C   UNL     1       6.544   4.916  15.736  0.00  0.00    +0.000 A 
ATOM     17  C   UNL     1       5.523   3.991  15.991  0.00  0.00    +0.000 A 
ATOM     18  C   UNL     1       4.667   4.104  17.103  0.00  0.00    +0.000 A 
ATOM     19  C   UNL     1       4.809   5.137  18.025  0.00  0.00    +0.000 A 
ATOM     20  C   UNL     1       5.879   6.045  17.789  0.00  0.00    +0.000 A 
ATOM     21  C   UNL     1       6.752   5.944  16.672  0.00  0.00    +0.000 A 
BRANCH  16  23
ATOM     22  C   UNL     1       6.814   4.204  13.479  0.00  0.00    +0.000 C 
ATOM     23  O   UNL     1       7.355   4.828  14.642  0.00  0.00    +0.000 OA
ENDBRANCH  16  23
BRANCH  21  24
ATOM     24  O   UNL     1       7.712   6.930  16.643  0.00  0.00    +0.000 OA
ATOM     25  C   UNL     1       7.733   7.926  17.665  0.00  0.00    +0.000 C 
ENDBRANCH  21  24
ENDBRANCH  15  19
ENDBRANCH   1  15
TORSDOF 4
ENDMDL
MODEL 3
REMARK VINA RESULT:      -7.1      1.994      2.576
REMARK  Name = 
REMARK  6 active torsions:
REMARK  status: ('A' for Active; 'I' for Inactive)
REMARK    1  A    between atoms: C_1  and  O_2
REMARK    2  A    between atoms: O_2  and  C_3
REMARK    3  A    between atoms: C_6  and  C_7
REMARK    4  A    between atoms: C_7  and  C_8
REMARK    5  A    between atoms: C_21  and  O_22
REMARK    6  A    between atoms: O_22  and  C_23
REMARK                            x       y       z     vdW  Elec       q    Type
REMARK                         _______ _______ _______ _____ _____    ______ ____
ROOT
ATOM      1  C   UNL     1       2.777   4.968  17.898  0.00  0.00    +0.000 C 
ATOM      2  O   UNL     1       1.625   4.992  17.468  0.00  0.00    +0.000 OA
ATOM      3  N   UNL     1       3.315   5.964  18.715  0.00  0.00    +0.000 N 
ATOM      4  C   UNL     1       2.493   6.828  19.445  0.00  0.00    +0.000 A 
ATOM      5  N   UNL     1       2.482   6.630  20.769  0.00  0.00    +0.000 NA
ATOM      6  N   UNL     1       1.633   7.555  21.234  0.00  0.00    +0.000 N 
ATOM      7  C   UNL     1       1.240   8.481  20.310  0.00  0.00    +0.000 A 
ATOM      8  C   UNL     1       0.483   9.654  20.469  0.00  0.00    +0.000 A 
ATOM      9  C   UNL     1       0.278  10.442  19.338  0.00  0.00    +0.000 A 
ATOM     10  C   UNL     1       0.803  10.055  18.109  0.00  0.00    +0.000 A 
ATOM     11  C   UNL     1       1.546   8.856  17.968  0.00  0.00    +0.000 A 
ATOM     12  C   UNL     1       1.775   8.036  19.098  0.00  0.00    +0.000 A 
ATOM     13  H   UNL     1       4.002   5.583  19.353  0.00  0.00    +0.000 HD
ATOM     14  H   UNL     1       1.395   7.540  22.218  0.00  0.00    +0.000 HD
ENDROOT
BRANCH   1  15
ATOM     15  C   UNL     1       3.792   3.854  17.500  0.00  0.00    +0.000 C 
BRANCH  15  19
ATOM     16  C   UNL     1       7.054   4.973  14.745  0.00  0.00    +0.000 A 
ATOM     17  C   UNL     1       6.175   3.925  14.443  0.00  0.00    +0.000 A 
ATOM     18  C   UNL     1       5.148   3.529  15.320  0.00  0.00    +0.000 A 
ATOM     19  C   UNL     1       4.968   4.149  16.553  0.00  0.00    +0.000 A 
ATOM     20  C   UNL     1       5.895   5.179  16.877  0.00  0.00    +0.000 A 
ATOM     21  C   UNL     1       6.938   5.591  16.002  0.00  0.00    +0.000 A 
BRANCH  16  23
ATOM     22  C   UNL     1       7.763   5.251  12.488  0.00  0.00    +0.000 C 
ATOM     23  O   UNL     1       8.030   5.382  13.882  0.00  0.00    +0.000 OA
ENDBRANCH  16  23
BRANCH  21  24
ATOM     24  O   UNL     1       7.711   6.605  16.519  0.00  0.00    +0.000 OA
ATOM     25  C   UNL     1       7.254   7.330  17.661  0.00  0.00    +0.000 C 
ENDBRANCH  21  24
ENDBRANCH  15  19
ENDBRANCH   1  15
TORSDOF 4
ENDMDL
MODEL 4
REMARK VINA RESULT:      -7.1      2.576      3.620
REMARK  Name = 
REMARK  6 active torsions:
REMARK  status: ('A' for Active; 'I' for Inactive)
REMARK    1  A    between atoms: C_1  and  O_2
REMARK    2  A    between atoms: O_2  and  C_3
REMARK    3  A    between atoms: C_6  and  C_7
REMARK    4  A    between atoms: C_7  and  C_8
REMARK    5  A    between atoms: C_21  and  O_22
REMARK    6  A    between atoms: O_22  and  C_23
REMARK                            x       y       z     vdW  Elec       q    Type
REMARK                         _______ _______ _______ _____ _____    ______ ____
ROOT
ATOM      1  C   UNL     1       1.764   8.725  18.441  0.00  0.00    +0.000 C 
ATOM      2  O   UNL     1       0.895   9.372  17.860  0.00  0.00    +0.000 OA
ATOM      3  N   UNL     1       1.959   8.764  19.823  0.00  0.00    +0.000 N 
ATOM      4  C   UNL     1       0.947   9.189  20.687  0.00  0.00    +0.000 A 
ATOM      5  N   UNL     1       0.381   8.229  21.429  0.00  0.00    +0.000 NA
ATOM      6  N   UNL     1      -0.544   8.871  22.153  0.00  0.00    +0.000 N 
ATOM      7  C   UNL     1      -0.480  10.234  22.074  0.00  0.00    +0.000 A 
ATOM      8  C   UNL     1      -1.185  11.216  22.791  0.00  0.00    +0.000 A 
ATOM      9  C   UNL     1      -0.871  12.549  22.530  0.00  0.00    +0.000 A 
ATOM     10  C   UNL     1       0.098  12.869  21.583  0.00  0.00    +0.000 A 
ATOM     11  C   UNL     1       0.781  11.861  20.857  0.00  0.00    +0.000 A 
ATOM     12  C   UNL     1       0.488  10.498  21.102  0.00  0.00    +0.000 A 
ATOM     13  H   UNL     1       2.305   7.878  20.168  0.00  0.00    +0.000 HD
ATOM     14  H   UNL     1      -1.166   8.325  22.734  0.00  0.00    +0.000 HD
ENDROOT
BRANCH   1  15
ATOM     15  C   UNL     1       2.805   7.853  17.675  0.00  0.00    +0.000 C 
BRANCH  15  19
ATOM     16  C   UNL     1       3.796   3.661  18.643  0.00  0.00    +0.000 A 
ATOM     17  C   UNL     1       2.470   4.066  18.439  0.00  0.00    +0.000 A 
ATOM     18  C   UNL     1       2.127   5.403  18.161  0.00  0.00    +0.000 A 
ATOM     19  C   UNL     1       3.094   6.402  18.099  0.00  0.00    +0.000 A 
ATOM     20  C   UNL     1       4.433   5.995  18.356  0.00  0.00    +0.000 A 
ATOM     21  C   UNL     1       4.796   4.649  18.638  0.00  0.00    +0.000 A 
BRANCH  16  23
ATOM     22  C   UNL     1       4.419   1.997  20.228  0.00  0.00    +0.000 C 
ATOM     23  O   UNL     1       4.136   2.361  18.879  0.00  0.00    +0.000 OA
ENDBRANCH  16  23
BRANCH  21  24
ATOM     24  O   UNL     1       6.146   4.485  18.851  0.00  0.00    +0.000 OA
ATOM     25  C   UNL     1       7.080   5.061  17.941  0.00  0.00    +0.000 C 
ENDBRANCH  21  24
ENDBRANCH  15  19
ENDBRANCH   1  15
TORSDOF 4
ENDMDL
MODEL 5
REMARK VINA RESULT:      -7.1      1.630      2.165
REMARK  Name = 
REMARK  6 active torsions:
REMARK  status: ('A' for Active; 'I' for Inactive)
REMARK    1  A    between atoms: C_1  and  O_2
REMARK    2  A    between atoms: O_2  and  C_3
REMARK    3  A    between atoms: C_6  and  C_7
REMARK    4  A    between atoms: C_7  and  C_8
REMARK    5  A    between atoms: C_21  and  O_22
REMARK    6  A    between atoms: O_22  and  C_23
REMARK                            x       y       z     vdW  Elec       q    Type
REMARK                         _______ _______ _______ _____ _____    ______ ____
ROOT
ATOM      1  C   UNL     1       2.079   8.285  18.420  0.00  0.00    +0.000 C 
ATOM      2  O   UNL     1       2.328   8.728  17.300  0.00  0.00    +0.000 OA
ATOM      3  N   UNL     1       1.470   9.036  19.427  0.00  0.00    +0.000 N 
ATOM      4  C   UNL     1       0.722  10.179  19.130  0.00  0.00    +0.000 A 
ATOM      5  N   UNL     1      -0.602  10.059  19.290  0.00  0.00    +0.000 NA
ATOM      6  N   UNL     1      -1.087  11.257  18.942  0.00  0.00    +0.000 N 
ATOM      7  C   UNL     1      -0.137  12.221  18.755  0.00  0.00    +0.000 A 
ATOM      8  C   UNL     1      -0.280  13.600  18.525  0.00  0.00    +0.000 A 
ATOM      9  C   UNL     1       0.886  14.356  18.421  0.00  0.00    +0.000 A 
ATOM     10  C   UNL     1       2.131  13.745  18.531  0.00  0.00    +0.000 A 
ATOM     11  C   UNL     1       2.251  12.348  18.741  0.00  0.00    +0.000 A 
ATOM     12  C   UNL     1       1.086  11.553  18.856  0.00  0.00    +0.000 A 
ATOM     13  H   UNL     1       0.907   8.450  20.030  0.00  0.00    +0.000 HD
ATOM     14  H   UNL     1      -2.091  11.377  18.900  0.00  0.00    +0.000 HD
ENDROOT
BRANCH   1  15
ATOM     15  C   UNL     1       2.503   6.852  18.862  0.00  0.00    +0.000 C 
BRANCH  15  19
ATOM     16  C   UNL     1       5.407   4.709  16.320  0.00  0.00    +0.000 A 
ATOM     17  C   UNL     1       4.250   4.077  16.793  0.00  0.00    +0.000 A 
ATOM     18  C   UNL     1       3.326   4.730  17.632  0.00  0.00    +0.000 A 
ATOM     19  C   UNL     1       3.531   6.039  18.055  0.00  0.00    +0.000 A 
ATOM     20  C   UNL     1       4.732   6.660  17.613  0.00  0.00    +0.000 A 
ATOM     21  C   UNL     1       5.675   6.015  16.767  0.00  0.00    +0.000 A 
BRANCH  16  23
ATOM     22  C   UNL     1       6.009   4.152  14.084  0.00  0.00    +0.000 C 
ATOM     23  O   UNL     1       6.288   4.091  15.481  0.00  0.00    +0.000 OA
ENDBRANCH  16  23
BRANCH  21  24
ATOM     24  O   UNL     1       6.761   6.804  16.464  0.00  0.00    +0.000 OA
ATOM     25  C   UNL     1       7.517   7.401  17.517  0.00  0.00    +0.000 C 
ENDBRANCH  21  24
ENDBRANCH  15  19
ENDBRANCH   1  15
TORSDOF 4
ENDMDL
MODEL 6
REMARK VINA RESULT:      -7.1      1.040      1.149
REMARK  Name = 
REMARK  6 active torsions:
REMARK  status: ('A' for Active; 'I' for Inactive)
REMARK    1  A    between atoms: C_1  and  O_2
REMARK    2  A    between atoms: O_2  and  C_3
REMARK    3  A    between atoms: C_6  and  C_7
REMARK    4  A    between atoms: C_7  and  C_8
REMARK    5  A    between atoms: C_21  and  O_22
REMARK    6  A    between atoms: O_22  and  C_23
REMARK                            x       y       z     vdW  Elec       q    Type
REMARK                         _______ _______ _______ _____ _____    ______ ____
ROOT
ATOM      1  C   UNL     1       3.095   6.326  18.602  0.00  0.00    +0.000 C 
ATOM      2  O   UNL     1       3.685   6.634  19.636  0.00  0.00    +0.000 OA
ATOM      3  N   UNL     1       2.024   7.055  18.080  0.00  0.00    +0.000 N 
ATOM      4  C   UNL     1       1.813   8.390  18.435  0.00  0.00    +0.000 A 
ATOM      5  N   UNL     1       2.072   9.289  17.476  0.00  0.00    +0.000 NA
ATOM      6  N   UNL     1       1.806  10.469  18.050  0.00  0.00    +0.000 N 
ATOM      7  C   UNL     1       1.193  10.383  19.268  0.00  0.00    +0.000 A 
ATOM      8  C   UNL     1       0.651  11.393  20.081  0.00  0.00    +0.000 A 
ATOM      9  C   UNL     1       0.035  10.997  21.268  0.00  0.00    +0.000 A 
ATOM     10  C   UNL     1      -0.017   9.651  21.616  0.00  0.00    +0.000 A 
ATOM     11  C   UNL     1       0.557   8.652  20.790  0.00  0.00    +0.000 A 
ATOM     12  C   UNL     1       1.185   9.021  19.577  0.00  0.00    +0.000 A 
ATOM     13  H   UNL     1       2.002   6.999  17.070  0.00  0.00    +0.000 HD
ATOM     14  H   UNL     1       2.016  11.314  17.534  0.00  0.00    +0.000 HD
ENDROOT
BRANCH   1  15
ATOM     15  C   UNL     1       3.429   5.028  17.807  0.00  0.00    +0.000 C 
BRANCH  15  19
ATOM     16  C   UNL     1       6.953   5.032  15.148  0.00  0.00    +0.000 A 
ATOM     17  C   UNL     1       5.960   4.048  15.039  0.00  0.00    +0.000 A 
ATOM     18  C   UNL     1       4.844   4.008  15.896  0.00  0.00    +0.000 A 
ATOM     19  C   UNL     1       4.683   4.937  16.920  0.00  0.00    +0.000 A 
ATOM     20  C   UNL     1       5.718   5.903  17.059  0.00  0.00    +0.000 A 
ATOM     21  C   UNL     1       6.851   5.957  16.201  0.00  0.00    +0.000 A 
BRANCH  16  23
ATOM     22  C   UNL     1       7.735   5.191  12.904  0.00  0.00    +0.000 C 
ATOM     23  O   UNL     1       8.019   5.094  14.298  0.00  0.00    +0.000 OA
ENDBRANCH  16  23
BRANCH  21  24
ATOM     24  O   UNL     1       7.722   6.974  16.519  0.00  0.00    +0.000 OA
ATOM     25  C   UNL     1       7.444   7.822  17.632  0.00  0.00    +0.000 C 
ENDBRANCH  21  24
ENDBRANCH  15  19
ENDBRANCH   1  15
TORSDOF 4
ENDMDL
MODEL 7
REMARK VINA RESULT:      -7.0      2.770      4.231
REMARK  Name = 
REMARK  6 active torsions:
REMARK  status: ('A' for Active; 'I' for Inactive)
REMARK    1  A    between atoms: C_1  and  O_2
REMARK    2  A    between atoms: O_2  and  C_3
REMARK    3  A    between atoms: C_6  and  C_7
REMARK    4  A    between atoms: C_7  and  C_8
REMARK    5  A    between atoms: C_21  and  O_22
REMARK    6  A    between atoms: O_22  and  C_23
REMARK                            x       y       z     vdW  Elec       q    Type
REMARK                         _______ _______ _______ _____ _____    ______ ____
ROOT
ATOM      1  C   UNL     1       1.707   8.910  18.423  0.00  0.00    +0.000 C 
ATOM      2  O   UNL     1       0.741   9.482  17.921  0.00  0.00    +0.000 OA
ATOM      3  N   UNL     1       1.970   8.902  19.794  0.00  0.00    +0.000 N 
ATOM      4  C   UNL     1       0.965   9.166  20.729  0.00  0.00    +0.000 A 
ATOM      5  N   UNL     1       0.551   8.112  21.443  0.00  0.00    +0.000 NA
ATOM      6  N   UNL     1      -0.400   8.609  22.244  0.00  0.00    +0.000 N 
ATOM      7  C   UNL     1      -0.492   9.972  22.238  0.00  0.00    +0.000 A 
ATOM      8  C   UNL     1      -1.262  10.831  23.041  0.00  0.00    +0.000 A 
ATOM      9  C   UNL     1      -1.113  12.202  22.839  0.00  0.00    +0.000 A 
ATOM     10  C   UNL     1      -0.238  12.676  21.866  0.00  0.00    +0.000 A 
ATOM     11  C   UNL     1       0.513  11.790  21.053  0.00  0.00    +0.000 A 
ATOM     12  C   UNL     1       0.387  10.393  21.236  0.00  0.00    +0.000 A 
ATOM     13  H   UNL     1       2.430   8.046  20.073  0.00  0.00    +0.000 HD
ATOM     14  H   UNL     1      -0.926   7.967  22.823  0.00  0.00    +0.000 HD
ENDROOT
BRANCH   1  15
ATOM     15  C   UNL     1       2.796   8.201  17.562  0.00  0.00    +0.000 C 
BRANCH  15  19
ATOM     16  C   UNL     1       3.636   3.946  18.382  0.00  0.00    +0.000 A 
ATOM     17  C   UNL     1       4.629   4.800  17.883  0.00  0.00    +0.000 A 
ATOM     18  C   UNL     1       4.376   6.152  17.583  0.00  0.00    +0.000 A 
ATOM     19  C   UNL     1       3.110   6.706  17.747  0.00  0.00    +0.000 A 
ATOM     20  C   UNL     1       2.094   5.822  18.207  0.00  0.00    +0.000 A 
ATOM     21  C   UNL     1       2.333   4.454  18.513  0.00  0.00    +0.000 A 
BRANCH  16  23
ATOM     22  C   UNL     1       4.351   2.378  20.027  0.00  0.00    +0.000 C 
ATOM     23  O   UNL     1       3.886   2.643  18.705  0.00  0.00    +0.000 OA
ENDBRANCH  16  23
BRANCH  21  24
ATOM     24  O   UNL     1       1.207   3.791  18.943  0.00  0.00    +0.000 OA
ATOM     25  C   UNL     1       0.884   3.773  20.333  0.00  0.00    +0.000 C 
ENDBRANCH  21  24
ENDBRANCH  15  19
ENDBRANCH   1  15
TORSDOF 4
ENDMDL
MODEL 8
REMARK VINA RESULT:      -7.0      2.058      3.110
REMARK  Name = 
REMARK  6 active torsions:
REMARK  status: ('A' for Active; 'I' for Inactive)
REMARK    1  A    between atoms: C_1  and  O_2
REMARK    2  A    between atoms: O_2  and  C_3
REMARK    3  A    between atoms: C_6  and  C_7
REMARK    4  A    between atoms: C_7  and  C_8
REMARK    5  A    between atoms: C_21  and  O_22
REMARK    6  A    between atoms: O_22  and  C_23
REMARK                            x       y       z     vdW  Elec       q    Type
REMARK                         _______ _______ _______ _____ _____    ______ ____
ROOT
ATOM      1  C   UNL     1       2.036   8.423  18.498  0.00  0.00    +0.000 C 
ATOM      2  O   UNL     1       2.198   8.883  17.369  0.00  0.00    +0.000 OA
ATOM      3  N   UNL     1       1.444   9.135  19.543  0.00  0.00    +0.000 N 
ATOM      4  C   UNL     1       0.620  10.237  19.295  0.00  0.00    +0.000 A 
ATOM      5  N   UNL     1      -0.684  10.045  19.527  0.00  0.00    +0.000 NA
ATOM      6  N   UNL     1      -1.252  11.217  19.215  0.00  0.00    +0.000 N 
ATOM      7  C   UNL     1      -0.367  12.232  18.983  0.00  0.00    +0.000 A 
ATOM      8  C   UNL     1      -0.596  13.602  18.772  0.00  0.00    +0.000 A 
ATOM      9  C   UNL     1       0.520  14.421  18.609  0.00  0.00    +0.000 A 
ATOM     10  C   UNL     1       1.800  13.877  18.647  0.00  0.00    +0.000 A 
ATOM     11  C   UNL     1       2.006  12.487  18.840  0.00  0.00    +0.000 A 
ATOM     12  C   UNL     1       0.894  11.630  19.012  0.00  0.00    +0.000 A 
ATOM     13  H   UNL     1       0.948   8.517  20.171  0.00  0.00    +0.000 HD
ATOM     14  H   UNL     1      -2.261  11.283  19.229  0.00  0.00    +0.000 HD
ENDROOT
BRANCH   1  15
ATOM     15  C   UNL     1       2.561   7.013  18.906  0.00  0.00    +0.000 C 
BRANCH  15  19
ATOM     16  C   UNL     1       5.165   4.486  16.393  0.00  0.00    +0.000 A 
ATOM     17  C   UNL     1       5.244   5.884  16.345  0.00  0.00    +0.000 A 
ATOM     18  C   UNL     1       4.402   6.711  17.113  0.00  0.00    +0.000 A 
ATOM     19  C   UNL     1       3.424   6.175  17.947  0.00  0.00    +0.000 A 
ATOM     20  C   UNL     1       3.315   4.757  17.953  0.00  0.00    +0.000 A 
ATOM     21  C   UNL     1       4.157   3.908  17.184  0.00  0.00    +0.000 A 
BRANCH  16  23
ATOM     22  C   UNL     1       6.314   4.089  14.345  0.00  0.00    +0.000 C 
ATOM     23  O   UNL     1       6.002   3.681  15.675  0.00  0.00    +0.000 OA
ENDBRANCH  16  23
BRANCH  21  24
ATOM     24  O   UNL     1       3.875   2.571  17.348  0.00  0.00    +0.000 OA
ATOM     25  C   UNL     1       2.587   2.173  17.815  0.00  0.00    +0.000 C 
ENDBRANCH  21  24
ENDBRANCH  15  19
ENDBRANCH   1  15
TORSDOF 4
ENDMDL
MODEL 9
REMARK VINA RESULT:      -7.0      4.700      8.015
REMARK  Name = 
REMARK  6 active torsions:
REMARK  status: ('A' for Active; 'I' for Inactive)
REMARK    1  A    between atoms: C_1  and  O_2
REMARK    2  A    between atoms: O_2  and  C_3
REMARK    3  A    between atoms: C_6  and  C_7
REMARK    4  A    between atoms: C_7  and  C_8
REMARK    5  A    between atoms: C_21  and  O_22
REMARK    6  A    between atoms: O_22  and  C_23
REMARK                            x       y       z     vdW  Elec       q    Type
REMARK                         _______ _______ _______ _____ _____    ______ ____
ROOT
ATOM      1  C   UNL     1       7.944   8.014  18.104  0.00  0.00    +0.000 C 
ATOM      2  O   UNL     1       7.172   8.544  17.307  0.00  0.00    +0.000 OA
ATOM      3  N   UNL     1       7.786   6.710  18.579  0.00  0.00    +0.000 N 
ATOM      4  C   UNL     1       7.010   5.775  17.888  0.00  0.00    +0.000 A 
ATOM      5  N   UNL     1       7.694   4.797  17.280  0.00  0.00    +0.000 NA
ATOM      6  N   UNL     1       6.750   4.050  16.693  0.00  0.00    +0.000 N 
ATOM      7  C   UNL     1       5.470   4.369  17.050  0.00  0.00    +0.000 A 
ATOM      8  C   UNL     1       4.259   3.722  16.750  0.00  0.00    +0.000 A 
ATOM      9  C   UNL     1       3.095   4.255  17.301  0.00  0.00    +0.000 A 
ATOM     10  C   UNL     1       3.155   5.389  18.105  0.00  0.00    +0.000 A 
ATOM     11  C   UNL     1       4.387   6.037  18.377  0.00  0.00    +0.000 A 
ATOM     12  C   UNL     1       5.586   5.519  17.835  0.00  0.00    +0.000 A 
ATOM     13  H   UNL     1       8.681   6.282  18.775  0.00  0.00    +0.000 HD
ATOM     14  H   UNL     1       7.042   3.290  16.092  0.00  0.00    +0.000 HD
ENDROOT
BRANCH   1  15
ATOM     15  C   UNL     1       9.142   8.782  18.740  0.00  0.00    +0.000 C 
BRANCH  15  19
ATOM     16  C   UNL     1       8.897  13.162  19.227  0.00  0.00    +0.000 A 
ATOM     17  C   UNL     1       8.745  12.561  17.971  0.00  0.00    +0.000 A 
ATOM     18  C   UNL     1       8.852  11.169  17.786  0.00  0.00    +0.000 A 
ATOM     19  C   UNL     1       9.139  10.317  18.848  0.00  0.00    +0.000 A 
ATOM     20  C   UNL     1       9.341  10.937  20.112  0.00  0.00    +0.000 A 
ATOM     21  C   UNL     1       9.237  12.340  20.315  0.00  0.00    +0.000 A 
BRANCH  16  23
ATOM     22  C   UNL     1       9.251  15.362  18.385  0.00  0.00    +0.000 C 
ATOM     23  O   UNL     1       8.761  14.507  19.416  0.00  0.00    +0.000 OA
ENDBRANCH  16  23
BRANCH  21  24
ATOM     24  O   UNL     1       9.470  12.718  21.618  0.00  0.00    +0.000 OA
ATOM     25  C   UNL     1       8.617  12.236  22.656  0.00  0.00    +0.000 C 
ENDBRANCH  21  24
ENDBRANCH  15  19
ENDBRANCH   1  15
TORSDOF 4
ENDMDL
