MODEL 1
REMARK VINA RESULT:      -9.0      0.000      0.000
REMARK  Name = 
REMARK  5 active torsions:
REMARK  status: ('A' for Active; 'I' for Inactive)
REMARK    1  A    between atoms: O_1  and  C_2
REMARK    2  A    between atoms: C_10  and  O_11
REMARK    3  A    between atoms: N_18  and  C_19
REMARK    4  A    between atoms: C_19  and  C_20
REMARK    5  A    between atoms: C_21  and  C_22
REMARK                            x       y       z     vdW  Elec       q    Type
REMARK                         _______ _______ _______ _____ _____    ______ ____
ROOT
ATOM      1  C   UNL     1       4.037   1.637  19.529  0.00  0.00    +0.000 A 
ATOM      2  C   UNL     1       2.727   1.494  19.031  0.00  0.00    +0.000 A 
ATOM      3  C   UNL     1       2.198   2.492  18.225  0.00  0.00    +0.000 A 
ATOM      4  C   UNL     1       3.039   3.565  17.983  0.00  0.00    +0.000 A 
ATOM      5  C   UNL     1       4.090   4.011  19.061  0.00  0.00    +0.000 A 
ATOM      6  C   UNL     1       4.648   2.906  19.592  0.00  0.00    +0.000 A 
ATOM      7  O   UNL     1       5.839   3.207  19.012  0.00  0.00    +0.000 OA
ATOM      8  C   UNL     1       5.193   4.178  17.970  0.00  0.00    +0.000 C 
ATOM      9  C   UNL     1       3.917   5.826  18.088  0.00  0.00    +0.000 C 
ATOM     10  C   UNL     1       3.946   7.025  17.148  0.00  0.00    +0.000 C 
ATOM     11  C   UNL     1       4.957   6.938  16.326  0.00  0.00    +0.000 C 
ATOM     12  C   UNL     1       5.708   5.743  16.764  0.00  0.00    +0.000 C 
ATOM     13  C   UNL     1       4.746   4.577  15.747  0.00  0.00    +0.000 C 
ATOM     14  C   UNL     1       3.248   4.016  16.388  0.00  0.00    +0.000 C 
ATOM     15  C   UNL     1       7.208   6.001  16.553  0.00  0.00    +0.000 C 
ATOM     16  N   UNL     1       7.804   6.873  17.602  0.00  0.00    +0.000 NA
ATOM     17  C   UNL     1       7.902   6.160  18.890  0.00  0.00    +0.000 C 
ATOM     18  C   UNL     1       6.611   5.655  19.547  0.00  0.00    +0.000 C 
ATOM     19  C   UNL     1       5.482   5.329  18.589  0.00  0.00    +0.000 C 
ENDROOT
BRANCH   1  20
ATOM     20  O   UNL     1       4.804   0.502  19.623  0.00  0.00    +0.000 OA
ATOM     21  H   UNL     1       4.466  -0.022  20.374  0.00  0.00    +0.000 HD
ENDBRANCH   1  20
BRANCH   9  22
ATOM     22  O   UNL     1       3.823   6.532  19.427  0.00  0.00    +0.000 OA
ATOM     23  H   UNL     1       4.311   7.367  19.345  0.00  0.00    +0.000 HD
ENDBRANCH   9  22
BRANCH  16  24
ATOM     24  C   UNL     1       7.234   8.226  17.783  0.00  0.00    +0.000 C 
BRANCH  24  25
ATOM     25  C   UNL     1       8.256   9.342  17.785  0.00  0.00    +0.000 C 
ATOM     26  C   UNL     1       8.983   9.688  18.868  0.00  0.00    +0.000 C 
BRANCH  26  27
ATOM     27  C   UNL     1       9.908  10.832  18.970  0.00  0.00    +0.000 A 
ATOM     28  C   UNL     1      10.235  11.327  20.244  0.00  0.00    +0.000 A 
ATOM     29  C   UNL     1      11.133  12.391  20.397  0.00  0.00    +0.000 A 
ATOM     30  C   UNL     1      11.715  12.974  19.274  0.00  0.00    +0.000 A 
ATOM     31  C   UNL     1      11.396  12.498  18.005  0.00  0.00    +0.000 A 
ATOM     32  C   UNL     1      10.503  11.432  17.855  0.00  0.00    +0.000 A 
ENDBRANCH  26  27
ENDBRANCH  24  25
ENDBRANCH  16  24
TORSDOF 5
ENDMDL
MODEL 2
REMARK VINA RESULT:      -8.9      1.225      1.575
REMARK  Name = 
REMARK  5 active torsions:
REMARK  status: ('A' for Active; 'I' for Inactive)
REMARK    1  A    between atoms: O_1  and  C_2
REMARK    2  A    between atoms: C_10  and  O_11
REMARK    3  A    between atoms: N_18  and  C_19
REMARK    4  A    between atoms: C_19  and  C_20
REMARK    5  A    between atoms: C_21  and  C_22
REMARK                            x       y       z     vdW  Elec       q    Type
REMARK                         _______ _______ _______ _____ _____    ______ ____
ROOT
ATOM      1  C   UNL     1       2.206   2.867  20.295  0.00  0.00    +0.000 A 
ATOM      2  C   UNL     1       1.043   2.828  19.500  0.00  0.00    +0.000 A 
ATOM      3  C   UNL     1       1.042   3.474  18.272  0.00  0.00    +0.000 A 
ATOM      4  C   UNL     1       2.224   4.114  17.939  0.00  0.00    +0.000 A 
ATOM      5  C   UNL     1       3.139   4.727  19.059  0.00  0.00    +0.000 A 
ATOM      6  C   UNL     1       3.184   3.861  20.091  0.00  0.00    +0.000 A 
ATOM      7  O   UNL     1       4.494   3.602  19.841  0.00  0.00    +0.000 OA
ATOM      8  C   UNL     1       4.420   4.150  18.378  0.00  0.00    +0.000 C 
ATOM      9  C   UNL     1       3.773   5.933  17.505  0.00  0.00    +0.000 C 
ATOM     10  C   UNL     1       4.379   6.570  16.260  0.00  0.00    +0.000 C 
ATOM     11  C   UNL     1       5.439   5.908  15.878  0.00  0.00    +0.000 C 
ATOM     12  C   UNL     1       5.648   4.880  16.920  0.00  0.00    +0.000 C 
ATOM     13  C   UNL     1       4.562   3.646  16.136  0.00  0.00    +0.000 C 
ATOM     14  C   UNL     1       2.870   3.775  16.437  0.00  0.00    +0.000 C 
ATOM     15  C   UNL     1       7.159   4.671  17.106  0.00  0.00    +0.000 C 
ATOM     16  N   UNL     1       7.803   5.747  17.909  0.00  0.00    +0.000 NA
ATOM     17  C   UNL     1       7.411   5.656  19.328  0.00  0.00    +0.000 C 
ATOM     18  C   UNL     1       5.925   5.793  19.688  0.00  0.00    +0.000 C 
ATOM     19  C   UNL     1       4.956   5.355  18.608  0.00  0.00    +0.000 C 
ENDROOT
BRANCH   1  20
ATOM     20  O   UNL     1       2.515   1.740  21.016  0.00  0.00    +0.000 OA
ATOM     21  H   UNL     1       3.080   2.012  21.763  0.00  0.00    +0.000 HD
ENDBRANCH   1  20
BRANCH   9  22
ATOM     22  O   UNL     1       3.669   7.146  18.409  0.00  0.00    +0.000 OA
ATOM     23  H   UNL     1       3.757   6.831  19.323  0.00  0.00    +0.000 HD
ENDBRANCH   9  22
BRANCH  16  24
ATOM     24  C   UNL     1       7.696   7.137  17.414  0.00  0.00    +0.000 C 
BRANCH  24  25
ATOM     25  C   UNL     1       8.401   8.164  18.273  0.00  0.00    +0.000 C 
ATOM     26  C   UNL     1       8.513   9.468  17.940  0.00  0.00    +0.000 C 
BRANCH  26  27
ATOM     27  C   UNL     1       9.280  10.493  18.671  0.00  0.00    +0.000 A 
ATOM     28  C   UNL     1      10.035  11.426  17.938  0.00  0.00    +0.000 A 
ATOM     29  C   UNL     1      10.755  12.439  18.583  0.00  0.00    +0.000 A 
ATOM     30  C   UNL     1      10.730  12.531  19.972  0.00  0.00    +0.000 A 
ATOM     31  C   UNL     1       9.992  11.611  20.712  0.00  0.00    +0.000 A 
ATOM     32  C   UNL     1       9.269  10.602  20.066  0.00  0.00    +0.000 A 
ENDBRANCH  26  27
ENDBRANCH  24  25
ENDBRANCH  16  24
TORSDOF 5
ENDMDL
MODEL 3
REMARK VINA RESULT:      -8.1      4.707     11.068
REMARK  Name = 
REMARK  5 active torsions:
REMARK  status: ('A' for Active; 'I' for Inactive)
REMARK    1  A    between atoms: O_1  and  C_2
REMARK    2  A    between atoms: C_10  and  O_11
REMARK    3  A    between atoms: N_18  and  C_19
REMARK    4  A    between atoms: C_19  and  C_20
REMARK    5  A    between atoms: C_21  and  C_22
REMARK                            x       y       z     vdW  Elec       q    Type
REMARK                         _______ _______ _______ _____ _____    ______ ____
ROOT
ATOM      1  C   UNL     1      10.899  17.596  17.290  0.00  0.00    +0.000 A 
ATOM      2  C   UNL     1      10.272  18.604  18.049  0.00  0.00    +0.000 A 
ATOM      3  C   UNL     1       9.490  18.242  19.136  0.00  0.00    +0.000 A 
ATOM      4  C   UNL     1       9.401  16.882  19.375  0.00  0.00    +0.000 A 
ATOM      5  C   UNL     1       9.472  15.859  18.185  0.00  0.00    +0.000 A 
ATOM      6  C   UNL     1      10.431  16.268  17.332  0.00  0.00    +0.000 A 
ATOM      7  O   UNL     1      11.203  15.198  17.659  0.00  0.00    +0.000 OA
ATOM      8  C   UNL     1      10.433  14.930  18.994  0.00  0.00    +0.000 C 
ATOM      9  C   UNL     1       8.427  14.661  19.506  0.00  0.00    +0.000 C 
ATOM     10  C   UNL     1       7.923  13.760  20.627  0.00  0.00    +0.000 C 
ATOM     11  C   UNL     1       8.911  13.086  21.151  0.00  0.00    +0.000 C 
ATOM     12  C   UNL     1      10.089  13.420  20.322  0.00  0.00    +0.000 C 
ATOM     13  C   UNL     1      10.544  14.893  21.292  0.00  0.00    +0.000 C 
ATOM     14  C   UNL     1       9.725  16.365  20.931  0.00  0.00    +0.000 C 
ATOM     15  C   UNL     1      10.983  12.176  20.216  0.00  0.00    +0.000 C 
ATOM     16  N   UNL     1      10.471  11.169  19.246  0.00  0.00    +0.000 NA
ATOM     17  C   UNL     1      10.624  11.646  17.858  0.00  0.00    +0.000 C 
ATOM     18  C   UNL     1       9.900  12.933  17.442  0.00  0.00    +0.000 C 
ATOM     19  C   UNL     1       9.658  13.929  18.559  0.00  0.00    +0.000 C 
ENDROOT
BRANCH   1  20
ATOM     20  O   UNL     1      12.152  17.866  16.797  0.00  0.00    +0.000 OA
ATOM     21  H   UNL     1      12.324  18.817  16.930  0.00  0.00    +0.000 HD
ENDBRANCH   1  20
BRANCH   9  22
ATOM     22  O   UNL     1       7.476  14.267  18.392  0.00  0.00    +0.000 OA
ATOM     23  H   UNL     1       7.988  13.752  17.748  0.00  0.00    +0.000 HD
ENDBRANCH   9  22
BRANCH  16  24
ATOM     24  C   UNL     1       9.119  10.615  19.473  0.00  0.00    +0.000 C 
BRANCH  24  25
ATOM     25  C   UNL     1       8.959   9.165  19.070  0.00  0.00    +0.000 C 
ATOM     26  C   UNL     1       8.061   8.737  18.158  0.00  0.00    +0.000 C 
BRANCH  26  27
ATOM     27  C   UNL     1       7.777   7.334  17.803  0.00  0.00    +0.000 A 
ATOM     28  C   UNL     1       8.024   6.331  18.757  0.00  0.00    +0.000 A 
ATOM     29  C   UNL     1       7.742   4.988  18.482  0.00  0.00    +0.000 A 
ATOM     30  C   UNL     1       7.209   4.630  17.246  0.00  0.00    +0.000 A 
ATOM     31  C   UNL     1       6.965   5.611  16.289  0.00  0.00    +0.000 A 
ATOM     32  C   UNL     1       7.242   6.954  16.568  0.00  0.00    +0.000 A 
ENDBRANCH  26  27
ENDBRANCH  24  25
ENDBRANCH  16  24
TORSDOF 5
ENDMDL
MODEL 4
REMARK VINA RESULT:      -7.5      1.801      3.140
REMARK  Name = 
REMARK  5 active torsions:
REMARK  status: ('A' for Active; 'I' for Inactive)
REMARK    1  A    between atoms: O_1  and  C_2
REMARK    2  A    between atoms: C_10  and  O_11
REMARK    3  A    between atoms: N_18  and  C_19
REMARK    4  A    between atoms: C_19  and  C_20
REMARK    5  A    between atoms: C_21  and  C_22
REMARK                            x       y       z     vdW  Elec       q    Type
REMARK                         _______ _______ _______ _____ _____    ______ ____
ROOT
ATOM      1  C   UNL     1       1.066   2.031  18.717  0.00  0.00    +0.000 A 
ATOM      2  C   UNL     1       0.802   2.178  20.094  0.00  0.00    +0.000 A 
ATOM      3  C   UNL     1       1.557   3.076  20.834  0.00  0.00    +0.000 A 
ATOM      4  C   UNL     1       2.527   3.761  20.123  0.00  0.00    +0.000 A 
ATOM      5  C   UNL     1       3.236   3.089  18.893  0.00  0.00    +0.000 A 
ATOM      6  C   UNL     1       2.305   2.429  18.176  0.00  0.00    +0.000 A 
ATOM      7  O   UNL     1       2.441   3.313  17.153  0.00  0.00    +0.000 OA
ATOM      8  C   UNL     1       3.109   4.401  18.057  0.00  0.00    +0.000 C 
ATOM      9  C   UNL     1       4.735   4.430  19.366  0.00  0.00    +0.000 C 
ATOM     10  C   UNL     1       5.648   5.628  19.602  0.00  0.00    +0.000 C 
ATOM     11  C   UNL     1       5.346   6.601  18.784  0.00  0.00    +0.000 C 
ATOM     12  C   UNL     1       4.304   6.047  17.894  0.00  0.00    +0.000 C 
ATOM     13  C   UNL     1       2.917   6.498  18.985  0.00  0.00    +0.000 C 
ATOM     14  C   UNL     1       2.546   5.425  20.281  0.00  0.00    +0.000 C 
ATOM     15  C   UNL     1       4.493   6.640  16.489  0.00  0.00    +0.000 C 
ATOM     16  N   UNL     1       5.607   6.004  15.733  0.00  0.00    +0.000 NA
ATOM     17  C   UNL     1       5.254   4.630  15.326  0.00  0.00    +0.000 C 
ATOM     18  C   UNL     1       4.941   3.600  16.419  0.00  0.00    +0.000 C 
ATOM     19  C   UNL     1       4.381   4.174  17.706  0.00  0.00    +0.000 C 
ENDROOT
BRANCH   1  20
ATOM     20  O   UNL     1      -0.008   1.821  17.888  0.00  0.00    +0.000 OA
ATOM     21  H   UNL     1       0.070   2.441  17.140  0.00  0.00    +0.000 HD
ENDBRANCH   1  20
BRANCH   9  22
ATOM     22  O   UNL     1       5.765   3.328  19.213  0.00  0.00    +0.000 OA
ATOM     23  H   UNL     1       6.345   3.579  18.475  0.00  0.00    +0.000 HD
ENDBRANCH   9  22
BRANCH  16  24
ATOM     24  C   UNL     1       6.962   6.054  16.324  0.00  0.00    +0.000 C 
BRANCH  24  25
ATOM     25  C   UNL     1       7.459   7.448  16.636  0.00  0.00    +0.000 C 
ATOM     26  C   UNL     1       8.055   7.786  17.799  0.00  0.00    +0.000 C 
BRANCH  26  27
ATOM     27  C   UNL     1       8.459   9.143  18.212  0.00  0.00    +0.000 A 
ATOM     28  C   UNL     1       8.105  10.233  17.397  0.00  0.00    +0.000 A 
ATOM     29  C   UNL     1       8.436  11.544  17.759  0.00  0.00    +0.000 A 
ATOM     30  C   UNL     1       9.130  11.782  18.943  0.00  0.00    +0.000 A 
ATOM     31  C   UNL     1       9.494  10.712  19.757  0.00  0.00    +0.000 A 
ATOM     32  C   UNL     1       9.156   9.403  19.396  0.00  0.00    +0.000 A 
ENDBRANCH  26  27
ENDBRANCH  24  25
ENDBRANCH  16  24
TORSDOF 5
ENDMDL
MODEL 5
REMARK VINA RESULT:      -7.4      4.493     11.146
REMARK  Name = 
REMARK  5 active torsions:
REMARK  status: ('A' for Active; 'I' for Inactive)
REMARK    1  A    between atoms: O_1  and  C_2
REMARK    2  A    between atoms: C_10  and  O_11
REMARK    3  A    between atoms: N_18  and  C_19
REMARK    4  A    between atoms: C_19  and  C_20
REMARK    5  A    between atoms: C_21  and  C_22
REMARK                            x       y       z     vdW  Elec       q    Type
REMARK                         _______ _______ _______ _____ _____    ______ ____
ROOT
ATOM      1  C   UNL     1       9.914  18.040  18.295  0.00  0.00    +0.000 A 
ATOM      2  C   UNL     1      10.646  18.572  19.376  0.00  0.00    +0.000 A 
ATOM      3  C   UNL     1      11.139  17.711  20.346  0.00  0.00    +0.000 A 
ATOM      4  C   UNL     1      10.852  16.371  20.149  0.00  0.00    +0.000 A 
ATOM      5  C   UNL     1       9.524  15.939  19.430  0.00  0.00    +0.000 A 
ATOM      6  C   UNL     1       9.318  16.767  18.387  0.00  0.00    +0.000 A 
ATOM      7  O   UNL     1       9.549  15.752  17.513  0.00  0.00    +0.000 OA
ATOM      8  C   UNL     1      10.289  14.877  18.578  0.00  0.00    +0.000 C 
ATOM      9  C   UNL     1       9.830  14.195  20.497  0.00  0.00    +0.000 C 
ATOM     10  C   UNL     1      10.283  12.864  21.085  0.00  0.00    +0.000 C 
ATOM     11  C   UNL     1      10.902  12.152  20.181  0.00  0.00    +0.000 C 
ATOM     12  C   UNL     1      10.779  12.928  18.929  0.00  0.00    +0.000 C 
ATOM     13  C   UNL     1      12.281  13.917  19.215  0.00  0.00    +0.000 C 
ATOM     14  C   UNL     1      12.136  15.305  20.227  0.00  0.00    +0.000 C 
ATOM     15  C   UNL     1      10.632  11.946  17.756  0.00  0.00    +0.000 C 
ATOM     16  N   UNL     1       9.262  11.373  17.643  0.00  0.00    +0.000 NA
ATOM     17  C   UNL     1       8.299  12.389  17.177  0.00  0.00    +0.000 C 
ATOM     18  C   UNL     1       8.084  13.642  18.035  0.00  0.00    +0.000 C 
ATOM     19  C   UNL     1       9.273  14.060  18.879  0.00  0.00    +0.000 C 
ENDROOT
BRANCH   1  20
ATOM     20  O   UNL     1      10.086  18.629  17.067  0.00  0.00    +0.000 OA
ATOM     21  H   UNL     1       9.615  19.483  17.079  0.00  0.00    +0.000 HD
ENDBRANCH   1  20
BRANCH   9  22
ATOM     22  O   UNL     1       8.368  14.186  20.896  0.00  0.00    +0.000 OA
ATOM     23  H   UNL     1       8.080  13.259  20.906  0.00  0.00    +0.000 HD
ENDBRANCH   9  22
BRANCH  16  24
ATOM     24  C   UNL     1       8.728  10.624  18.801  0.00  0.00    +0.000 C 
BRANCH  24  25
ATOM     25  C   UNL     1       8.518   9.146  18.551  0.00  0.00    +0.000 C 
ATOM     26  C   UNL     1       7.566   8.655  17.730  0.00  0.00    +0.000 C 
BRANCH  26  27
ATOM     27  C   UNL     1       7.235   7.232  17.529  0.00  0.00    +0.000 A 
ATOM     28  C   UNL     1       7.290   6.361  18.632  0.00  0.00    +0.000 A 
ATOM     29  C   UNL     1       6.955   5.008  18.501  0.00  0.00    +0.000 A 
ATOM     30  C   UNL     1       6.562   4.507  17.262  0.00  0.00    +0.000 A 
ATOM     31  C   UNL     1       6.510   5.356  16.160  0.00  0.00    +0.000 A 
ATOM     32  C   UNL     1       6.839   6.709  16.293  0.00  0.00    +0.000 A 
ENDBRANCH  26  27
ENDBRANCH  24  25
ENDBRANCH  16  24
TORSDOF 5
ENDMDL
MODEL 6
REMARK VINA RESULT:      -7.4      8.524     11.445
REMARK  Name = 
REMARK  5 active torsions:
REMARK  status: ('A' for Active; 'I' for Inactive)
REMARK    1  A    between atoms: O_1  and  C_2
REMARK    2  A    between atoms: C_10  and  O_11
REMARK    3  A    between atoms: N_18  and  C_19
REMARK    4  A    between atoms: C_19  and  C_20
REMARK    5  A    between atoms: C_21  and  C_22
REMARK                            x       y       z     vdW  Elec       q    Type
REMARK                         _______ _______ _______ _____ _____    ______ ____
ROOT
ATOM      1  C   UNL     1       1.699   8.133  19.828  0.00  0.00    +0.000 A 
ATOM      2  C   UNL     1       2.120   8.117  18.483  0.00  0.00    +0.000 A 
ATOM      3  C   UNL     1       1.921   9.244  17.700  0.00  0.00    +0.000 A 
ATOM      4  C   UNL     1       1.308  10.309  18.339  0.00  0.00    +0.000 A 
ATOM      5  C   UNL     1       0.268  10.055  19.488  0.00  0.00    +0.000 A 
ATOM      6  C   UNL     1       0.733   9.060  20.268  0.00  0.00    +0.000 A 
ATOM      7  O   UNL     1       0.923   9.929  21.295  0.00  0.00    +0.000 OA
ATOM      8  C   UNL     1       0.901  11.184  20.360  0.00  0.00    +0.000 C 
ATOM      9  C   UNL     1      -0.415  11.920  18.917  0.00  0.00    +0.000 C 
ATOM     10  C   UNL     1      -0.662  13.396  18.628  0.00  0.00    +0.000 C 
ATOM     11  C   UNL     1      -0.025  14.143  19.489  0.00  0.00    +0.000 C 
ATOM     12  C   UNL     1       0.572  13.196  20.454  0.00  0.00    +0.000 C 
ATOM     13  C   UNL     1       2.102  12.947  19.497  0.00  0.00    +0.000 C 
ATOM     14  C   UNL     1       2.057  11.797  18.215  0.00  0.00    +0.000 C 
ATOM     15  C   UNL     1       0.550  13.838  21.850  0.00  0.00    +0.000 C 
ATOM     16  N   UNL     1      -0.791  13.790  22.494  0.00  0.00    +0.000 NA
ATOM     17  C   UNL     1      -1.136  12.414  22.900  0.00  0.00    +0.000 C 
ATOM     18  C   UNL     1      -1.229  11.332  21.816  0.00  0.00    +0.000 C 
ATOM     19  C   UNL     1      -0.360  11.564  20.595  0.00  0.00    +0.000 C 
ENDROOT
BRANCH   1  20
ATOM     20  O   UNL     1       2.485   7.476  20.742  0.00  0.00    +0.000 OA
ATOM     21  H   UNL     1       1.983   7.418  21.576  0.00  0.00    +0.000 HD
ENDBRANCH   1  20
BRANCH   9  22
ATOM     22  O   UNL     1      -1.841  11.407  18.957  0.00  0.00    +0.000 OA
ATOM     23  H   UNL     1      -2.108  11.376  19.889  0.00  0.00    +0.000 HD
ENDBRANCH   9  22
BRANCH  16  24
ATOM     24  C   UNL     1      -1.920  14.436  21.789  0.00  0.00    +0.000 C 
BRANCH  24  25
ATOM     25  C   UNL     1      -3.187  13.610  21.743  0.00  0.00    +0.000 C 
ATOM     26  C   UNL     1      -3.919  13.424  20.624  0.00  0.00    +0.000 C 
BRANCH  26  27
ATOM     27  C   UNL     1      -5.216  12.729  20.534  0.00  0.00    +0.000 A 
ATOM     28  C   UNL     1      -5.514  11.998  19.371  0.00  0.00    +0.000 A 
ATOM     29  C   UNL     1      -6.717  11.294  19.248  0.00  0.00    +0.000 A 
ATOM     30  C   UNL     1      -7.642  11.313  20.289  0.00  0.00    +0.000 A 
ATOM     31  C   UNL     1      -7.364  12.038  21.446  0.00  0.00    +0.000 A 
ATOM     32  C   UNL     1      -6.158  12.737  21.569  0.00  0.00    +0.000 A 
ENDBRANCH  26  27
ENDBRANCH  24  25
ENDBRANCH  16  24
TORSDOF 5
ENDMDL
MODEL 7
REMARK VINA RESULT:      -7.1      7.118     10.072
REMARK  Name = 
REMARK  5 active torsions:
REMARK  status: ('A' for Active; 'I' for Inactive)
REMARK    1  A    between atoms: O_1  and  C_2
REMARK    2  A    between atoms: C_10  and  O_11
REMARK    3  A    between atoms: N_18  and  C_19
REMARK    4  A    between atoms: C_19  and  C_20
REMARK    5  A    between atoms: C_21  and  C_22
REMARK                            x       y       z     vdW  Elec       q    Type
REMARK                         _______ _______ _______ _____ _____    ______ ____
ROOT
ATOM      1  C   UNL     1      -2.292  13.188  23.694  0.00  0.00    +0.000 A 
ATOM      2  C   UNL     1      -2.294  14.591  23.570  0.00  0.00    +0.000 A 
ATOM      3  C   UNL     1      -1.622  15.176  22.505  0.00  0.00    +0.000 A 
ATOM      4  C   UNL     1      -0.997  14.292  21.642  0.00  0.00    +0.000 A 
ATOM      5  C   UNL     1      -0.425  12.930  22.176  0.00  0.00    +0.000 A 
ATOM      6  C   UNL     1      -1.312  12.409  23.046  0.00  0.00    +0.000 A 
ATOM      7  O   UNL     1      -1.591  11.396  22.184  0.00  0.00    +0.000 OA
ATOM      8  C   UNL     1      -1.011  12.162  20.949  0.00  0.00    +0.000 C 
ATOM      9  C   UNL     1       0.801  13.106  20.521  0.00  0.00    +0.000 C 
ATOM     10  C   UNL     1       1.451  13.170  19.144  0.00  0.00    +0.000 C 
ATOM     11  C   UNL     1       0.778  12.451  18.287  0.00  0.00    +0.000 C 
ATOM     12  C   UNL     1      -0.274  11.786  19.083  0.00  0.00    +0.000 C 
ATOM     13  C   UNL     1      -1.472  13.148  18.922  0.00  0.00    +0.000 C 
ATOM     14  C   UNL     1      -1.318  14.473  20.013  0.00  0.00    +0.000 C 
ATOM     15  C   UNL     1      -0.516  10.383  18.504  0.00  0.00    +0.000 C 
ATOM     16  N   UNL     1       0.532   9.401  18.898  0.00  0.00    +0.000 NA
ATOM     17  C   UNL     1       0.419   9.050  20.327  0.00  0.00    +0.000 C 
ATOM     18  C   UNL     1       0.576  10.166  21.369  0.00  0.00    +0.000 C 
ATOM     19  C   UNL     1       0.178  11.551  20.898  0.00  0.00    +0.000 C 
ENDROOT
BRANCH   1  20
ATOM     20  O   UNL     1      -3.439  12.595  24.161  0.00  0.00    +0.000 OA
ATOM     21  H   UNL     1      -3.196  11.721  24.518  0.00  0.00    +0.000 HD
ENDBRANCH   1  20
BRANCH   9  22
ATOM     22  O   UNL     1       1.997  12.722  21.371  0.00  0.00    +0.000 OA
ATOM     23  H   UNL     1       2.642  13.444  21.299  0.00  0.00    +0.000 HD
ENDBRANCH   9  22
BRANCH  16  24
ATOM     24  C   UNL     1       1.933   9.699  18.532  0.00  0.00    +0.000 C 
BRANCH  24  25
ATOM     25  C   UNL     1       2.615   8.615  17.725  0.00  0.00    +0.000 C 
ATOM     26  C   UNL     1       2.895   7.387  18.209  0.00  0.00    +0.000 C 
BRANCH  26  27
ATOM     27  C   UNL     1       3.654   6.328  17.519  0.00  0.00    +0.000 A 
ATOM     28  C   UNL     1       4.693   6.697  16.646  0.00  0.00    +0.000 A 
ATOM     29  C   UNL     1       5.464   5.731  15.991  0.00  0.00    +0.000 A 
ATOM     30  C   UNL     1       5.205   4.378  16.199  0.00  0.00    +0.000 A 
ATOM     31  C   UNL     1       4.175   3.997  17.056  0.00  0.00    +0.000 A 
ATOM     32  C   UNL     1       3.409   4.964  17.714  0.00  0.00    +0.000 A 
ENDBRANCH  26  27
ENDBRANCH  24  25
ENDBRANCH  16  24
TORSDOF 5
ENDMDL
MODEL 8
REMARK VINA RESULT:      -7.1      7.050     10.509
REMARK  Name = 
REMARK  5 active torsions:
REMARK  status: ('A' for Active; 'I' for Inactive)
REMARK    1  A    between atoms: O_1  and  C_2
REMARK    2  A    between atoms: C_10  and  O_11
REMARK    3  A    between atoms: N_18  and  C_19
REMARK    4  A    between atoms: C_19  and  C_20
REMARK    5  A    between atoms: C_21  and  C_22
REMARK                            x       y       z     vdW  Elec       q    Type
REMARK                         _______ _______ _______ _____ _____    ______ ____
ROOT
ATOM      1  C   UNL     1      -2.264  15.060  21.514  0.00  0.00    +0.000 A 
ATOM      2  C   UNL     1      -1.883  15.994  20.531  0.00  0.00    +0.000 A 
ATOM      3  C   UNL     1      -0.975  15.614  19.553  0.00  0.00    +0.000 A 
ATOM      4  C   UNL     1      -0.520  14.309  19.643  0.00  0.00    +0.000 A 
ATOM      5  C   UNL     1      -0.386  13.609  21.043  0.00  0.00    +0.000 A 
ATOM      6  C   UNL     1      -1.463  13.932  21.784  0.00  0.00    +0.000 A 
ATOM      7  O   UNL     1      -1.909  12.650  21.729  0.00  0.00    +0.000 OA
ATOM      8  C   UNL     1      -1.024  12.296  20.488  0.00  0.00    +0.000 C 
ATOM      9  C   UNL     1       1.007  12.462  20.034  0.00  0.00    +0.000 C 
ATOM     10  C   UNL     1       1.789  11.495  19.154  0.00  0.00    +0.000 C 
ATOM     11  C   UNL     1       1.042  10.478  18.815  0.00  0.00    +0.000 C 
ATOM     12  C   UNL     1      -0.225  10.668  19.552  0.00  0.00    +0.000 C 
ATOM     13  C   UNL     1      -0.997  11.700  18.265  0.00  0.00    +0.000 C 
ATOM     14  C   UNL     1      -0.613  13.379  18.258  0.00  0.00    +0.000 C 
ATOM     15  C   UNL     1      -0.766   9.290  19.960  0.00  0.00    +0.000 C 
ATOM     16  N   UNL     1      -0.062   8.710  21.137  0.00  0.00    +0.000 NA
ATOM     17  C   UNL     1      -0.409   9.436  22.373  0.00  0.00    +0.000 C 
ATOM     18  C   UNL     1      -0.072  10.930  22.464  0.00  0.00    +0.000 C 
ATOM     19  C   UNL     1      -0.039  11.667  21.140  0.00  0.00    +0.000 C 
ENDROOT
BRANCH   1  20
ATOM     20  O   UNL     1      -3.569  15.091  21.942  0.00  0.00    +0.000 OA
ATOM     21  H   UNL     1      -4.112  15.436  21.209  0.00  0.00    +0.000 HD
ENDBRANCH   1  20
BRANCH   9  22
ATOM     22  O   UNL     1       1.966  12.606  21.200  0.00  0.00    +0.000 OA
ATOM     23  H   UNL     1       1.525  13.158  21.866  0.00  0.00    +0.000 HD
ENDBRANCH   9  22
BRANCH  16  24
ATOM     24  C   UNL     1       1.399   8.500  21.034  0.00  0.00    +0.000 C 
BRANCH  24  25
ATOM     25  C   UNL     1       1.801   7.191  20.390  0.00  0.00    +0.000 C 
ATOM     26  C   UNL     1       2.401   7.105  19.184  0.00  0.00    +0.000 C 
BRANCH  26  27
ATOM     27  C   UNL     1       2.716   5.865  18.452  0.00  0.00    +0.000 A 
ATOM     28  C   UNL     1       3.951   5.764  17.787  0.00  0.00    +0.000 A 
ATOM     29  C   UNL     1       4.311   4.597  17.104  0.00  0.00    +0.000 A 
ATOM     30  C   UNL     1       3.438   3.512  17.076  0.00  0.00    +0.000 A 
ATOM     31  C   UNL     1       2.209   3.599  17.724  0.00  0.00    +0.000 A 
ATOM     32  C   UNL     1       1.853   4.764  18.411  0.00  0.00    +0.000 A 
ENDBRANCH  26  27
ENDBRANCH  24  25
ENDBRANCH  16  24
TORSDOF 5
ENDMDL
MODEL 9
REMARK VINA RESULT:      -7.0      7.396     10.509
REMARK  Name = 
REMARK  5 active torsions:
REMARK  status: ('A' for Active; 'I' for Inactive)
REMARK    1  A    between atoms: O_1  and  C_2
REMARK    2  A    between atoms: C_10  and  O_11
REMARK    3  A    between atoms: N_18  and  C_19
REMARK    4  A    between atoms: C_19  and  C_20
REMARK    5  A    between atoms: C_21  and  C_22
REMARK                            x       y       z     vdW  Elec       q    Type
REMARK                         _______ _______ _______ _____ _____    ______ ____
ROOT
ATOM      1  C   UNL     1      -1.834  14.136  23.783  0.00  0.00    +0.000 A 
ATOM      2  C   UNL     1      -1.693  15.511  23.514  0.00  0.00    +0.000 A 
ATOM      3  C   UNL     1      -1.064  15.909  22.344  0.00  0.00    +0.000 A 
ATOM      4  C   UNL     1      -0.623  14.880  21.529  0.00  0.00    +0.000 A 
ATOM      5  C   UNL     1      -0.157  13.516  22.153  0.00  0.00    +0.000 A 
ATOM      6  C   UNL     1      -1.010  13.189  23.142  0.00  0.00    +0.000 A 
ATOM      7  O   UNL     1      -1.478  12.139  22.416  0.00  0.00    +0.000 OA
ATOM      8  C   UNL     1      -0.935  12.711  21.065  0.00  0.00    +0.000 C 
ATOM      9  C   UNL     1       0.922  13.389  20.395  0.00  0.00    +0.000 C 
ATOM     10  C   UNL     1       1.445  13.246  18.970  0.00  0.00    +0.000 C 
ATOM     11  C   UNL     1       0.619  12.534  18.250  0.00  0.00    +0.000 C 
ATOM     12  C   UNL     1      -0.421  12.076  19.195  0.00  0.00    +0.000 C 
ATOM     13  C   UNL     1      -1.471  13.551  18.990  0.00  0.00    +0.000 C 
ATOM     14  C   UNL     1      -1.072  14.944  19.921  0.00  0.00    +0.000 C 
ATOM     15  C   UNL     1      -0.868  10.664  18.787  0.00  0.00    +0.000 C 
ATOM     16  N   UNL     1       0.097   9.606  19.194  0.00  0.00    +0.000 NA
ATOM     17  C   UNL     1       0.079   9.407  20.656  0.00  0.00    +0.000 C 
ATOM     18  C   UNL     1       0.455  10.589  21.559  0.00  0.00    +0.000 C 
ATOM     19  C   UNL     1       0.170  11.961  20.981  0.00  0.00    +0.000 C 
ENDROOT
BRANCH   1  20
ATOM     20  O   UNL     1      -2.991  13.730  24.402  0.00  0.00    +0.000 OA
ATOM     21  H   UNL     1      -3.603  13.418  23.711  0.00  0.00    +0.000 HD
ENDBRANCH   1  20
BRANCH   9  22
ATOM     22  O   UNL     1       2.143  12.948  21.179  0.00  0.00    +0.000 OA
ATOM     23  H   UNL     1       2.839  13.604  21.016  0.00  0.00    +0.000 HD
ENDBRANCH   9  22
BRANCH  16  24
ATOM     24  C   UNL     1       1.482   9.700  18.685  0.00  0.00    +0.000 C 
BRANCH  24  25
ATOM     25  C   UNL     1       1.987   8.446  18.003  0.00  0.00    +0.000 C 
ATOM     26  C   UNL     1       2.562   7.418  18.661  0.00  0.00    +0.000 C 
BRANCH  26  27
ATOM     27  C   UNL     1       3.174   6.223  18.050  0.00  0.00    +0.000 A 
ATOM     28  C   UNL     1       2.391   5.067  17.891  0.00  0.00    +0.000 A 
ATOM     29  C   UNL     1       2.915   3.917  17.288  0.00  0.00    +0.000 A 
ATOM     30  C   UNL     1       4.233   3.909  16.838  0.00  0.00    +0.000 A 
ATOM     31  C   UNL     1       5.023   5.045  16.995  0.00  0.00    +0.000 A 
ATOM     32  C   UNL     1       4.496   6.195  17.593  0.00  0.00    +0.000 A 
ENDBRANCH  26  27
ENDBRANCH  24  25
ENDBRANCH  16  24
TORSDOF 5
ENDMDL
