MODEL 1
REMARK VINA RESULT:      -7.2      0.000      0.000
REMARK  Name = 
REMARK  8 active torsions:
REMARK  status: ('A' for Active; 'I' for Inactive)
REMARK    1  A    between atoms: C_1  and  N_2
REMARK    2  A    between atoms: N_2  and  C_3
REMARK    3  A    between atoms: C_5  and  C_6
REMARK    4  A    between atoms: C_9  and  O_10
REMARK    5  A    between atoms: O_10  and  C_11
REMARK    6  A    between atoms: C_12  and  S_13
REMARK    7  A    between atoms: S_13  and  N_16
REMARK    8  A    between atoms: C_24  and  C_25
REMARK                            x       y       z     vdW  Elec       q    Type
REMARK                         _______ _______ _______ _____ _____    ______ ____
ROOT
ATOM      1  C   UNL     1       1.991   6.551  20.065  0.00  0.00    +0.000 A 
ATOM      2  C   UNL     1       1.147   5.670  20.744  0.00  0.00    +0.000 A 
ATOM      3  C   UNL     1       1.365   4.292  20.695  0.00  0.00    +0.000 A 
ATOM      4  C   UNL     1       2.447   3.742  19.986  0.00  0.00    +0.000 A 
ATOM      5  C   UNL     1       3.298   4.623  19.294  0.00  0.00    +0.000 A 
ATOM      6  C   UNL     1       3.074   6.013  19.359  0.00  0.00    +0.000 A 
ENDROOT
BRANCH   1   9
ATOM      7  C   UNL     1       1.455   9.927  19.136  0.00  0.00    +0.000 A 
ATOM      8  O   UNL     1       1.822   8.639  18.868  0.00  0.00    +0.000 OA
ATOM      9  C   UNL     1       1.708   7.985  20.068  0.00  0.00    +0.000 A 
ATOM     10  N   UNL     1       1.293   8.744  21.065  0.00  0.00    +0.000 NA
ATOM     11  C   UNL     1       1.115   9.974  20.475  0.00  0.00    +0.000 A 
BRANCH   7  13
ATOM     12  C   UNL     1       2.267  12.048  18.227  0.00  0.00    +0.000 C 
ATOM     13  N   UNL     1       1.489  10.833  18.136  0.00  0.00    +0.000 N 
ATOM     14  H   UNL     1       0.826  10.789  17.365  0.00  0.00    +0.000 HD
ENDBRANCH   7  13
BRANCH  11  15
ATOM     15  C   UNL     1       0.598  11.087  21.192  0.00  0.00    +0.000 C 
ATOM     16  N   UNL     1       0.199  12.007  21.789  0.00  0.00    +0.000 NA
ENDBRANCH  11  15
ENDBRANCH   1   9
BRANCH   5  17
ATOM     17  S   UNL     1       4.813   4.113  18.470  0.00  0.00    +0.000 S 
ATOM     18  O   UNL     1       5.509   3.238  19.394  0.00  0.00    +0.000 OA
ATOM     19  O   UNL     1       4.480   3.635  17.146  0.00  0.00    +0.000 OA
BRANCH  17  20
ATOM     20  N   UNL     1       5.772   5.530  18.307  0.00  0.00    +0.000 NA
ATOM     21  C   UNL     1       7.178   5.392  18.749  0.00  0.00    +0.000 C 
ATOM     22  C   UNL     1       7.907   6.734  18.767  0.00  0.00    +0.000 C 
ATOM     23  C   UNL     1       7.765   7.458  17.437  0.00  0.00    +0.000 C 
ATOM     24  C   UNL     1       6.290   7.687  17.154  0.00  0.00    +0.000 C 
ATOM     25  C   UNL     1       5.522   6.366  17.107  0.00  0.00    +0.000 C 
ENDBRANCH  17  20
ENDBRANCH   5  17
BRANCH   4  26
ATOM     26  O   UNL     1       2.640   2.389  19.917  0.00  0.00    +0.000 OA
ATOM     27  C   UNL     1       1.945   1.698  18.871  0.00  0.00    +0.000 C 
ENDBRANCH   4  26
TORSDOF 6
ENDMDL
MODEL 2
REMARK VINA RESULT:      -7.2      2.052      4.630
REMARK  Name = 
REMARK  8 active torsions:
REMARK  status: ('A' for Active; 'I' for Inactive)
REMARK    1  A    between atoms: C_1  and  N_2
REMARK    2  A    between atoms: N_2  and  C_3
REMARK    3  A    between atoms: C_5  and  C_6
REMARK    4  A    between atoms: C_9  and  O_10
REMARK    5  A    between atoms: O_10  and  C_11
REMARK    6  A    between atoms: C_12  and  S_13
REMARK    7  A    between atoms: S_13  and  N_16
REMARK    8  A    between atoms: C_24  and  C_25
REMARK                            x       y       z     vdW  Elec       q    Type
REMARK                         _______ _______ _______ _____ _____    ______ ____
ROOT
ATOM      1  C   UNL     1       3.321   7.244  17.683  0.00  0.00    +0.000 A 
ATOM      2  C   UNL     1       4.109   7.580  16.580  0.00  0.00    +0.000 A 
ATOM      3  C   UNL     1       5.036   6.672  16.064  0.00  0.00    +0.000 A 
ATOM      4  C   UNL     1       5.196   5.388  16.613  0.00  0.00    +0.000 A 
ATOM      5  C   UNL     1       4.411   5.046  17.729  0.00  0.00    +0.000 A 
ATOM      6  C   UNL     1       3.471   5.967  18.236  0.00  0.00    +0.000 A 
ENDROOT
BRANCH   1   9
ATOM      7  C   UNL     1       1.159   9.056  19.827  0.00  0.00    +0.000 A 
ATOM      8  O   UNL     1       1.932   7.972  19.516  0.00  0.00    +0.000 OA
ATOM      9  C   UNL     1       2.407   8.230  18.255  0.00  0.00    +0.000 A 
ATOM     10  N   UNL     1       2.010   9.383  17.749  0.00  0.00    +0.000 NA
ATOM     11  C   UNL     1       1.232   9.918  18.749  0.00  0.00    +0.000 A 
BRANCH   7  13
ATOM     12  C   UNL     1       1.249   9.112  22.271  0.00  0.00    +0.000 C 
ATOM     13  N   UNL     1       0.527   9.082  21.019  0.00  0.00    +0.000 N 
ATOM     14  H   UNL     1      -0.470   8.892  21.088  0.00  0.00    +0.000 HD
ENDBRANCH   7  13
BRANCH  11  15
ATOM     15  C   UNL     1       0.653  11.212  18.644  0.00  0.00    +0.000 C 
ATOM     16  N   UNL     1       0.192  12.278  18.535  0.00  0.00    +0.000 NA
ENDBRANCH  11  15
ENDBRANCH   1   9
BRANCH   5  17
ATOM     17  S   UNL     1       4.369   3.404  18.459  0.00  0.00    +0.000 S 
ATOM     18  O   UNL     1       4.001   2.490  17.395  0.00  0.00    +0.000 OA
ATOM     19  O   UNL     1       5.599   3.192  19.190  0.00  0.00    +0.000 OA
BRANCH  17  20
ATOM     20  N   UNL     1       3.068   3.410  19.582  0.00  0.00    +0.000 NA
ATOM     21  C   UNL     1       1.759   2.993  19.032  0.00  0.00    +0.000 C 
ATOM     22  C   UNL     1       0.622   3.218  20.026  0.00  0.00    +0.000 C 
ATOM     23  C   UNL     1       0.933   2.588  21.374  0.00  0.00    +0.000 C 
ATOM     24  C   UNL     1       2.212   3.197  21.922  0.00  0.00    +0.000 C 
ATOM     25  C   UNL     1       3.385   2.978  20.967  0.00  0.00    +0.000 C 
ENDBRANCH  17  20
ENDBRANCH   5  17
BRANCH   4  26
ATOM     26  O   UNL     1       6.127   4.513  16.121  0.00  0.00    +0.000 OA
ATOM     27  C   UNL     1       5.995   4.151  14.741  0.00  0.00    +0.000 C 
ENDBRANCH   4  26
TORSDOF 6
ENDMDL
MODEL 3
REMARK VINA RESULT:      -7.1      2.026      4.443
REMARK  Name = 
REMARK  8 active torsions:
REMARK  status: ('A' for Active; 'I' for Inactive)
REMARK    1  A    between atoms: C_1  and  N_2
REMARK    2  A    between atoms: N_2  and  C_3
REMARK    3  A    between atoms: C_5  and  C_6
REMARK    4  A    between atoms: C_9  and  O_10
REMARK    5  A    between atoms: O_10  and  C_11
REMARK    6  A    between atoms: C_12  and  S_13
REMARK    7  A    between atoms: S_13  and  N_16
REMARK    8  A    between atoms: C_24  and  C_25
REMARK                            x       y       z     vdW  Elec       q    Type
REMARK                         _______ _______ _______ _____ _____    ______ ____
ROOT
ATOM      1  C   UNL     1       3.135   7.316  17.900  0.00  0.00    +0.000 A 
ATOM      2  C   UNL     1       3.906   7.728  16.811  0.00  0.00    +0.000 A 
ATOM      3  C   UNL     1       4.875   6.885  16.264  0.00  0.00    +0.000 A 
ATOM      4  C   UNL     1       5.095   5.591  16.767  0.00  0.00    +0.000 A 
ATOM      5  C   UNL     1       4.327   5.171  17.868  0.00  0.00    +0.000 A 
ATOM      6  C   UNL     1       3.344   6.028  18.406  0.00  0.00    +0.000 A 
ENDROOT
BRANCH   1   9
ATOM      7  C   UNL     1       0.584   9.711  18.454  0.00  0.00    +0.000 A 
ATOM      8  O   UNL     1       1.421   8.994  17.646  0.00  0.00    +0.000 OA
ATOM      9  C   UNL     1       2.174   8.236  18.505  0.00  0.00    +0.000 A 
ATOM     10  N   UNL     1       1.880   8.404  19.781  0.00  0.00    +0.000 NA
ATOM     11  C   UNL     1       0.860   9.327  19.753  0.00  0.00    +0.000 A 
BRANCH   7  13
ATOM     12  C   UNL     1      -1.594  10.178  17.443  0.00  0.00    +0.000 C 
ATOM     13  N   UNL     1      -0.279  10.581  17.888  0.00  0.00    +0.000 N 
ATOM     14  H   UNL     1       0.030  11.501  17.582  0.00  0.00    +0.000 HD
ENDBRANCH   7  13
BRANCH  11  15
ATOM     15  C   UNL     1       0.189   9.746  20.934  0.00  0.00    +0.000 C 
ATOM     16  N   UNL     1      -0.371  10.065  21.906  0.00  0.00    +0.000 NA
ENDBRANCH  11  15
ENDBRANCH   1   9
BRANCH   5  17
ATOM     17  S   UNL     1       4.362   3.504  18.538  0.00  0.00    +0.000 S 
ATOM     18  O   UNL     1       4.016   2.614  17.446  0.00  0.00    +0.000 OA
ATOM     19  O   UNL     1       5.611   3.316  19.244  0.00  0.00    +0.000 OA
BRANCH  17  20
ATOM     20  N   UNL     1       3.080   3.416  19.678  0.00  0.00    +0.000 NA
ATOM     21  C   UNL     1       1.751   3.096  19.108  0.00  0.00    +0.000 C 
ATOM     22  C   UNL     1       0.636   3.236  20.141  0.00  0.00    +0.000 C 
ATOM     23  C   UNL     1       0.950   2.451  21.404  0.00  0.00    +0.000 C 
ATOM     24  C   UNL     1       2.253   2.964  21.994  0.00  0.00    +0.000 C 
ATOM     25  C   UNL     1       3.406   2.825  21.000  0.00  0.00    +0.000 C 
ENDBRANCH  17  20
ENDBRANCH   5  17
BRANCH   4  26
ATOM     26  O   UNL     1       6.067   4.779  16.245  0.00  0.00    +0.000 OA
ATOM     27  C   UNL     1       5.845   4.292  14.915  0.00  0.00    +0.000 C 
ENDBRANCH   4  26
TORSDOF 6
ENDMDL
MODEL 4
REMARK VINA RESULT:      -7.1      1.508      2.021
REMARK  Name = 
REMARK  8 active torsions:
REMARK  status: ('A' for Active; 'I' for Inactive)
REMARK    1  A    between atoms: C_1  and  N_2
REMARK    2  A    between atoms: N_2  and  C_3
REMARK    3  A    between atoms: C_5  and  C_6
REMARK    4  A    between atoms: C_9  and  O_10
REMARK    5  A    between atoms: O_10  and  C_11
REMARK    6  A    between atoms: C_12  and  S_13
REMARK    7  A    between atoms: S_13  and  N_16
REMARK    8  A    between atoms: C_24  and  C_25
REMARK                            x       y       z     vdW  Elec       q    Type
REMARK                         _______ _______ _______ _____ _____    ______ ____
ROOT
ATOM      1  C   UNL     1       1.779   6.287  20.365  0.00  0.00    +0.000 A 
ATOM      2  C   UNL     1       0.879   5.228  20.502  0.00  0.00    +0.000 A 
ATOM      3  C   UNL     1       1.242   3.933  20.127  0.00  0.00    +0.000 A 
ATOM      4  C   UNL     1       2.522   3.641  19.626  0.00  0.00    +0.000 A 
ATOM      5  C   UNL     1       3.431   4.705  19.479  0.00  0.00    +0.000 A 
ATOM      6  C   UNL     1       3.057   6.007  19.870  0.00  0.00    +0.000 A 
ENDROOT
BRANCH   1   9
ATOM      7  C   UNL     1       0.961   9.733  20.242  0.00  0.00    +0.000 A 
ATOM      8  O   UNL     1       1.460   8.583  19.696  0.00  0.00    +0.000 OA
ATOM      9  C   UNL     1       1.360   7.648  20.695  0.00  0.00    +0.000 A 
ATOM     10  N   UNL     1       0.834   8.104  21.817  0.00  0.00    +0.000 NA
ATOM     11  C   UNL     1       0.564   9.422  21.529  0.00  0.00    +0.000 A 
BRANCH   7  13
ATOM     12  C   UNL     1      -0.091  11.122  18.526  0.00  0.00    +0.000 C 
ATOM     13  N   UNL     1       0.949  10.855  19.493  0.00  0.00    +0.000 N 
ATOM     14  H   UNL     1       1.765  11.462  19.444  0.00  0.00    +0.000 HD
ENDBRANCH   7  13
BRANCH  11  15
ATOM     15  C   UNL     1      -0.085  10.280  22.458  0.00  0.00    +0.000 C 
ATOM     16  N   UNL     1      -0.598  10.980  23.238  0.00  0.00    +0.000 NA
ENDBRANCH  11  15
ENDBRANCH   1   9
BRANCH   5  17
ATOM     17  S   UNL     1       5.152   4.495  19.005  0.00  0.00    +0.000 S 
ATOM     18  O   UNL     1       5.884   5.586  19.620  0.00  0.00    +0.000 OA
ATOM     19  O   UNL     1       5.543   3.129  19.278  0.00  0.00    +0.000 OA
BRANCH  17  20
ATOM     20  N   UNL     1       5.218   4.745  17.307  0.00  0.00    +0.000 NA
ATOM     21  C   UNL     1       5.432   6.148  16.885  0.00  0.00    +0.000 C 
ATOM     22  C   UNL     1       5.275   6.322  15.376  0.00  0.00    +0.000 C 
ATOM     23  C   UNL     1       6.136   5.329  14.612  0.00  0.00    +0.000 C 
ATOM     24  C   UNL     1       5.729   3.919  15.003  0.00  0.00    +0.000 C 
ATOM     25  C   UNL     1       5.889   3.691  16.505  0.00  0.00    +0.000 C 
ENDBRANCH  17  20
ENDBRANCH   5  17
BRANCH   4  26
ATOM     26  O   UNL     1       2.863   2.375  19.233  0.00  0.00    +0.000 OA
ATOM     27  C   UNL     1       2.548   2.020  17.881  0.00  0.00    +0.000 C 
ENDBRANCH   4  26
TORSDOF 6
ENDMDL
MODEL 5
REMARK VINA RESULT:      -6.9      2.977      7.777
REMARK  Name = 
REMARK  8 active torsions:
REMARK  status: ('A' for Active; 'I' for Inactive)
REMARK    1  A    between atoms: C_1  and  N_2
REMARK    2  A    between atoms: N_2  and  C_3
REMARK    3  A    between atoms: C_5  and  C_6
REMARK    4  A    between atoms: C_9  and  O_10
REMARK    5  A    between atoms: O_10  and  C_11
REMARK    6  A    between atoms: C_12  and  S_13
REMARK    7  A    between atoms: S_13  and  N_16
REMARK    8  A    between atoms: C_24  and  C_25
REMARK                            x       y       z     vdW  Elec       q    Type
REMARK                         _______ _______ _______ _____ _____    ______ ____
ROOT
ATOM      1  C   UNL     1       2.394   6.753  19.434  0.00  0.00    +0.000 A 
ATOM      2  C   UNL     1       1.822   6.426  20.666  0.00  0.00    +0.000 A 
ATOM      3  C   UNL     1       1.066   7.364  21.371  0.00  0.00    +0.000 A 
ATOM      4  C   UNL     1       0.830   8.654  20.865  0.00  0.00    +0.000 A 
ATOM      5  C   UNL     1       1.409   8.993  19.628  0.00  0.00    +0.000 A 
ATOM      6  C   UNL     1       2.163   8.034  18.919  0.00  0.00    +0.000 A 
ENDROOT
BRANCH   1   9
ATOM      7  C   UNL     1       4.148   3.834  18.458  0.00  0.00    +0.000 A 
ATOM      8  O   UNL     1       3.363   4.547  19.320  0.00  0.00    +0.000 OA
ATOM      9  C   UNL     1       3.242   5.785  18.742  0.00  0.00    +0.000 A 
ATOM     10  N   UNL     1       3.872   5.912  17.589  0.00  0.00    +0.000 NA
ATOM     11  C   UNL     1       4.435   4.671  17.397  0.00  0.00    +0.000 A 
BRANCH   7  13
ATOM     12  C   UNL     1       3.606   1.449  18.444  0.00  0.00    +0.000 C 
ATOM     13  N   UNL     1       4.468   2.561  18.773  0.00  0.00    +0.000 N 
ATOM     14  H   UNL     1       5.230   2.356  19.416  0.00  0.00    +0.000 HD
ENDBRANCH   7  13
BRANCH  11  15
ATOM     15  C   UNL     1       5.159   4.345  16.217  0.00  0.00    +0.000 C 
ATOM     16  N   UNL     1       5.744   4.053  15.251  0.00  0.00    +0.000 NA
ENDBRANCH  11  15
ENDBRANCH   1   9
BRANCH   5  17
ATOM     17  S   UNL     1       1.087  10.533  18.759  0.00  0.00    +0.000 S 
ATOM     18  O   UNL     1       1.459  11.602  19.665  0.00  0.00    +0.000 OA
ATOM     19  O   UNL     1       1.698  10.460  17.449  0.00  0.00    +0.000 OA
BRANCH  17  20
ATOM     20  N   UNL     1      -0.617  10.622  18.554  0.00  0.00    +0.000 NA
ATOM     21  C   UNL     1      -1.216  11.947  18.834  0.00  0.00    +0.000 C 
ATOM     22  C   UNL     1      -2.741  11.898  18.831  0.00  0.00    +0.000 C 
ATOM     23  C   UNL     1      -3.272  11.259  17.557  0.00  0.00    +0.000 C 
ATOM     24  C   UNL     1      -2.720   9.848  17.446  0.00  0.00    +0.000 C 
ATOM     25  C   UNL     1      -1.192   9.848  17.425  0.00  0.00    +0.000 C 
ENDBRANCH  17  20
ENDBRANCH   5  17
BRANCH   4  26
ATOM     26  O   UNL     1       0.112   9.578  21.574  0.00  0.00    +0.000 OA
ATOM     27  C   UNL     1       0.175   9.475  23.003  0.00  0.00    +0.000 C 
ENDBRANCH   4  26
TORSDOF 6
ENDMDL
MODEL 6
REMARK VINA RESULT:      -6.9      1.464      2.019
REMARK  Name = 
REMARK  8 active torsions:
REMARK  status: ('A' for Active; 'I' for Inactive)
REMARK    1  A    between atoms: C_1  and  N_2
REMARK    2  A    between atoms: N_2  and  C_3
REMARK    3  A    between atoms: C_5  and  C_6
REMARK    4  A    between atoms: C_9  and  O_10
REMARK    5  A    between atoms: O_10  and  C_11
REMARK    6  A    between atoms: C_12  and  S_13
REMARK    7  A    between atoms: S_13  and  N_16
REMARK    8  A    between atoms: C_24  and  C_25
REMARK                            x       y       z     vdW  Elec       q    Type
REMARK                         _______ _______ _______ _____ _____    ______ ____
ROOT
ATOM      1  C   UNL     1       2.347   6.479  19.386  0.00  0.00    +0.000 A 
ATOM      2  C   UNL     1       1.948   5.213  19.820  0.00  0.00    +0.000 A 
ATOM      3  C   UNL     1       2.411   4.062  19.179  0.00  0.00    +0.000 A 
ATOM      4  C   UNL     1       3.307   4.129  18.099  0.00  0.00    +0.000 A 
ATOM      5  C   UNL     1       3.708   5.401  17.652  0.00  0.00    +0.000 A 
ATOM      6  C   UNL     1       3.242   6.557  18.312  0.00  0.00    +0.000 A 
ENDROOT
BRANCH   1   9
ATOM      7  C   UNL     1       1.041   9.709  20.031  0.00  0.00    +0.000 A 
ATOM      8  O   UNL     1       1.603   8.768  19.215  0.00  0.00    +0.000 OA
ATOM      9  C   UNL     1       1.798   7.676  20.021  0.00  0.00    +0.000 A 
ATOM     10  N   UNL     1       1.401   7.842  21.269  0.00  0.00    +0.000 NA
ATOM     11  C   UNL     1       0.904   9.125  21.276  0.00  0.00    +0.000 A 
BRANCH   7  13
ATOM     12  C   UNL     1       1.640  11.604  18.605  0.00  0.00    +0.000 C 
ATOM     13  N   UNL     1       0.750  10.922  19.518  0.00  0.00    +0.000 N 
ATOM     14  H   UNL     1      -0.011  11.483  19.896  0.00  0.00    +0.000 HD
ENDBRANCH   7  13
BRANCH  11  15
ATOM     15  C   UNL     1       0.298   9.694  22.430  0.00  0.00    +0.000 C 
ATOM     16  N   UNL     1      -0.195  10.184  23.366  0.00  0.00    +0.000 NA
ENDBRANCH  11  15
ENDBRANCH   1   9
BRANCH   5  17
ATOM     17  S   UNL     1       4.962   5.673  16.393  0.00  0.00    +0.000 S 
ATOM     18  O   UNL     1       5.173   4.396  15.740  0.00  0.00    +0.000 OA
ATOM     19  O   UNL     1       4.583   6.825  15.605  0.00  0.00    +0.000 OA
BRANCH  17  20
ATOM     20  N   UNL     1       6.413   6.049  17.233  0.00  0.00    +0.000 NA
ATOM     21  C   UNL     1       6.728   7.492  17.331  0.00  0.00    +0.000 C 
ATOM     22  C   UNL     1       8.122   7.737  17.905  0.00  0.00    +0.000 C 
ATOM     23  C   UNL     1       8.319   6.991  19.215  0.00  0.00    +0.000 C 
ATOM     24  C   UNL     1       8.125   5.504  18.972  0.00  0.00    +0.000 C 
ATOM     25  C   UNL     1       6.734   5.208  18.415  0.00  0.00    +0.000 C 
ENDBRANCH  17  20
ENDBRANCH   5  17
BRANCH   4  26
ATOM     26  O   UNL     1       3.735   2.998  17.456  0.00  0.00    +0.000 OA
ATOM     27  C   UNL     1       3.463   1.752  18.109  0.00  0.00    +0.000 C 
ENDBRANCH   4  26
TORSDOF 6
ENDMDL
MODEL 7
REMARK VINA RESULT:      -6.9      2.122      4.236
REMARK  Name = 
REMARK  8 active torsions:
REMARK  status: ('A' for Active; 'I' for Inactive)
REMARK    1  A    between atoms: C_1  and  N_2
REMARK    2  A    between atoms: N_2  and  C_3
REMARK    3  A    between atoms: C_5  and  C_6
REMARK    4  A    between atoms: C_9  and  O_10
REMARK    5  A    between atoms: O_10  and  C_11
REMARK    6  A    between atoms: C_12  and  S_13
REMARK    7  A    between atoms: S_13  and  N_16
REMARK    8  A    between atoms: C_24  and  C_25
REMARK                            x       y       z     vdW  Elec       q    Type
REMARK                         _______ _______ _______ _____ _____    ______ ____
ROOT
ATOM      1  C   UNL     1       3.133   7.104  17.962  0.00  0.00    +0.000 A 
ATOM      2  C   UNL     1       4.253   7.542  17.252  0.00  0.00    +0.000 A 
ATOM      3  C   UNL     1       5.121   6.626  16.655  0.00  0.00    +0.000 A 
ATOM      4  C   UNL     1       4.892   5.241  16.723  0.00  0.00    +0.000 A 
ATOM      5  C   UNL     1       3.770   4.792  17.442  0.00  0.00    +0.000 A 
ATOM      6  C   UNL     1       2.894   5.727  18.033  0.00  0.00    +0.000 A 
ENDROOT
BRANCH   1   9
ATOM      7  C   UNL     1       0.970   9.805  18.725  0.00  0.00    +0.000 A 
ATOM      8  O   UNL     1       1.768   9.091  17.875  0.00  0.00    +0.000 OA
ATOM      9  C   UNL     1       2.273   8.072  18.641  0.00  0.00    +0.000 A 
ATOM     10  N   UNL     1       1.858   8.075  19.894  0.00  0.00    +0.000 NA
ATOM     11  C   UNL     1       1.018   9.163  19.948  0.00  0.00    +0.000 A 
BRANCH   7  13
ATOM     12  C   UNL     1       0.585  12.219  18.802  0.00  0.00    +0.000 C 
ATOM     13  N   UNL     1       0.341  10.903  18.257  0.00  0.00    +0.000 N 
ATOM     14  H   UNL     1      -0.462  10.823  17.636  0.00  0.00    +0.000 HD
ENDBRANCH   7  13
BRANCH  11  15
ATOM     15  C   UNL     1       0.287   9.495  21.122  0.00  0.00    +0.000 C 
ATOM     16  N   UNL     1      -0.322   9.742  22.085  0.00  0.00    +0.000 NA
ENDBRANCH  11  15
ENDBRANCH   1   9
BRANCH   5  17
ATOM     17  S   UNL     1       3.237   3.076  17.501  0.00  0.00    +0.000 S 
ATOM     18  O   UNL     1       2.116   2.963  16.588  0.00  0.00    +0.000 OA
ATOM     19  O   UNL     1       4.394   2.227  17.321  0.00  0.00    +0.000 OA
BRANCH  17  20
ATOM     20  N   UNL     1       2.620   2.818  19.083  0.00  0.00    +0.000 NA
ATOM     21  C   UNL     1       3.624   2.882  20.169  0.00  0.00    +0.000 C 
ATOM     22  C   UNL     1       3.045   2.444  21.512  0.00  0.00    +0.000 C 
ATOM     23  C   UNL     1       1.765   3.199  21.835  0.00  0.00    +0.000 C 
ATOM     24  C   UNL     1       0.748   2.941  20.737  0.00  0.00    +0.000 C 
ATOM     25  C   UNL     1       1.278   3.384  19.374  0.00  0.00    +0.000 C 
ENDBRANCH  17  20
ENDBRANCH   5  17
BRANCH   4  26
ATOM     26  O   UNL     1       5.763   4.346  16.161  0.00  0.00    +0.000 OA
ATOM     27  C   UNL     1       6.033   4.512  14.763  0.00  0.00    +0.000 C 
ENDBRANCH   4  26
TORSDOF 6
ENDMDL
MODEL 8
REMARK VINA RESULT:      -6.9      3.079      7.715
REMARK  Name = 
REMARK  8 active torsions:
REMARK  status: ('A' for Active; 'I' for Inactive)
REMARK    1  A    between atoms: C_1  and  N_2
REMARK    2  A    between atoms: N_2  and  C_3
REMARK    3  A    between atoms: C_5  and  C_6
REMARK    4  A    between atoms: C_9  and  O_10
REMARK    5  A    between atoms: O_10  and  C_11
REMARK    6  A    between atoms: C_12  and  S_13
REMARK    7  A    between atoms: S_13  and  N_16
REMARK    8  A    between atoms: C_24  and  C_25
REMARK                            x       y       z     vdW  Elec       q    Type
REMARK                         _______ _______ _______ _____ _____    ______ ____
ROOT
ATOM      1  C   UNL     1       2.317   7.334  19.270  0.00  0.00    +0.000 A 
ATOM      2  C   UNL     1       1.703   6.764  20.388  0.00  0.00    +0.000 A 
ATOM      3  C   UNL     1       0.864   7.524  21.204  0.00  0.00    +0.000 A 
ATOM      4  C   UNL     1       0.586   8.873  20.925  0.00  0.00    +0.000 A 
ATOM      5  C   UNL     1       1.206   9.456  19.805  0.00  0.00    +0.000 A 
ATOM      6  C   UNL     1       2.045   8.677  18.981  0.00  0.00    +0.000 A 
ENDROOT
BRANCH   1   9
ATOM      7  C   UNL     1       4.223   4.708  17.847  0.00  0.00    +0.000 A 
ATOM      8  O   UNL     1       3.343   5.210  18.764  0.00  0.00    +0.000 OA
ATOM      9  C   UNL     1       3.249   6.546  18.466  0.00  0.00    +0.000 A 
ATOM     10  N   UNL     1       3.983   6.927  17.437  0.00  0.00    +0.000 NA
ATOM     11  C   UNL     1       4.590   5.762  17.030  0.00  0.00    +0.000 A 
BRANCH   7  13
ATOM     12  C   UNL     1       3.535   2.369  18.033  0.00  0.00    +0.000 C 
ATOM     13  N   UNL     1       4.541   3.398  17.901  0.00  0.00    +0.000 N 
ATOM     14  H   UNL     1       5.503   3.098  18.041  0.00  0.00    +0.000 HD
ENDBRANCH   7  13
BRANCH  11  15
ATOM     15  C   UNL     1       5.429   5.708  15.884  0.00  0.00    +0.000 C 
ATOM     16  N   UNL     1       6.112   5.638  14.941  0.00  0.00    +0.000 NA
ENDBRANCH  11  15
ENDBRANCH   1   9
BRANCH   5  17
ATOM     17  S   UNL     1       0.846  11.113  19.209  0.00  0.00    +0.000 S 
ATOM     18  O   UNL     1       0.697  11.950  20.384  0.00  0.00    +0.000 OA
ATOM     19  O   UNL     1       1.824  11.464  18.201  0.00  0.00    +0.000 OA
BRANCH  17  20
ATOM     20  N   UNL     1      -0.696  11.030  18.457  0.00  0.00    +0.000 NA
ATOM     21  C   UNL     1      -0.933   9.820  17.637  0.00  0.00    +0.000 C 
ATOM     22  C   UNL     1      -2.233   9.911  16.843  0.00  0.00    +0.000 C 
ATOM     23  C   UNL     1      -3.407  10.263  17.742  0.00  0.00    +0.000 C 
ATOM     24  C   UNL     1      -3.131  11.596  18.417  0.00  0.00    +0.000 C 
ATOM     25  C   UNL     1      -1.846  11.546  19.242  0.00  0.00    +0.000 C 
ENDBRANCH  17  20
ENDBRANCH   5  17
BRANCH   4  26
ATOM     26  O   UNL     1      -0.215   9.621  21.745  0.00  0.00    +0.000 OA
ATOM     27  C   UNL     1       0.028   9.504  23.153  0.00  0.00    +0.000 C 
ENDBRANCH   4  26
TORSDOF 6
ENDMDL
MODEL 9
REMARK VINA RESULT:      -6.9      2.207      4.503
REMARK  Name = 
REMARK  8 active torsions:
REMARK  status: ('A' for Active; 'I' for Inactive)
REMARK    1  A    between atoms: C_1  and  N_2
REMARK    2  A    between atoms: N_2  and  C_3
REMARK    3  A    between atoms: C_5  and  C_6
REMARK    4  A    between atoms: C_9  and  O_10
REMARK    5  A    between atoms: O_10  and  C_11
REMARK    6  A    between atoms: C_12  and  S_13
REMARK    7  A    between atoms: S_13  and  N_16
REMARK    8  A    between atoms: C_24  and  C_25
REMARK                            x       y       z     vdW  Elec       q    Type
REMARK                         _______ _______ _______ _____ _____    ______ ____
ROOT
ATOM      1  C   UNL     1       3.215   6.955  17.833  0.00  0.00    +0.000 A 
ATOM      2  C   UNL     1       4.358   7.350  17.133  0.00  0.00    +0.000 A 
ATOM      3  C   UNL     1       5.223   6.400  16.587  0.00  0.00    +0.000 A 
ATOM      4  C   UNL     1       4.969   5.022  16.696  0.00  0.00    +0.000 A 
ATOM      5  C   UNL     1       3.824   4.616  17.405  0.00  0.00    +0.000 A 
ATOM      6  C   UNL     1       2.952   5.585  17.945  0.00  0.00    +0.000 A 
ENDROOT
BRANCH   1   9
ATOM      7  C   UNL     1       1.337   8.884  20.136  0.00  0.00    +0.000 A 
ATOM      8  O   UNL     1       2.099   7.801  19.797  0.00  0.00    +0.000 OA
ATOM      9  C   UNL     1       2.358   7.959  18.460  0.00  0.00    +0.000 A 
ATOM     10  N   UNL     1       1.835   9.049  17.929  0.00  0.00    +0.000 NA
ATOM     11  C   UNL     1       1.201   9.648  18.993  0.00  0.00    +0.000 A 
BRANCH   7  13
ATOM     12  C   UNL     1      -0.482   8.768  21.768  0.00  0.00    +0.000 C 
ATOM     13  N   UNL     1       0.900   8.997  21.408  0.00  0.00    +0.000 N 
ATOM     14  H   UNL     1       1.478   9.428  22.125  0.00  0.00    +0.000 HD
ENDBRANCH   7  13
BRANCH  11  15
ATOM     15  C   UNL     1       0.554  10.908  18.874  0.00  0.00    +0.000 C 
ATOM     16  N   UNL     1       0.010  11.938  18.799  0.00  0.00    +0.000 NA
ENDBRANCH  11  15
ENDBRANCH   1   9
BRANCH   5  17
ATOM     17  S   UNL     1       3.260   2.913  17.510  0.00  0.00    +0.000 S 
ATOM     18  O   UNL     1       2.135   2.795  16.604  0.00  0.00    +0.000 OA
ATOM     19  O   UNL     1       4.402   2.039  17.350  0.00  0.00    +0.000 OA
BRANCH  17  20
ATOM     20  N   UNL     1       2.643   2.707  19.100  0.00  0.00    +0.000 NA
ATOM     21  C   UNL     1       3.657   2.747  20.179  0.00  0.00    +0.000 C 
ATOM     22  C   UNL     1       3.068   2.356  21.533  0.00  0.00    +0.000 C 
ATOM     23  C   UNL     1       1.823   3.169  21.850  0.00  0.00    +0.000 C 
ATOM     24  C   UNL     1       0.789   2.935  20.762  0.00  0.00    +0.000 C 
ATOM     25  C   UNL     1       1.328   3.332  19.389  0.00  0.00    +0.000 C 
ENDBRANCH  17  20
ENDBRANCH   5  17
BRANCH   4  26
ATOM     26  O   UNL     1       5.836   4.095  16.184  0.00  0.00    +0.000 OA
ATOM     27  C   UNL     1       6.033   4.122  14.764  0.00  0.00    +0.000 C 
ENDBRANCH   4  26
TORSDOF 6
ENDMDL
