MODEL 1
REMARK VINA RESULT:      -8.3      0.000      0.000
REMARK  Name = 
REMARK  10 active torsions:
REMARK  status: ('A' for Active; 'I' for Inactive)
REMARK    1  A    between atoms: C_1  and  C_2
REMARK    2  A    between atoms: C_2  and  O_3
REMARK    3  A    between atoms: O_3  and  C_4
REMARK    4  A    between atoms: C_4  and  C_6
REMARK    5  A    between atoms: C_8  and  N_9
REMARK    6  A    between atoms: C_15  and  C_16
REMARK    7  A    between atoms: C_20  and  C_21
REMARK    8  A    between atoms: C_21  and  C_22
REMARK    9  A    between atoms: C_28  and  N_29
REMARK   10  A    between atoms: N_32  and  C_33
REMARK                            x       y       z     vdW  Elec       q    Type
REMARK                         _______ _______ _______ _____ _____    ______ ____
ROOT
ATOM      1  C   UNL     1       1.205   9.593  19.036  0.00  0.00    +0.000 A 
ATOM      2  C   UNL     1       1.698   8.673  18.083  0.00  0.00    +0.000 A 
ATOM      3  C   UNL     1       2.197   7.431  18.461  0.00  0.00    +0.000 A 
ATOM      4  C   UNL     1       2.161   7.116  19.817  0.00  0.00    +0.000 A 
ATOM      5  C   UNL     1       1.684   8.010  20.765  0.00  0.00    +0.000 A 
ATOM      6  C   UNL     1       1.175   9.262  20.411  0.00  0.00    +0.000 A 
ENDROOT
BRANCH   3   7
ATOM      7  N   UNL     1       2.665   6.545  17.478  0.00  0.00    +0.000 N 
ATOM      8  C   UNL     1       3.864   5.838  17.513  0.00  0.00    +0.000 A 
ATOM      9  N   UNL     1       4.447   5.557  18.682  0.00  0.00    +0.000 NA
ATOM     10  C   UNL     1       5.705   5.100  18.674  0.00  0.00    +0.000 A 
ATOM     11  C   UNL     1       6.407   4.852  17.526  0.00  0.00    +0.000 A 
ATOM     12 CL   UNL     1       8.056   4.390  17.677  0.00  0.00    +0.000 Cl
ATOM     13  C   UNL     1       5.705   5.064  16.346  0.00  0.00    +0.000 A 
ATOM     14  N   UNL     1       4.435   5.565  16.338  0.00  0.00    +0.000 NA
ATOM     15  H   UNL     1       2.463   6.797  16.520  0.00  0.00    +0.000 HD
BRANCH  13  16
ATOM     16  C   UNL     1       6.224   4.795  14.991  0.00  0.00    +0.000 A 
ATOM     17  C   UNL     1       7.389   5.407  14.503  0.00  0.00    +0.000 A 
ATOM     18  C   UNL     1       7.862   5.139  13.222  0.00  0.00    +0.000 A 
ATOM     19  C   UNL     1       7.200   4.224  12.409  0.00  0.00    +0.000 A 
ATOM     20  C   UNL     1       6.052   3.569  12.873  0.00  0.00    +0.000 A 
ATOM     21  C   UNL     1       5.576   3.866  14.157  0.00  0.00    +0.000 A 
BRANCH  20  22
ATOM     22  C   UNL     1       5.310   2.591  11.995  0.00  0.00    +0.000 C 
BRANCH  22  23
ATOM     23  C   UNL     1       4.253   3.231  11.200  0.00  0.00    +0.000 C 
ATOM     24  N   UNL     1       3.427   3.744  10.553  0.00  0.00    +0.000 NA
ENDBRANCH  22  23
ENDBRANCH  20  22
ENDBRANCH  13  16
ENDBRANCH   3   7
BRANCH   6  25
ATOM     25  N   UNL     1       0.630  10.060  21.393  0.00  0.00    +0.000 N 
ATOM     26  C   UNL     1       0.133   9.505  22.661  0.00  0.00    +0.000 C 
ATOM     27  C   UNL     1      -1.097  10.315  23.130  0.00  0.00    +0.000 C 
ATOM     28  N   UNL     1      -0.836  11.773  23.213  0.00  0.00    +0.000 NA
ATOM     29  C   UNL     1      -2.065  12.488  23.547  0.00  0.00    +0.000 C 
ATOM     30  C   UNL     1      -0.325  12.253  21.903  0.00  0.00    +0.000 C 
ATOM     31  C   UNL     1       0.941  11.491  21.457  0.00  0.00    +0.000 C 
ENDBRANCH   6  25
BRANCH   1  32
ATOM     32  C   UNL     1       0.552  10.819  18.496  0.00  0.00    +0.000 C 
ATOM     33  O   UNL     1       1.116  11.869  18.237  0.00  0.00    +0.000 OA
BRANCH  32  34
ATOM     34  O   UNL     1      -0.797  10.642  18.444  0.00  0.00    +0.000 OA
BRANCH  34  36
ATOM     35  C   UNL     1      -2.623  11.259  17.038  0.00  0.00    +0.000 C 
ATOM     36  C   UNL     1      -1.494  11.777  17.915  0.00  0.00    +0.000 C 
ENDBRANCH  34  36
ENDBRANCH  32  34
ENDBRANCH   1  32
TORSDOF 8
ENDMDL
MODEL 2
REMARK VINA RESULT:      -8.2      2.051      3.240
REMARK  Name = 
REMARK  10 active torsions:
REMARK  status: ('A' for Active; 'I' for Inactive)
REMARK    1  A    between atoms: C_1  and  C_2
REMARK    2  A    between atoms: C_2  and  O_3
REMARK    3  A    between atoms: O_3  and  C_4
REMARK    4  A    between atoms: C_4  and  C_6
REMARK    5  A    between atoms: C_8  and  N_9
REMARK    6  A    between atoms: C_15  and  C_16
REMARK    7  A    between atoms: C_20  and  C_21
REMARK    8  A    between atoms: C_21  and  C_22
REMARK    9  A    between atoms: C_28  and  N_29
REMARK   10  A    between atoms: N_32  and  C_33
REMARK                            x       y       z     vdW  Elec       q    Type
REMARK                         _______ _______ _______ _____ _____    ______ ____
ROOT
ATOM      1  C   UNL     1      -0.652  11.042  19.946  0.00  0.00    +0.000 A 
ATOM      2  C   UNL     1       0.092  10.184  19.106  0.00  0.00    +0.000 A 
ATOM      3  C   UNL     1       1.175   9.455  19.586  0.00  0.00    +0.000 A 
ATOM      4  C   UNL     1       1.478   9.582  20.939  0.00  0.00    +0.000 A 
ATOM      5  C   UNL     1       0.759  10.423  21.776  0.00  0.00    +0.000 A 
ATOM      6  C   UNL     1      -0.334  11.163  21.319  0.00  0.00    +0.000 A 
ENDROOT
BRANCH   3   7
ATOM      7  N   UNL     1       1.878   8.606  18.716  0.00  0.00    +0.000 N 
ATOM      8  C   UNL     1       2.225   7.280  18.966  0.00  0.00    +0.000 A 
ATOM      9  N   UNL     1       1.516   6.549  19.830  0.00  0.00    +0.000 NA
ATOM     10  C   UNL     1       2.015   5.372  20.230  0.00  0.00    +0.000 A 
ATOM     11  C   UNL     1       3.189   4.854  19.757  0.00  0.00    +0.000 A 
ATOM     12 CL   UNL     1       3.764   3.395  20.460  0.00  0.00    +0.000 Cl
ATOM     13  C   UNL     1       3.822   5.616  18.782  0.00  0.00    +0.000 A 
ATOM     14  N   UNL     1       3.344   6.835  18.392  0.00  0.00    +0.000 NA
ATOM     15  H   UNL     1       2.609   9.036  18.169  0.00  0.00    +0.000 HD
BRANCH  13  16
ATOM     16  C   UNL     1       5.056   5.229  18.072  0.00  0.00    +0.000 A 
ATOM     17  C   UNL     1       6.303   5.182  18.715  0.00  0.00    +0.000 A 
ATOM     18  C   UNL     1       7.455   4.814  18.027  0.00  0.00    +0.000 A 
ATOM     19  C   UNL     1       7.382   4.449  16.686  0.00  0.00    +0.000 A 
ATOM     20  C   UNL     1       6.151   4.453  16.019  0.00  0.00    +0.000 A 
ATOM     21  C   UNL     1       5.003   4.847  16.719  0.00  0.00    +0.000 A 
BRANCH  20  22
ATOM     22  C   UNL     1       6.059   4.082  14.558  0.00  0.00    +0.000 C 
BRANCH  22  23
ATOM     23  C   UNL     1       7.029   4.807  13.727  0.00  0.00    +0.000 C 
ATOM     24  N   UNL     1       7.817   5.373  13.077  0.00  0.00    +0.000 NA
ENDBRANCH  22  23
ENDBRANCH  20  22
ENDBRANCH  13  16
ENDBRANCH   3   7
BRANCH   6  25
ATOM     25  N   UNL     1      -1.061  11.904  22.226  0.00  0.00    +0.000 N 
ATOM     26  C   UNL     1      -1.939  11.272  23.222  0.00  0.00    +0.000 C 
ATOM     27  C   UNL     1      -3.175  12.170  23.458  0.00  0.00    +0.000 C 
ATOM     28  N   UNL     1      -2.822  13.565  23.817  0.00  0.00    +0.000 NA
ATOM     29  C   UNL     1      -4.027  14.383  23.912  0.00  0.00    +0.000 C 
ATOM     30  C   UNL     1      -1.925  14.125  22.774  0.00  0.00    +0.000 C 
ATOM     31  C   UNL     1      -0.656  13.269  22.576  0.00  0.00    +0.000 C 
ENDBRANCH   6  25
BRANCH   1  32
ATOM     32  C   UNL     1      -1.882  11.642  19.356  0.00  0.00    +0.000 C 
ATOM     33  O   UNL     1      -2.378  12.708  19.680  0.00  0.00    +0.000 OA
BRANCH  32  34
ATOM     34  O   UNL     1      -2.450  10.769  18.479  0.00  0.00    +0.000 OA
BRANCH  34  36
ATOM     35  C   UNL     1      -4.422  11.240  17.221  0.00  0.00    +0.000 C 
ATOM     36  C   UNL     1      -2.911  11.397  17.276  0.00  0.00    +0.000 C 
ENDBRANCH  34  36
ENDBRANCH  32  34
ENDBRANCH   1  32
TORSDOF 8
ENDMDL
MODEL 3
REMARK VINA RESULT:      -8.1      3.297      5.365
REMARK  Name = 
REMARK  10 active torsions:
REMARK  status: ('A' for Active; 'I' for Inactive)
REMARK    1  A    between atoms: C_1  and  C_2
REMARK    2  A    between atoms: C_2  and  O_3
REMARK    3  A    between atoms: O_3  and  C_4
REMARK    4  A    between atoms: C_4  and  C_6
REMARK    5  A    between atoms: C_8  and  N_9
REMARK    6  A    between atoms: C_15  and  C_16
REMARK    7  A    between atoms: C_20  and  C_21
REMARK    8  A    between atoms: C_21  and  C_22
REMARK    9  A    between atoms: C_28  and  N_29
REMARK   10  A    between atoms: N_32  and  C_33
REMARK                            x       y       z     vdW  Elec       q    Type
REMARK                         _______ _______ _______ _____ _____    ______ ____
ROOT
ATOM      1  C   UNL     1       0.584  13.049  20.101  0.00  0.00    +0.000 A 
ATOM      2  C   UNL     1       0.687  11.793  19.462  0.00  0.00    +0.000 A 
ATOM      3  C   UNL     1       1.675  11.536  18.518  0.00  0.00    +0.000 A 
ATOM      4  C   UNL     1       2.581  12.560  18.250  0.00  0.00    +0.000 A 
ATOM      5  C   UNL     1       2.491  13.800  18.867  0.00  0.00    +0.000 A 
ATOM      6  C   UNL     1       1.509  14.081  19.821  0.00  0.00    +0.000 A 
ENDROOT
BRANCH   3   7
ATOM      7  N   UNL     1       1.747  10.269  17.917  0.00  0.00    +0.000 N 
ATOM      8  C   UNL     1       1.732   9.044  18.579  0.00  0.00    +0.000 A 
ATOM      9  N   UNL     1       1.165   8.937  19.784  0.00  0.00    +0.000 NA
ATOM     10  C   UNL     1       1.380   7.822  20.493  0.00  0.00    +0.000 A 
ATOM     11  C   UNL     1       2.107   6.762  20.025  0.00  0.00    +0.000 A 
ATOM     12 CL   UNL     1       2.405   5.454  21.100  0.00  0.00    +0.000 Cl
ATOM     13  C   UNL     1       2.578   6.896  18.724  0.00  0.00    +0.000 A 
ATOM     14  N   UNL     1       2.398   8.042  18.003  0.00  0.00    +0.000 NA
ATOM     15  H   UNL     1       2.348  10.195  17.108  0.00  0.00    +0.000 HD
BRANCH  13  16
ATOM     16  C   UNL     1       3.319   5.860  17.979  0.00  0.00    +0.000 A 
ATOM     17  C   UNL     1       2.767   4.599  17.707  0.00  0.00    +0.000 A 
ATOM     18  C   UNL     1       3.482   3.636  17.002  0.00  0.00    +0.000 A 
ATOM     19  C   UNL     1       4.755   3.924  16.519  0.00  0.00    +0.000 A 
ATOM     20  C   UNL     1       5.327   5.182  16.743  0.00  0.00    +0.000 A 
ATOM     21  C   UNL     1       4.603   6.134  17.474  0.00  0.00    +0.000 A 
BRANCH  20  22
ATOM     22  C   UNL     1       6.716   5.503  16.246  0.00  0.00    +0.000 C 
BRANCH  22  23
ATOM     23  C   UNL     1       7.266   6.723  16.850  0.00  0.00    +0.000 C 
ATOM     24  N   UNL     1       7.685   7.703  17.328  0.00  0.00    +0.000 NA
ENDBRANCH  22  23
ENDBRANCH  20  22
ENDBRANCH  13  16
ENDBRANCH   3   7
BRANCH   6  25
ATOM     25  N   UNL     1       1.536  15.300  20.462  0.00  0.00    +0.000 N 
ATOM     26  C   UNL     1       2.424  15.559  21.606  0.00  0.00    +0.000 C 
ATOM     27  C   UNL     1       1.717  16.510  22.599  0.00  0.00    +0.000 C 
ATOM     28  N   UNL     1       1.232  17.759  21.964  0.00  0.00    +0.000 NA
ATOM     29  C   UNL     1       0.477  18.555  22.927  0.00  0.00    +0.000 C 
ATOM     30  C   UNL     1       0.358  17.414  20.814  0.00  0.00    +0.000 C 
ATOM     31  C   UNL     1       1.076  16.516  19.785  0.00  0.00    +0.000 C 
ENDBRANCH   6  25
BRANCH   1  32
ATOM     32  C   UNL     1      -0.412  13.148  21.206  0.00  0.00    +0.000 C 
ATOM     33  O   UNL     1      -1.353  13.922  21.246  0.00  0.00    +0.000 OA
BRANCH  32  34
ATOM     34  O   UNL     1      -0.051  12.329  22.232  0.00  0.00    +0.000 OA
BRANCH  34  36
ATOM     35  C   UNL     1      -0.642  10.157  23.022  0.00  0.00    +0.000 C 
ATOM     36  C   UNL     1      -1.145  11.567  22.757  0.00  0.00    +0.000 C 
ENDBRANCH  34  36
ENDBRANCH  32  34
ENDBRANCH   1  32
TORSDOF 8
ENDMDL
MODEL 4
REMARK VINA RESULT:      -8.0      2.199      3.619
REMARK  Name = 
REMARK  10 active torsions:
REMARK  status: ('A' for Active; 'I' for Inactive)
REMARK    1  A    between atoms: C_1  and  C_2
REMARK    2  A    between atoms: C_2  and  O_3
REMARK    3  A    between atoms: O_3  and  C_4
REMARK    4  A    between atoms: C_4  and  C_6
REMARK    5  A    between atoms: C_8  and  N_9
REMARK    6  A    between atoms: C_15  and  C_16
REMARK    7  A    between atoms: C_20  and  C_21
REMARK    8  A    between atoms: C_21  and  C_22
REMARK    9  A    between atoms: C_28  and  N_29
REMARK   10  A    between atoms: N_32  and  C_33
REMARK                            x       y       z     vdW  Elec       q    Type
REMARK                         _______ _______ _______ _____ _____    ______ ____
ROOT
ATOM      1  C   UNL     1      -0.384  11.483  20.216  0.00  0.00    +0.000 A 
ATOM      2  C   UNL     1       0.361  10.620  19.381  0.00  0.00    +0.000 A 
ATOM      3  C   UNL     1       1.091   9.557  19.902  0.00  0.00    +0.000 A 
ATOM      4  C   UNL     1       1.033   9.358  21.279  0.00  0.00    +0.000 A 
ATOM      5  C   UNL     1       0.309  10.199  22.112  0.00  0.00    +0.000 A 
ATOM      6  C   UNL     1      -0.435  11.272  21.613  0.00  0.00    +0.000 A 
ENDROOT
BRANCH   3   7
ATOM      7  N   UNL     1       1.807   8.717  19.033  0.00  0.00    +0.000 N 
ATOM      8  C   UNL     1       2.127   7.381  19.260  0.00  0.00    +0.000 A 
ATOM      9  N   UNL     1       1.382   6.640  20.085  0.00  0.00    +0.000 NA
ATOM     10  C   UNL     1       1.851   5.447  20.471  0.00  0.00    +0.000 A 
ATOM     11  C   UNL     1       3.031   4.923  20.020  0.00  0.00    +0.000 A 
ATOM     12 CL   UNL     1       3.564   3.438  20.704  0.00  0.00    +0.000 Cl
ATOM     13  C   UNL     1       3.704   5.698  19.083  0.00  0.00    +0.000 A 
ATOM     14  N   UNL     1       3.256   6.933  18.709  0.00  0.00    +0.000 NA
ATOM     15  H   UNL     1       2.560   9.150  18.518  0.00  0.00    +0.000 HD
BRANCH  13  16
ATOM     16  C   UNL     1       4.953   5.309  18.400  0.00  0.00    +0.000 A 
ATOM     17  C   UNL     1       6.195   5.322  19.053  0.00  0.00    +0.000 A 
ATOM     18  C   UNL     1       7.361   4.952  18.391  0.00  0.00    +0.000 A 
ATOM     19  C   UNL     1       7.308   4.523  17.068  0.00  0.00    +0.000 A 
ATOM     20  C   UNL     1       6.083   4.466  16.393  0.00  0.00    +0.000 A 
ATOM     21  C   UNL     1       4.920   4.863  17.066  0.00  0.00    +0.000 A 
BRANCH  20  22
ATOM     22  C   UNL     1       6.012   4.025  14.951  0.00  0.00    +0.000 C 
BRANCH  22  23
ATOM     23  C   UNL     1       6.935   4.770  14.084  0.00  0.00    +0.000 C 
ATOM     24  N   UNL     1       7.653   5.371  13.387  0.00  0.00    +0.000 NA
ENDBRANCH  22  23
ENDBRANCH  20  22
ENDBRANCH  13  16
ENDBRANCH   3   7
BRANCH   6  25
ATOM     25  N   UNL     1      -1.206  12.008  22.486  0.00  0.00    +0.000 N 
ATOM     26  C   UNL     1      -2.232  11.384  23.335  0.00  0.00    +0.000 C 
ATOM     27  C   UNL     1      -3.423  12.357  23.500  0.00  0.00    +0.000 C 
ATOM     28  N   UNL     1      -3.017  13.695  23.991  0.00  0.00    +0.000 NA
ATOM     29  C   UNL     1      -4.167  14.595  24.014  0.00  0.00    +0.000 C 
ATOM     30  C   UNL     1      -1.972  14.250  23.093  0.00  0.00    +0.000 C 
ATOM     31  C   UNL     1      -0.751  13.314  22.973  0.00  0.00    +0.000 C 
ENDBRANCH   6  25
BRANCH   1  32
ATOM     32  C   UNL     1      -1.250  12.483  19.528  0.00  0.00    +0.000 C 
ATOM     33  O   UNL     1      -2.196  12.224  18.804  0.00  0.00    +0.000 OA
BRANCH  32  34
ATOM     34  O   UNL     1      -0.760  13.738  19.728  0.00  0.00    +0.000 OA
BRANCH  34  36
ATOM     35  C   UNL     1      -0.204  15.791  18.647  0.00  0.00    +0.000 C 
ATOM     36  C   UNL     1      -0.102  14.276  18.574  0.00  0.00    +0.000 C 
ENDBRANCH  34  36
ENDBRANCH  32  34
ENDBRANCH   1  32
TORSDOF 8
ENDMDL
MODEL 5
REMARK VINA RESULT:      -8.0      1.093      1.515
REMARK  Name = 
REMARK  10 active torsions:
REMARK  status: ('A' for Active; 'I' for Inactive)
REMARK    1  A    between atoms: C_1  and  C_2
REMARK    2  A    between atoms: C_2  and  O_3
REMARK    3  A    between atoms: O_3  and  C_4
REMARK    4  A    between atoms: C_4  and  C_6
REMARK    5  A    between atoms: C_8  and  N_9
REMARK    6  A    between atoms: C_15  and  C_16
REMARK    7  A    between atoms: C_20  and  C_21
REMARK    8  A    between atoms: C_21  and  C_22
REMARK    9  A    between atoms: C_28  and  N_29
REMARK   10  A    between atoms: N_32  and  C_33
REMARK                            x       y       z     vdW  Elec       q    Type
REMARK                         _______ _______ _______ _____ _____    ______ ____
ROOT
ATOM      1  C   UNL     1       1.340   9.645  19.090  0.00  0.00    +0.000 A 
ATOM      2  C   UNL     1       1.824   8.715  18.143  0.00  0.00    +0.000 A 
ATOM      3  C   UNL     1       2.194   7.426  18.512  0.00  0.00    +0.000 A 
ATOM      4  C   UNL     1       2.038   7.078  19.852  0.00  0.00    +0.000 A 
ATOM      5  C   UNL     1       1.566   7.981  20.794  0.00  0.00    +0.000 A 
ATOM      6  C   UNL     1       1.186   9.280  20.447  0.00  0.00    +0.000 A 
ENDROOT
BRANCH   3   7
ATOM      7  N   UNL     1       2.659   6.532  17.535  0.00  0.00    +0.000 N 
ATOM      8  C   UNL     1       3.867   5.838  17.563  0.00  0.00    +0.000 A 
ATOM      9  N   UNL     1       4.468   5.580  18.728  0.00  0.00    +0.000 NA
ATOM     10  C   UNL     1       5.731   5.135  18.709  0.00  0.00    +0.000 A 
ATOM     11  C   UNL     1       6.420   4.881  17.556  0.00  0.00    +0.000 A 
ATOM     12 CL   UNL     1       8.076   4.438  17.690  0.00  0.00    +0.000 Cl
ATOM     13  C   UNL     1       5.701   5.069  16.382  0.00  0.00    +0.000 A 
ATOM     14  N   UNL     1       4.425   5.556  16.385  0.00  0.00    +0.000 NA
ATOM     15  H   UNL     1       2.442   6.769  16.577  0.00  0.00    +0.000 HD
BRANCH  13  16
ATOM     16  C   UNL     1       6.204   4.787  15.023  0.00  0.00    +0.000 A 
ATOM     17  C   UNL     1       7.437   5.280  14.568  0.00  0.00    +0.000 A 
ATOM     18  C   UNL     1       7.894   5.003  13.284  0.00  0.00    +0.000 A 
ATOM     19  C   UNL     1       7.145   4.194  12.434  0.00  0.00    +0.000 A 
ATOM     20  C   UNL     1       5.925   3.659  12.864  0.00  0.00    +0.000 A 
ATOM     21  C   UNL     1       5.467   3.965  14.152  0.00  0.00    +0.000 A 
BRANCH  20  22
ATOM     22  C   UNL     1       5.089   2.799  11.946  0.00  0.00    +0.000 C 
BRANCH  22  23
ATOM     23  C   UNL     1       5.855   1.699  11.345  0.00  0.00    +0.000 C 
ATOM     24  N   UNL     1       6.468   0.817  10.888  0.00  0.00    +0.000 NA
ENDBRANCH  22  23
ENDBRANCH  20  22
ENDBRANCH  13  16
ENDBRANCH   3   7
BRANCH   6  25
ATOM     25  N   UNL     1       0.637  10.092  21.416  0.00  0.00    +0.000 N 
ATOM     26  C   UNL     1       0.080   9.549  22.664  0.00  0.00    +0.000 C 
ATOM     27  C   UNL     1      -1.135  10.401  23.097  0.00  0.00    +0.000 C 
ATOM     28  N   UNL     1      -0.826  11.848  23.196  0.00  0.00    +0.000 NA
ATOM     29  C   UNL     1      -2.038  12.605  23.495  0.00  0.00    +0.000 C 
ATOM     30  C   UNL     1      -0.256  12.315  21.907  0.00  0.00    +0.000 C 
ATOM     31  C   UNL     1       0.997  11.511  21.498  0.00  0.00    +0.000 C 
ENDBRANCH   6  25
BRANCH   1  32
ATOM     32  C   UNL     1       0.827  10.935  18.547  0.00  0.00    +0.000 C 
ATOM     33  O   UNL     1      -0.347  11.256  18.469  0.00  0.00    +0.000 OA
BRANCH  32  34
ATOM     34  O   UNL     1       1.856  11.665  18.034  0.00  0.00    +0.000 OA
BRANCH  34  36
ATOM     35  C   UNL     1       1.912  14.033  18.318  0.00  0.00    +0.000 C 
ATOM     36  C   UNL     1       2.312  12.695  18.920  0.00  0.00    +0.000 C 
ENDBRANCH  34  36
ENDBRANCH  32  34
ENDBRANCH   1  32
TORSDOF 8
ENDMDL
MODEL 6
REMARK VINA RESULT:      -7.8      3.300      5.103
REMARK  Name = 
REMARK  10 active torsions:
REMARK  status: ('A' for Active; 'I' for Inactive)
REMARK    1  A    between atoms: C_1  and  C_2
REMARK    2  A    between atoms: C_2  and  O_3
REMARK    3  A    between atoms: O_3  and  C_4
REMARK    4  A    between atoms: C_4  and  C_6
REMARK    5  A    between atoms: C_8  and  N_9
REMARK    6  A    between atoms: C_15  and  C_16
REMARK    7  A    between atoms: C_20  and  C_21
REMARK    8  A    between atoms: C_21  and  C_22
REMARK    9  A    between atoms: C_28  and  N_29
REMARK   10  A    between atoms: N_32  and  C_33
REMARK                            x       y       z     vdW  Elec       q    Type
REMARK                         _______ _______ _______ _____ _____    ______ ____
ROOT
ATOM      1  C   UNL     1       0.881  12.987  20.248  0.00  0.00    +0.000 A 
ATOM      2  C   UNL     1       0.890  11.728  19.607  0.00  0.00    +0.000 A 
ATOM      3  C   UNL     1       1.732  11.466  18.531  0.00  0.00    +0.000 A 
ATOM      4  C   UNL     1       2.590  12.488  18.130  0.00  0.00    +0.000 A 
ATOM      5  C   UNL     1       2.589  13.730  18.748  0.00  0.00    +0.000 A 
ATOM      6  C   UNL     1       1.756  14.017  19.832  0.00  0.00    +0.000 A 
ENDROOT
BRANCH   3   7
ATOM      7  N   UNL     1       1.716  10.196  17.933  0.00  0.00    +0.000 N 
ATOM      8  C   UNL     1       1.700   8.974  18.600  0.00  0.00    +0.000 A 
ATOM      9  N   UNL     1       1.211   8.890  19.840  0.00  0.00    +0.000 NA
ATOM     10  C   UNL     1       1.432   7.769  20.538  0.00  0.00    +0.000 A 
ATOM     11  C   UNL     1       2.086   6.682  20.027  0.00  0.00    +0.000 A 
ATOM     12 CL   UNL     1       2.407   5.366  21.085  0.00  0.00    +0.000 Cl
ATOM     13  C   UNL     1       2.474   6.796  18.697  0.00  0.00    +0.000 A 
ATOM     14  N   UNL     1       2.288   7.946  17.985  0.00  0.00    +0.000 NA
ATOM     15  H   UNL     1       2.258  10.097  17.086  0.00  0.00    +0.000 HD
BRANCH  13  16
ATOM     16  C   UNL     1       3.124   5.732  17.909  0.00  0.00    +0.000 A 
ATOM     17  C   UNL     1       2.596   4.433  17.831  0.00  0.00    +0.000 A 
ATOM     18  C   UNL     1       3.224   3.444  17.081  0.00  0.00    +0.000 A 
ATOM     19  C   UNL     1       4.378   3.739  16.360  0.00  0.00    +0.000 A 
ATOM     20  C   UNL     1       4.916   5.031  16.387  0.00  0.00    +0.000 A 
ATOM     21  C   UNL     1       4.285   6.011  17.165  0.00  0.00    +0.000 A 
BRANCH  20  22
ATOM     22  C   UNL     1       6.179   5.361  15.629  0.00  0.00    +0.000 C 
BRANCH  22  23
ATOM     23  C   UNL     1       6.360   4.524  14.436  0.00  0.00    +0.000 C 
ATOM     24  N   UNL     1       6.498   3.840  13.500  0.00  0.00    +0.000 NA
ENDBRANCH  22  23
ENDBRANCH  20  22
ENDBRANCH  13  16
ENDBRANCH   3   7
BRANCH   6  25
ATOM     25  N   UNL     1       1.875  15.239  20.457  0.00  0.00    +0.000 N 
ATOM     26  C   UNL     1       3.054  15.590  21.263  0.00  0.00    +0.000 C 
ATOM     27  C   UNL     1       2.618  16.480  22.449  0.00  0.00    +0.000 C 
ATOM     28  N   UNL     1       1.845  17.673  22.028  0.00  0.00    +0.000 NA
ATOM     29  C   UNL     1       1.367  18.405  23.198  0.00  0.00    +0.000 C 
ATOM     30  C   UNL     1       0.684  17.238  21.209  0.00  0.00    +0.000 C 
ATOM     31  C   UNL     1       1.115  16.401  19.986  0.00  0.00    +0.000 C 
ENDBRANCH   6  25
BRANCH   1  32
ATOM     32  C   UNL     1       0.055  13.093  21.485  0.00  0.00    +0.000 C 
ATOM     33  O   UNL     1       0.190  13.932  22.359  0.00  0.00    +0.000 OA
BRANCH  32  34
ATOM     34  O   UNL     1      -0.803  12.038  21.562  0.00  0.00    +0.000 OA
BRANCH  34  36
ATOM     35  C   UNL     1      -0.742  10.134  22.999  0.00  0.00    +0.000 C 
ATOM     36  C   UNL     1      -1.061  11.618  22.908  0.00  0.00    +0.000 C 
ENDBRANCH  34  36
ENDBRANCH  32  34
ENDBRANCH   1  32
TORSDOF 8
ENDMDL
MODEL 7
REMARK VINA RESULT:      -7.7      2.061      3.254
REMARK  Name = 
REMARK  10 active torsions:
REMARK  status: ('A' for Active; 'I' for Inactive)
REMARK    1  A    between atoms: C_1  and  C_2
REMARK    2  A    between atoms: C_2  and  O_3
REMARK    3  A    between atoms: O_3  and  C_4
REMARK    4  A    between atoms: C_4  and  C_6
REMARK    5  A    between atoms: C_8  and  N_9
REMARK    6  A    between atoms: C_15  and  C_16
REMARK    7  A    between atoms: C_20  and  C_21
REMARK    8  A    between atoms: C_21  and  C_22
REMARK    9  A    between atoms: C_28  and  N_29
REMARK   10  A    between atoms: N_32  and  C_33
REMARK                            x       y       z     vdW  Elec       q    Type
REMARK                         _______ _______ _______ _____ _____    ______ ____
ROOT
ATOM      1  C   UNL     1       0.050  11.778  19.338  0.00  0.00    +0.000 A 
ATOM      2  C   UNL     1       0.793  10.846  18.579  0.00  0.00    +0.000 A 
ATOM      3  C   UNL     1       1.280   9.672  19.144  0.00  0.00    +0.000 A 
ATOM      4  C   UNL     1       0.979   9.436  20.483  0.00  0.00    +0.000 A 
ATOM      5  C   UNL     1       0.253  10.343  21.242  0.00  0.00    +0.000 A 
ATOM      6  C   UNL     1      -0.250  11.528  20.697  0.00  0.00    +0.000 A 
ENDROOT
BRANCH   3   7
ATOM      7  N   UNL     1       2.003   8.770  18.348  0.00  0.00    +0.000 N 
ATOM      8  C   UNL     1       2.328   7.457  18.682  0.00  0.00    +0.000 A 
ATOM      9  N   UNL     1       1.581   6.781  19.559  0.00  0.00    +0.000 NA
ATOM     10  C   UNL     1       2.053   5.624  20.041  0.00  0.00    +0.000 A 
ATOM     11  C   UNL     1       3.238   5.071  19.639  0.00  0.00    +0.000 A 
ATOM     12 CL   UNL     1       3.773   3.648  20.441  0.00  0.00    +0.000 Cl
ATOM     13  C   UNL     1       3.912   5.772  18.646  0.00  0.00    +0.000 A 
ATOM     14  N   UNL     1       3.461   6.971  18.173  0.00  0.00    +0.000 NA
ATOM     15  H   UNL     1       2.758   9.163  17.803  0.00  0.00    +0.000 HD
BRANCH  13  16
ATOM     16  C   UNL     1       5.166   5.335  18.002  0.00  0.00    +0.000 A 
ATOM     17  C   UNL     1       6.386   5.295  18.695  0.00  0.00    +0.000 A 
ATOM     18  C   UNL     1       7.557   4.880  18.069  0.00  0.00    +0.000 A 
ATOM     19  C   UNL     1       7.530   4.459  16.742  0.00  0.00    +0.000 A 
ATOM     20  C   UNL     1       6.326   4.455  16.027  0.00  0.00    +0.000 A 
ATOM     21  C   UNL     1       5.158   4.897  16.665  0.00  0.00    +0.000 A 
BRANCH  20  22
ATOM     22  C   UNL     1       6.284   4.024  14.581  0.00  0.00    +0.000 C 
BRANCH  22  23
ATOM     23  C   UNL     1       7.175   4.820  13.727  0.00  0.00    +0.000 C 
ATOM     24  N   UNL     1       7.901   5.443  13.057  0.00  0.00    +0.000 NA
ENDBRANCH  22  23
ENDBRANCH  20  22
ENDBRANCH  13  16
ENDBRANCH   3   7
BRANCH   6  25
ATOM     25  N   UNL     1      -1.042  12.337  21.483  0.00  0.00    +0.000 N 
ATOM     26  C   UNL     1      -0.501  13.508  22.189  0.00  0.00    +0.000 C 
ATOM     27  C   UNL     1      -1.234  13.676  23.540  0.00  0.00    +0.000 C 
ATOM     28  N   UNL     1      -2.709  13.730  23.400  0.00  0.00    +0.000 NA
ATOM     29  C   UNL     1      -3.341  13.773  24.715  0.00  0.00    +0.000 C 
ATOM     30  C   UNL     1      -3.174  12.525  22.666  0.00  0.00    +0.000 C 
ATOM     31  C   UNL     1      -2.494  12.384  21.288  0.00  0.00    +0.000 C 
ENDBRANCH   6  25
BRANCH   1  32
ATOM     32  C   UNL     1      -0.552  12.915  18.585  0.00  0.00    +0.000 C 
ATOM     33  O   UNL     1      -0.491  14.090  18.903  0.00  0.00    +0.000 OA
BRANCH  32  34
ATOM     34  O   UNL     1      -1.291  12.442  17.542  0.00  0.00    +0.000 OA
BRANCH  34  36
ATOM     35  C   UNL     1      -2.524  10.462  17.042  0.00  0.00    +0.000 C 
ATOM     36  C   UNL     1      -2.424  11.670  17.959  0.00  0.00    +0.000 C 
ENDBRANCH  34  36
ENDBRANCH  32  34
ENDBRANCH   1  32
TORSDOF 8
ENDMDL
MODEL 8
REMARK VINA RESULT:      -7.7      3.843      5.815
REMARK  Name = 
REMARK  10 active torsions:
REMARK  status: ('A' for Active; 'I' for Inactive)
REMARK    1  A    between atoms: C_1  and  C_2
REMARK    2  A    between atoms: C_2  and  O_3
REMARK    3  A    between atoms: O_3  and  C_4
REMARK    4  A    between atoms: C_4  and  C_6
REMARK    5  A    between atoms: C_8  and  N_9
REMARK    6  A    between atoms: C_15  and  C_16
REMARK    7  A    between atoms: C_20  and  C_21
REMARK    8  A    between atoms: C_21  and  C_22
REMARK    9  A    between atoms: C_28  and  N_29
REMARK   10  A    between atoms: N_32  and  C_33
REMARK                            x       y       z     vdW  Elec       q    Type
REMARK                         _______ _______ _______ _____ _____    ______ ____
ROOT
ATOM      1  C   UNL     1       2.565  13.918  18.815  0.00  0.00    +0.000 A 
ATOM      2  C   UNL     1       2.623  12.637  18.223  0.00  0.00    +0.000 A 
ATOM      3  C   UNL     1       1.728  11.632  18.574  0.00  0.00    +0.000 A 
ATOM      4  C   UNL     1       0.749  11.950  19.512  0.00  0.00    +0.000 A 
ATOM      5  C   UNL     1       0.682  13.203  20.105  0.00  0.00    +0.000 A 
ATOM      6  C   UNL     1       1.567  14.230  19.768  0.00  0.00    +0.000 A 
ENDROOT
BRANCH   3   7
ATOM      7  N   UNL     1       1.816  10.378  17.949  0.00  0.00    +0.000 N 
ATOM      8  C   UNL     1       1.758   9.139  18.583  0.00  0.00    +0.000 A 
ATOM      9  N   UNL     1       1.134   9.011  19.757  0.00  0.00    +0.000 NA
ATOM     10  C   UNL     1       1.305   7.879  20.451  0.00  0.00    +0.000 A 
ATOM     11  C   UNL     1       2.043   6.822  19.994  0.00  0.00    +0.000 A 
ATOM     12 CL   UNL     1       2.278   5.488  21.053  0.00  0.00    +0.000 Cl
ATOM     13  C   UNL     1       2.576   6.979  18.720  0.00  0.00    +0.000 A 
ATOM     14  N   UNL     1       2.440   8.142  18.017  0.00  0.00    +0.000 NA
ATOM     15  H   UNL     1       2.453  10.314  17.168  0.00  0.00    +0.000 HD
BRANCH  13  16
ATOM     16  C   UNL     1       3.341   5.952  17.988  0.00  0.00    +0.000 A 
ATOM     17  C   UNL     1       2.792   4.700  17.668  0.00  0.00    +0.000 A 
ATOM     18  C   UNL     1       3.530   3.745  16.976  0.00  0.00    +0.000 A 
ATOM     19  C   UNL     1       4.825   4.032  16.554  0.00  0.00    +0.000 A 
ATOM     20  C   UNL     1       5.395   5.281  16.827  0.00  0.00    +0.000 A 
ATOM     21  C   UNL     1       4.648   6.225  17.545  0.00  0.00    +0.000 A 
BRANCH  20  22
ATOM     22  C   UNL     1       6.807   5.600  16.398  0.00  0.00    +0.000 C 
BRANCH  22  23
ATOM     23  C   UNL     1       7.415   6.671  17.198  0.00  0.00    +0.000 C 
ATOM     24  N   UNL     1       7.881   7.523  17.846  0.00  0.00    +0.000 NA
ENDBRANCH  22  23
ENDBRANCH  20  22
ENDBRANCH  13  16
ENDBRANCH   3   7
BRANCH   6  25
ATOM     25  N   UNL     1       1.383  15.476  20.325  0.00  0.00    +0.000 N 
ATOM     26  C   UNL     1       2.288  16.011  21.354  0.00  0.00    +0.000 C 
ATOM     27  C   UNL     1       1.479  16.871  22.352  0.00  0.00    +0.000 C 
ATOM     28  N   UNL     1       0.681  17.932  21.692  0.00  0.00    +0.000 NA
ATOM     29  C   UNL     1      -0.144  18.629  22.675  0.00  0.00    +0.000 C 
ATOM     30  C   UNL     1      -0.192  17.317  20.660  0.00  0.00    +0.000 C 
ATOM     31  C   UNL     1       0.614  16.508  19.622  0.00  0.00    +0.000 C 
ENDBRANCH   6  25
BRANCH   1  32
ATOM     32  C   UNL     1       3.472  14.954  18.242  0.00  0.00    +0.000 C 
ATOM     33  O   UNL     1       3.208  15.689  17.306  0.00  0.00    +0.000 OA
BRANCH  32  34
ATOM     34  O   UNL     1       4.694  14.883  18.838  0.00  0.00    +0.000 OA
BRANCH  34  36
ATOM     35  C   UNL     1       7.073  14.820  18.669  0.00  0.00    +0.000 C 
ATOM     36  C   UNL     1       5.765  14.683  17.907  0.00  0.00    +0.000 C 
ENDBRANCH  34  36
ENDBRANCH  32  34
ENDBRANCH   1  32
TORSDOF 8
ENDMDL
MODEL 9
REMARK VINA RESULT:      -7.6      2.493      3.891
REMARK  Name = 
REMARK  10 active torsions:
REMARK  status: ('A' for Active; 'I' for Inactive)
REMARK    1  A    between atoms: C_1  and  C_2
REMARK    2  A    between atoms: C_2  and  O_3
REMARK    3  A    between atoms: O_3  and  C_4
REMARK    4  A    between atoms: C_4  and  C_6
REMARK    5  A    between atoms: C_8  and  N_9
REMARK    6  A    between atoms: C_15  and  C_16
REMARK    7  A    between atoms: C_20  and  C_21
REMARK    8  A    between atoms: C_21  and  C_22
REMARK    9  A    between atoms: C_28  and  N_29
REMARK   10  A    between atoms: N_32  and  C_33
REMARK                            x       y       z     vdW  Elec       q    Type
REMARK                         _______ _______ _______ _____ _____    ______ ____
ROOT
ATOM      1  C   UNL     1       1.149  12.605  19.443  0.00  0.00    +0.000 A 
ATOM      2  C   UNL     1       1.738  11.605  18.637  0.00  0.00    +0.000 A 
ATOM      3  C   UNL     1       1.207  10.321  18.568  0.00  0.00    +0.000 A 
ATOM      4  C   UNL     1       0.050  10.070  19.301  0.00  0.00    +0.000 A 
ATOM      5  C   UNL     1      -0.538  11.041  20.100  0.00  0.00    +0.000 A 
ATOM      6  C   UNL     1      -0.025  12.338  20.184  0.00  0.00    +0.000 A 
ENDROOT
BRANCH   3   7
ATOM      7  N   UNL     1       1.818   9.363  17.744  0.00  0.00    +0.000 N 
ATOM      8  C   UNL     1       2.270   8.106  18.141  0.00  0.00    +0.000 A 
ATOM      9  N   UNL     1       1.737   7.505  19.208  0.00  0.00    +0.000 NA
ATOM     10  C   UNL     1       2.352   6.424  19.704  0.00  0.00    +0.000 A 
ATOM     11  C   UNL     1       3.470   5.872  19.143  0.00  0.00    +0.000 A 
ATOM     12 CL   UNL     1       4.221   4.563  19.968  0.00  0.00    +0.000 Cl
ATOM     13  C   UNL     1       3.910   6.483  17.975  0.00  0.00    +0.000 A 
ATOM     14  N   UNL     1       3.314   7.607  17.478  0.00  0.00    +0.000 NA
ATOM     15  H   UNL     1       2.436   9.720  17.029  0.00  0.00    +0.000 HD
BRANCH  13  16
ATOM     16  C   UNL     1       5.044   6.023  17.151  0.00  0.00    +0.000 A 
ATOM     17  C   UNL     1       6.360   6.449  17.390  0.00  0.00    +0.000 A 
ATOM     18  C   UNL     1       7.417   6.003  16.603  0.00  0.00    +0.000 A 
ATOM     19  C   UNL     1       7.188   5.089  15.578  0.00  0.00    +0.000 A 
ATOM     20  C   UNL     1       5.893   4.617  15.329  0.00  0.00    +0.000 A 
ATOM     21  C   UNL     1       4.836   5.092  16.117  0.00  0.00    +0.000 A 
BRANCH  20  22
ATOM     22  C   UNL     1       5.625   3.644  14.207  0.00  0.00    +0.000 C 
BRANCH  22  23
ATOM     23  C   UNL     1       6.438   3.916  13.014  0.00  0.00    +0.000 C 
ATOM     24  N   UNL     1       7.084   4.153  12.071  0.00  0.00    +0.000 NA
ENDBRANCH  22  23
ENDBRANCH  20  22
ENDBRANCH  13  16
ENDBRANCH   3   7
BRANCH   6  25
ATOM     25  N   UNL     1      -0.713  13.278  20.921  0.00  0.00    +0.000 N 
ATOM     26  C   UNL     1      -1.918  13.943  20.404  0.00  0.00    +0.000 C 
ATOM     27  C   UNL     1      -1.960  15.400  20.919  0.00  0.00    +0.000 C 
ATOM     28  N   UNL     1      -1.848  15.499  22.394  0.00  0.00    +0.000 NA
ATOM     29  C   UNL     1      -1.778  16.899  22.803  0.00  0.00    +0.000 C 
ATOM     30  C   UNL     1      -0.619  14.792  22.839  0.00  0.00    +0.000 C 
ATOM     31  C   UNL     1      -0.598  13.318  22.382  0.00  0.00    +0.000 C 
ENDBRANCH   6  25
BRANCH   1  32
ATOM     32  C   UNL     1       1.713  13.979  19.310  0.00  0.00    +0.000 C 
ATOM     33  O   UNL     1       1.189  14.907  18.719  0.00  0.00    +0.000 OA
BRANCH  32  34
ATOM     34  O   UNL     1       2.966  14.020  19.844  0.00  0.00    +0.000 OA
BRANCH  34  36
ATOM     35  C   UNL     1       4.417  14.287  21.719  0.00  0.00    +0.000 C 
ATOM     36  C   UNL     1       2.969  14.279  21.253  0.00  0.00    +0.000 C 
ENDBRANCH  34  36
ENDBRANCH  32  34
ENDBRANCH   1  32
TORSDOF 8
ENDMDL
