MODEL 1
REMARK VINA RESULT:      -7.3      0.000      0.000
REMARK  Name = 
REMARK  3 active torsions:
REMARK  status: ('A' for Active; 'I' for Inactive)
REMARK    1  A    between atoms: C_1  and  N_2
REMARK    2  A    between atoms: C_11  and  C_12
REMARK    3  A    between atoms: C_12  and  C_13
REMARK                            x       y       z     vdW  Elec       q    Type
REMARK                         _______ _______ _______ _____ _____    ______ ____
ROOT
ATOM      1  C   UNL     1       6.966   3.676  11.462  0.00  0.00    +0.000 C 
ATOM      2  N   UNL     1       6.572   4.344  12.702  0.00  0.00    +0.000 NA
ATOM      3  C   UNL     1       7.766   4.800  13.450  0.00  0.00    +0.000 C 
ATOM      4  C   UNL     1       7.437   5.415  14.832  0.00  0.00    +0.000 C 
ATOM      5  N   UNL     1       6.601   4.490  15.611  0.00  0.00    +0.000 N 
ATOM      6  C   UNL     1       6.465   4.757  16.966  0.00  0.00    +0.000 A 
ATOM      7  N   UNL     1       7.439   5.417  17.586  0.00  0.00    +0.000 NA
ATOM      8  C   UNL     1       7.322   5.543  18.898  0.00  0.00    +0.000 A 
ATOM      9  N   UNL     1       8.350   6.185  19.561  0.00  0.00    +0.000 N 
ATOM     10  N   UNL     1       6.301   5.117  19.621  0.00  0.00    +0.000 NA
ATOM     11  C   UNL     1       5.370   4.462  18.931  0.00  0.00    +0.000 A 
ATOM     12  N   UNL     1       5.407   4.269  17.612  0.00  0.00    +0.000 NA
ATOM     13  C   UNL     1       5.395   4.041  14.909  0.00  0.00    +0.000 C 
ATOM     14  C   UNL     1       5.788   3.421  13.551  0.00  0.00    +0.000 C 
ATOM     15  H   UNL     1       8.866   6.770  18.921  0.00  0.00    +0.000 HD
ATOM     16  H   UNL     1       8.013   6.601  20.417  0.00  0.00    +0.000 HD
ENDROOT
BRANCH  11  17
ATOM     17  C   UNL     1       4.254   3.798  19.700  0.00  0.00    +0.000 C 
BRANCH  17  18
ATOM     18  C   UNL     1       3.011   4.681  19.947  0.00  0.00    +0.000 C 
ATOM     19  C   UNL     1       2.153   4.915  18.689  0.00  0.00    +0.000 C 
ATOM     20  C   UNL     1       1.418   3.663  18.212  0.00  0.00    +0.000 C 
ATOM     21  C   UNL     1       0.635   2.960  19.321  0.00  0.00    +0.000 C 
ATOM     22  C   UNL     1       1.433   2.782  20.609  0.00  0.00    +0.000 C 
ATOM     23  C   UNL     1       2.119   4.076  21.047  0.00  0.00    +0.000 C 
ENDBRANCH  17  18
ENDBRANCH  11  17
TORSDOF 2
ENDMDL
MODEL 2
REMARK VINA RESULT:      -7.2      4.032      5.473
REMARK  Name = 
REMARK  3 active torsions:
REMARK  status: ('A' for Active; 'I' for Inactive)
REMARK    1  A    between atoms: C_1  and  N_2
REMARK    2  A    between atoms: C_11  and  C_12
REMARK    3  A    between atoms: C_12  and  C_13
REMARK                            x       y       z     vdW  Elec       q    Type
REMARK                         _______ _______ _______ _____ _____    ______ ____
ROOT
ATOM      1  C   UNL     1       6.704   4.767  14.617  0.00  0.00    +0.000 C 
ATOM      2  N   UNL     1       6.192   4.840  15.986  0.00  0.00    +0.000 NA
ATOM      3  C   UNL     1       5.212   3.757  16.233  0.00  0.00    +0.000 C 
ATOM      4  C   UNL     1       4.536   3.837  17.624  0.00  0.00    +0.000 C 
ATOM      5  N   UNL     1       3.964   5.174  17.832  0.00  0.00    +0.000 N 
ATOM      6  C   UNL     1       3.078   5.319  18.890  0.00  0.00    +0.000 A 
ATOM      7  N   UNL     1       2.386   4.257  19.291  0.00  0.00    +0.000 NA
ATOM      8  C   UNL     1       1.467   4.469  20.220  0.00  0.00    +0.000 A 
ATOM      9  N   UNL     1       0.708   3.383  20.612  0.00  0.00    +0.000 N 
ATOM     10  N   UNL     1       1.226   5.628  20.809  0.00  0.00    +0.000 NA
ATOM     11  C   UNL     1       1.954   6.643  20.349  0.00  0.00    +0.000 A 
ATOM     12  N   UNL     1       2.889   6.533  19.406  0.00  0.00    +0.000 NA
ATOM     13  C   UNL     1       4.916   6.269  17.622  0.00  0.00    +0.000 C 
ATOM     14  C   UNL     1       5.540   6.148  16.215  0.00  0.00    +0.000 C 
ATOM     15  H   UNL     1       1.192   2.524  20.396  0.00  0.00    +0.000 HD
ATOM     16  H   UNL     1       0.368   3.512  21.554  0.00  0.00    +0.000 HD
ENDROOT
BRANCH  11  17
ATOM     17  C   UNL     1       1.628   8.030  20.847  0.00  0.00    +0.000 C 
BRANCH  17  18
ATOM     18  C   UNL     1       0.131   8.409  20.804  0.00  0.00    +0.000 C 
ATOM     19  C   UNL     1      -0.527   8.506  22.193  0.00  0.00    +0.000 C 
ATOM     20  C   UNL     1      -0.042   9.700  23.014  0.00  0.00    +0.000 C 
ATOM     21  C   UNL     1      -0.104  11.024  22.253  0.00  0.00    +0.000 C 
ATOM     22  C   UNL     1       0.471  10.942  20.843  0.00  0.00    +0.000 C 
ATOM     23  C   UNL     1      -0.075   9.744  20.065  0.00  0.00    +0.000 C 
ENDBRANCH  17  18
ENDBRANCH  11  17
TORSDOF 2
ENDMDL
MODEL 3
REMARK VINA RESULT:      -7.1      0.783      1.341
REMARK  Name = 
REMARK  3 active torsions:
REMARK  status: ('A' for Active; 'I' for Inactive)
REMARK    1  A    between atoms: C_1  and  N_2
REMARK    2  A    between atoms: C_11  and  C_12
REMARK    3  A    between atoms: C_12  and  C_13
REMARK                            x       y       z     vdW  Elec       q    Type
REMARK                         _______ _______ _______ _____ _____    ______ ____
ROOT
ATOM      1  C   UNL     1       6.723   3.623  11.701  0.00  0.00    +0.000 C 
ATOM      2  N   UNL     1       6.469   4.386  12.923  0.00  0.00    +0.000 NA
ATOM      3  C   UNL     1       7.690   4.448  13.759  0.00  0.00    +0.000 C 
ATOM      4  C   UNL     1       7.471   5.140  15.127  0.00  0.00    +0.000 C 
ATOM      5  N   UNL     1       6.337   4.525  15.829  0.00  0.00    +0.000 N 
ATOM      6  C   UNL     1       6.194   4.826  17.176  0.00  0.00    +0.000 A 
ATOM      7  N   UNL     1       7.279   5.151  17.874  0.00  0.00    +0.000 NA
ATOM      8  C   UNL     1       7.115   5.312  19.177  0.00  0.00    +0.000 A 
ATOM      9  N   UNL     1       8.241   5.603  19.921  0.00  0.00    +0.000 N 
ATOM     10  N   UNL     1       5.963   5.228  19.821  0.00  0.00    +0.000 NA
ATOM     11  C   UNL     1       4.926   4.894  19.055  0.00  0.00    +0.000 A 
ATOM     12  N   UNL     1       4.994   4.694  17.739  0.00  0.00    +0.000 NA
ATOM     13  C   UNL     1       5.103   4.472  15.038  0.00  0.00    +0.000 C 
ATOM     14  C   UNL     1       5.379   3.756  13.698  0.00  0.00    +0.000 C 
ATOM     15  H   UNL     1       8.958   5.996  19.329  0.00  0.00    +0.000 HD
ATOM     16  H   UNL     1       7.991   6.106  20.760  0.00  0.00    +0.000 HD
ENDROOT
BRANCH  11  17
ATOM     17  C   UNL     1       3.606   4.614  19.734  0.00  0.00    +0.000 C 
BRANCH  17  18
ATOM     18  C   UNL     1       3.383   3.145  20.155  0.00  0.00    +0.000 C 
ATOM     19  C   UNL     1       2.098   2.920  20.974  0.00  0.00    +0.000 C 
ATOM     20  C   UNL     1       0.818   3.091  20.156  0.00  0.00    +0.000 C 
ATOM     21  C   UNL     1       0.820   2.290  18.854  0.00  0.00    +0.000 C 
ATOM     22  C   UNL     1       2.112   2.430  18.055  0.00  0.00    +0.000 C 
ATOM     23  C   UNL     1       3.353   2.220  18.924  0.00  0.00    +0.000 C 
ENDBRANCH  17  18
ENDBRANCH  11  17
TORSDOF 2
ENDMDL
MODEL 4
REMARK VINA RESULT:      -7.1      4.398      7.924
REMARK  Name = 
REMARK  3 active torsions:
REMARK  status: ('A' for Active; 'I' for Inactive)
REMARK    1  A    between atoms: C_1  and  N_2
REMARK    2  A    between atoms: C_11  and  C_12
REMARK    3  A    between atoms: C_12  and  C_13
REMARK                            x       y       z     vdW  Elec       q    Type
REMARK                         _______ _______ _______ _____ _____    ______ ____
ROOT
ATOM      1  C   UNL     1      -0.349  12.201  21.659  0.00  0.00    +0.000 C 
ATOM      2  N   UNL     1      -0.224  10.894  21.013  0.00  0.00    +0.000 NA
ATOM      3  C   UNL     1      -0.159   9.817  22.027  0.00  0.00    +0.000 C 
ATOM      4  C   UNL     1       0.090   8.412  21.426  0.00  0.00    +0.000 C 
ATOM      5  N   UNL     1       1.273   8.438  20.554  0.00  0.00    +0.000 N 
ATOM      6  C   UNL     1       1.801   7.212  20.176  0.00  0.00    +0.000 A 
ATOM      7  N   UNL     1       1.620   6.166  20.978  0.00  0.00    +0.000 NA
ATOM      8  C   UNL     1       2.242   5.048  20.639  0.00  0.00    +0.000 A 
ATOM      9  N   UNL     1       2.101   3.968  21.487  0.00  0.00    +0.000 N 
ATOM     10  N   UNL     1       2.975   4.879  19.551  0.00  0.00    +0.000 NA
ATOM     11  C   UNL     1       3.114   5.972  18.804  0.00  0.00    +0.000 A 
ATOM     12  N   UNL     1       2.542   7.146  19.071  0.00  0.00    +0.000 NA
ATOM     13  C   UNL     1       1.228   9.476  19.520  0.00  0.00    +0.000 C 
ATOM     14  C   UNL     1       0.998  10.853  20.180  0.00  0.00    +0.000 C 
ATOM     15  H   UNL     1       1.270   4.074  22.051  0.00  0.00    +0.000 HD
ATOM     16  H   UNL     1       2.223   3.103  20.981  0.00  0.00    +0.000 HD
ENDROOT
BRANCH  11  17
ATOM     17  C   UNL     1       4.068   5.914  17.635  0.00  0.00    +0.000 C 
BRANCH  17  18
ATOM     18  C   UNL     1       4.940   4.641  17.562  0.00  0.00    +0.000 C 
ATOM     19  C   UNL     1       4.854   3.903  16.213  0.00  0.00    +0.000 C 
ATOM     20  C   UNL     1       5.512   4.663  15.061  0.00  0.00    +0.000 C 
ATOM     21  C   UNL     1       6.934   5.126  15.375  0.00  0.00    +0.000 C 
ATOM     22  C   UNL     1       7.069   5.793  16.740  0.00  0.00    +0.000 C 
ATOM     23  C   UNL     1       6.416   4.970  17.852  0.00  0.00    +0.000 C 
ENDBRANCH  17  18
ENDBRANCH  11  17
TORSDOF 2
ENDMDL
MODEL 5
REMARK VINA RESULT:      -7.0      4.092      7.566
REMARK  Name = 
REMARK  3 active torsions:
REMARK  status: ('A' for Active; 'I' for Inactive)
REMARK    1  A    between atoms: C_1  and  N_2
REMARK    2  A    between atoms: C_11  and  C_12
REMARK    3  A    between atoms: C_12  and  C_13
REMARK                            x       y       z     vdW  Elec       q    Type
REMARK                         _______ _______ _______ _____ _____    ______ ____
ROOT
ATOM      1  C   UNL     1       0.412  12.096  20.839  0.00  0.00    +0.000 C 
ATOM      2  N   UNL     1       0.361  10.700  20.404  0.00  0.00    +0.000 NA
ATOM      3  C   UNL     1       0.519   9.789  21.561  0.00  0.00    +0.000 C 
ATOM      4  C   UNL     1       0.593   8.293  21.169  0.00  0.00    +0.000 C 
ATOM      5  N   UNL     1       1.627   8.090  20.145  0.00  0.00    +0.000 N 
ATOM      6  C   UNL     1       2.020   6.781  19.901  0.00  0.00    +0.000 A 
ATOM      7  N   UNL     1       1.905   5.890  20.881  0.00  0.00    +0.000 NA
ATOM      8  C   UNL     1       2.402   4.686  20.643  0.00  0.00    +0.000 A 
ATOM      9  N   UNL     1       2.332   3.764  21.668  0.00  0.00    +0.000 N 
ATOM     10  N   UNL     1       2.949   4.294  19.505  0.00  0.00    +0.000 NA
ATOM     11  C   UNL     1       3.034   5.244  18.577  0.00  0.00    +0.000 A 
ATOM     12  N   UNL     1       2.578   6.488  18.727  0.00  0.00    +0.000 NA
ATOM     13  C   UNL     1       1.484   8.958  18.972  0.00  0.00    +0.000 C 
ATOM     14  C   UNL     1       1.436  10.434  19.424  0.00  0.00    +0.000 C 
ATOM     15  H   UNL     1       1.605   4.022  22.320  0.00  0.00    +0.000 HD
ATOM     16  H   UNL     1       2.326   2.824  21.299  0.00  0.00    +0.000 HD
ENDROOT
BRANCH  11  17
ATOM     17  C   UNL     1       3.792   4.931  17.309  0.00  0.00    +0.000 C 
BRANCH  17  18
ATOM     18  C   UNL     1       4.824   5.997  16.880  0.00  0.00    +0.000 C 
ATOM     19  C   UNL     1       6.042   6.099  17.816  0.00  0.00    +0.000 C 
ATOM     20  C   UNL     1       6.967   4.885  17.744  0.00  0.00    +0.000 C 
ATOM     21  C   UNL     1       7.367   4.511  16.317  0.00  0.00    +0.000 C 
ATOM     22  C   UNL     1       6.192   4.478  15.346  0.00  0.00    +0.000 C 
ATOM     23  C   UNL     1       5.322   5.732  15.447  0.00  0.00    +0.000 C 
ENDBRANCH  17  18
ENDBRANCH  11  17
TORSDOF 2
ENDMDL
MODEL 6
REMARK VINA RESULT:      -7.0      0.668      1.253
REMARK  Name = 
REMARK  3 active torsions:
REMARK  status: ('A' for Active; 'I' for Inactive)
REMARK    1  A    between atoms: C_1  and  N_2
REMARK    2  A    between atoms: C_11  and  C_12
REMARK    3  A    between atoms: C_12  and  C_13
REMARK                            x       y       z     vdW  Elec       q    Type
REMARK                         _______ _______ _______ _____ _____    ______ ____
ROOT
ATOM      1  C   UNL     1       7.147   3.780  11.274  0.00  0.00    +0.000 C 
ATOM      2  N   UNL     1       6.706   4.402  12.522  0.00  0.00    +0.000 NA
ATOM      3  C   UNL     1       7.865   4.936  13.275  0.00  0.00    +0.000 C 
ATOM      4  C   UNL     1       7.493   5.508  14.665  0.00  0.00    +0.000 C 
ATOM      5  N   UNL     1       6.731   4.514  15.433  0.00  0.00    +0.000 N 
ATOM      6  C   UNL     1       6.577   4.754  16.791  0.00  0.00    +0.000 A 
ATOM      7  N   UNL     1       7.501   5.477  17.418  0.00  0.00    +0.000 NA
ATOM      8  C   UNL     1       7.378   5.578  18.732  0.00  0.00    +0.000 A 
ATOM      9  N   UNL     1       8.356   6.286  19.402  0.00  0.00    +0.000 N 
ATOM     10  N   UNL     1       6.392   5.068  19.451  0.00  0.00    +0.000 NA
ATOM     11  C   UNL     1       5.512   4.354  18.753  0.00  0.00    +0.000 A 
ATOM     12  N   UNL     1       5.560   4.180  17.433  0.00  0.00    +0.000 NA
ATOM     13  C   UNL     1       5.560   3.985  14.727  0.00  0.00    +0.000 C 
ATOM     14  C   UNL     1       5.995   3.412  13.361  0.00  0.00    +0.000 C 
ATOM     15  H   UNL     1       8.826   6.917  18.768  0.00  0.00    +0.000 HD
ATOM     16  H   UNL     1       7.990   6.666  20.263  0.00  0.00    +0.000 HD
ENDROOT
BRANCH  11  17
ATOM     17  C   UNL     1       4.449   3.599  19.515  0.00  0.00    +0.000 C 
BRANCH  17  18
ATOM     18  C   UNL     1       3.128   3.372  18.749  0.00  0.00    +0.000 C 
ATOM     19  C   UNL     1       2.274   2.218  19.307  0.00  0.00    +0.000 C 
ATOM     20  C   UNL     1       1.663   2.520  20.676  0.00  0.00    +0.000 C 
ATOM     21  C   UNL     1       0.928   3.859  20.729  0.00  0.00    +0.000 C 
ATOM     22  C   UNL     1       1.716   5.011  20.113  0.00  0.00    +0.000 C 
ATOM     23  C   UNL     1       2.275   4.655  18.735  0.00  0.00    +0.000 C 
ENDBRANCH  17  18
ENDBRANCH  11  17
TORSDOF 2
ENDMDL
MODEL 7
REMARK VINA RESULT:      -6.9      1.797      6.895
REMARK  Name = 
REMARK  3 active torsions:
REMARK  status: ('A' for Active; 'I' for Inactive)
REMARK    1  A    between atoms: C_1  and  N_2
REMARK    2  A    between atoms: C_11  and  C_12
REMARK    3  A    between atoms: C_12  and  C_13
REMARK                            x       y       z     vdW  Elec       q    Type
REMARK                         _______ _______ _______ _____ _____    ______ ____
ROOT
ATOM      1  C   UNL     1       1.079   2.808  21.212  0.00  0.00    +0.000 C 
ATOM      2  N   UNL     1       2.371   3.012  20.556  0.00  0.00    +0.000 NA
ATOM      3  C   UNL     1       2.701   4.455  20.496  0.00  0.00    +0.000 C 
ATOM      4  C   UNL     1       4.000   4.762  19.711  0.00  0.00    +0.000 C 
ATOM      5  N   UNL     1       3.946   4.140  18.381  0.00  0.00    +0.000 N 
ATOM      6  C   UNL     1       4.890   4.559  17.453  0.00  0.00    +0.000 A 
ATOM      7  N   UNL     1       5.392   5.785  17.567  0.00  0.00    +0.000 NA
ATOM      8  C   UNL     1       6.196   6.184  16.594  0.00  0.00    +0.000 A 
ATOM      9  N   UNL     1       6.688   7.472  16.674  0.00  0.00    +0.000 N 
ATOM     10  N   UNL     1       6.572   5.449  15.561  0.00  0.00    +0.000 NA
ATOM     11  C   UNL     1       6.022   4.238  15.515  0.00  0.00    +0.000 A 
ATOM     12  N   UNL     1       5.190   3.753  16.436  0.00  0.00    +0.000 NA
ATOM     13  C   UNL     1       3.648   2.704  18.406  0.00  0.00    +0.000 C 
ATOM     14  C   UNL     1       2.336   2.463  19.183  0.00  0.00    +0.000 C 
ATOM     15  H   UNL     1       6.651   7.800  17.628  0.00  0.00    +0.000 HD
ATOM     16  H   UNL     1       7.565   7.546  16.180  0.00  0.00    +0.000 HD
ENDROOT
BRANCH  11  17
ATOM     17  C   UNL     1       6.267   3.395  14.286  0.00  0.00    +0.000 C 
BRANCH  17  18
ATOM     18  C   UNL     1       6.030   4.114  12.940  0.00  0.00    +0.000 C 
ATOM     19  C   UNL     1       7.286   4.206  12.053  0.00  0.00    +0.000 C 
ATOM     20  C   UNL     1       7.730   2.858  11.485  0.00  0.00    +0.000 C 
ATOM     21  C   UNL     1       6.599   2.085  10.806  0.00  0.00    +0.000 C 
ATOM     22  C   UNL     1       5.314   2.041  11.626  0.00  0.00    +0.000 C 
ATOM     23  C   UNL     1       4.910   3.424  12.139  0.00  0.00    +0.000 C 
ENDBRANCH  17  18
ENDBRANCH  11  17
TORSDOF 2
ENDMDL
MODEL 8
REMARK VINA RESULT:      -6.9      4.038      5.346
REMARK  Name = 
REMARK  3 active torsions:
REMARK  status: ('A' for Active; 'I' for Inactive)
REMARK    1  A    between atoms: C_1  and  N_2
REMARK    2  A    between atoms: C_11  and  C_12
REMARK    3  A    between atoms: C_12  and  C_13
REMARK                            x       y       z     vdW  Elec       q    Type
REMARK                         _______ _______ _______ _____ _____    ______ ____
ROOT
ATOM      1  C   UNL     1       6.702   4.468  14.094  0.00  0.00    +0.000 C 
ATOM      2  N   UNL     1       6.316   4.945  15.422  0.00  0.00    +0.000 NA
ATOM      3  C   UNL     1       5.669   3.860  16.196  0.00  0.00    +0.000 C 
ATOM      4  C   UNL     1       5.125   4.317  17.572  0.00  0.00    +0.000 C 
ATOM      5  N   UNL     1       4.255   5.489  17.408  0.00  0.00    +0.000 N 
ATOM      6  C   UNL     1       3.462   5.839  18.491  0.00  0.00    +0.000 A 
ATOM      7  N   UNL     1       3.101   4.888  19.348  0.00  0.00    +0.000 NA
ATOM      8  C   UNL     1       2.248   5.243  20.296  0.00  0.00    +0.000 A 
ATOM      9  N   UNL     1       1.828   4.256  21.165  0.00  0.00    +0.000 N 
ATOM     10  N   UNL     1       1.776   6.464  20.485  0.00  0.00    +0.000 NA
ATOM     11  C   UNL     1       2.179   7.357  19.584  0.00  0.00    +0.000 A 
ATOM     12  N   UNL     1       3.020   7.092  18.584  0.00  0.00    +0.000 NA
ATOM     13  C   UNL     1       4.875   6.594  16.669  0.00  0.00    +0.000 C 
ATOM     14  C   UNL     1       5.378   6.083  15.301  0.00  0.00    +0.000 C 
ATOM     15  H   UNL     1       2.491   3.494  21.175  0.00  0.00    +0.000 HD
ATOM     16  H   UNL     1       1.553   4.657  22.050  0.00  0.00    +0.000 HD
ENDROOT
BRANCH  11  17
ATOM     17  C   UNL     1       1.559   8.734  19.625  0.00  0.00    +0.000 C 
BRANCH  17  18
ATOM     18  C   UNL     1       1.333   9.394  18.247  0.00  0.00    +0.000 C 
ATOM     19  C   UNL     1      -0.151   9.572  17.878  0.00  0.00    +0.000 C 
ATOM     20  C   UNL     1      -0.866  10.625  18.724  0.00  0.00    +0.000 C 
ATOM     21  C   UNL     1      -0.123  11.959  18.787  0.00  0.00    +0.000 C 
ATOM     22  C   UNL     1       1.367  11.812  19.075  0.00  0.00    +0.000 C 
ATOM     23  C   UNL     1       2.029  10.767  18.177  0.00  0.00    +0.000 C 
ENDBRANCH  17  18
ENDBRANCH  11  17
TORSDOF 2
ENDMDL
MODEL 9
REMARK VINA RESULT:      -6.8      5.312      8.353
REMARK  Name = 
REMARK  3 active torsions:
REMARK  status: ('A' for Active; 'I' for Inactive)
REMARK    1  A    between atoms: C_1  and  N_2
REMARK    2  A    between atoms: C_11  and  C_12
REMARK    3  A    between atoms: C_12  and  C_13
REMARK                            x       y       z     vdW  Elec       q    Type
REMARK                         _______ _______ _______ _____ _____    ______ ____
ROOT
ATOM      1  C   UNL     1      -2.019  12.158  23.444  0.00  0.00    +0.000 C 
ATOM      2  N   UNL     1      -0.821  11.489  22.935  0.00  0.00    +0.000 NA
ATOM      3  C   UNL     1      -0.632  11.786  21.496  0.00  0.00    +0.000 C 
ATOM      4  C   UNL     1       0.551  11.020  20.854  0.00  0.00    +0.000 C 
ATOM      5  N   UNL     1       0.427   9.581  21.122  0.00  0.00    +0.000 N 
ATOM      6  C   UNL     1       1.233   8.732  20.377  0.00  0.00    +0.000 A 
ATOM      7  N   UNL     1       1.629   9.127  19.171  0.00  0.00    +0.000 NA
ATOM      8  C   UNL     1       2.294   8.238  18.449  0.00  0.00    +0.000 A 
ATOM      9  N   UNL     1       2.671   8.618  17.176  0.00  0.00    +0.000 N 
ATOM     10  N   UNL     1       2.636   7.026  18.851  0.00  0.00    +0.000 NA
ATOM     11  C   UNL     1       2.198   6.703  20.066  0.00  0.00    +0.000 A 
ATOM     12  N   UNL     1       1.507   7.521  20.860  0.00  0.00    +0.000 NA
ATOM     13  C   UNL     1       0.266   9.250  22.541  0.00  0.00    +0.000 C 
ATOM     14  C   UNL     1      -0.938  10.026  23.120  0.00  0.00    +0.000 C 
ATOM     15  H   UNL     1       2.697   9.625  17.106  0.00  0.00    +0.000 HD
ATOM     16  H   UNL     1       3.486   8.101  16.880  0.00  0.00    +0.000 HD
ENDROOT
BRANCH  11  17
ATOM     17  C   UNL     1       2.399   5.283  20.537  0.00  0.00    +0.000 C 
BRANCH  17  18
ATOM     18  C   UNL     1       1.253   4.307  20.189  0.00  0.00    +0.000 C 
ATOM     19  C   UNL     1       1.155   3.970  18.690  0.00  0.00    +0.000 C 
ATOM     20  C   UNL     1       2.312   3.110  18.182  0.00  0.00    +0.000 C 
ATOM     21  C   UNL     1       2.563   1.868  19.037  0.00  0.00    +0.000 C 
ATOM     22  C   UNL     1       2.589   2.155  20.535  0.00  0.00    +0.000 C 
ATOM     23  C   UNL     1       1.392   2.994  20.983  0.00  0.00    +0.000 C 
ENDBRANCH  17  18
ENDBRANCH  11  17
TORSDOF 2
ENDMDL
