MODEL 1
REMARK VINA RESULT:      -6.5      0.000      0.000
REMARK  Name = 
REMARK  11 active torsions:
REMARK  status: ('A' for Active; 'I' for Inactive)
REMARK    1  A    between atoms: C_1  and  C_2
REMARK    2  A    between atoms: C_2  and  C_3
REMARK    3  A    between atoms: N_5  and  C_6
REMARK    4  A    between atoms: N_5  and  C_13
REMARK    5  A    between atoms: C_13  and  C_14
REMARK    6  A    between atoms: C_16  and  C_17
REMARK    7  A    between atoms: N_22  and  C_23
REMARK    8  A    between atoms: C_23  and  C_24
REMARK    9  A    between atoms: C_24  and  N_25
REMARK   10  A    between atoms: N_28  and  C_29
REMARK   11  A    between atoms: C_29  and  C_30
REMARK                            x       y       z     vdW  Elec       q    Type
REMARK                         _______ _______ _______ _____ _____    ______ ____
ROOT
ATOM      1  C   UNL     1       9.813  13.526  19.156  0.00  0.00    +0.000 C 
ATOM      2  C   UNL     1       9.260  12.816  17.891  0.00  0.00    +0.000 C 
ATOM      3  C   UNL     1       8.666  11.457  18.176  0.00  0.00    +0.000 C 
ATOM      4  N   UNL     1       9.604  10.529  18.806  0.00  0.00    +0.000 NA
ATOM      5  C   UNL     1      10.262  11.097  19.983  0.00  0.00    +0.000 C 
ATOM      6  C   UNL     1      10.834  12.498  19.741  0.00  0.00    +0.000 C 
ENDROOT
BRANCH   1   7
ATOM      7  C   UNL     1      10.631  14.760  18.696  0.00  0.00    +0.000 A 
ATOM      8  N   UNL     1      10.946  15.763  19.497  0.00  0.00    +0.000 NA
ATOM      9  C   UNL     1      11.724  16.702  18.850  0.00  0.00    +0.000 A 
ATOM     10  C   UNL     1      12.217  17.871  19.625  0.00  0.00    +0.000 C 
ATOM     11  C   UNL     1      11.959  16.423  17.523  0.00  0.00    +0.000 A 
ATOM     12  S   UNL     1      11.222  14.934  17.085  0.00  0.00    +0.000 S 
ENDBRANCH   1   7
BRANCH   1  15
ATOM     13  C   UNL     1       7.534  14.725  19.641  0.00  0.00    +0.000 C 
ATOM     14  O   UNL     1       6.610  15.009  20.415  0.00  0.00    +0.000 OA
ATOM     15  N   UNL     1       8.669  13.999  20.066  0.00  0.00    +0.000 N 
BRANCH  15  16
ATOM     16  C   UNL     1       8.589  13.488  21.420  0.00  0.00    +0.000 A 
ATOM     17  C   UNL     1       7.988  12.250  21.699  0.00  0.00    +0.000 A 
ATOM     18  C   UNL     1       7.884  11.780  23.016  0.00  0.00    +0.000 A 
ATOM     19  C   UNL     1       8.419  12.514  24.075  0.00  0.00    +0.000 A 
ATOM     20  C   UNL     1       9.058  13.725  23.817  0.00  0.00    +0.000 A 
ATOM     21  C   UNL     1       9.134  14.203  22.506  0.00  0.00    +0.000 A 
ATOM     22  F   UNL     1       9.675  15.418  22.316  0.00  0.00    +0.000 F 
ENDBRANCH  15  16
BRANCH  13  24
ATOM     23  C   UNL     1       7.692  16.826  18.241  0.00  0.00    +0.000 C 
ATOM     24  C   UNL     1       7.475  15.323  18.239  0.00  0.00    +0.000 C 
ENDBRANCH  13  24
ENDBRANCH   1  15
BRANCH   4  25
ATOM     25  C   UNL     1       8.898   9.273  19.171  0.00  0.00    +0.000 C 
BRANCH  25  26
ATOM     26  C   UNL     1       8.218   8.641  17.952  0.00  0.00    +0.000 C 
BRANCH  26  27
ATOM     27  N   UNL     1       7.623   7.354  18.149  0.00  0.00    +0.000 N 
ATOM     28  N   UNL     1       8.180   6.340  18.873  0.00  0.00    +0.000 NA
ATOM     29  N   UNL     1       7.611   5.248  18.555  0.00  0.00    +0.000 NA
ATOM     30  N   UNL     1       6.668   5.499  17.593  0.00  0.00    +0.000 N 
ATOM     31  C   UNL     1       6.713   6.834  17.248  0.00  0.00    +0.000 A 
ATOM     32  O   UNL     1       6.149   7.399  16.328  0.00  0.00    +0.000 OA
BRANCH  30  33
ATOM     33  C   UNL     1       6.072   4.465  16.792  0.00  0.00    +0.000 C 
ATOM     34  C   UNL     1       6.818   4.245  15.486  0.00  0.00    +0.000 C 
ENDBRANCH  30  33
ENDBRANCH  26  27
ENDBRANCH  25  26
ENDBRANCH   4  25
TORSDOF 8
ENDMDL
MODEL 2
REMARK VINA RESULT:      -6.5      8.249     11.282
REMARK  Name = 
REMARK  11 active torsions:
REMARK  status: ('A' for Active; 'I' for Inactive)
REMARK    1  A    between atoms: C_1  and  C_2
REMARK    2  A    between atoms: C_2  and  C_3
REMARK    3  A    between atoms: N_5  and  C_6
REMARK    4  A    between atoms: N_5  and  C_13
REMARK    5  A    between atoms: C_13  and  C_14
REMARK    6  A    between atoms: C_16  and  C_17
REMARK    7  A    between atoms: N_22  and  C_23
REMARK    8  A    between atoms: C_23  and  C_24
REMARK    9  A    between atoms: C_24  and  N_25
REMARK   10  A    between atoms: N_28  and  C_29
REMARK   11  A    between atoms: C_29  and  C_30
REMARK                            x       y       z     vdW  Elec       q    Type
REMARK                         _______ _______ _______ _____ _____    ______ ____
ROOT
ATOM      1  C   UNL     1      -0.791  12.378  20.430  0.00  0.00    +0.000 C 
ATOM      2  C   UNL     1      -0.824  13.572  19.438  0.00  0.00    +0.000 C 
ATOM      3  C   UNL     1       0.396  13.650  18.551  0.00  0.00    +0.000 C 
ATOM      4  N   UNL     1       1.653  13.751  19.292  0.00  0.00    +0.000 NA
ATOM      5  C   UNL     1       1.789  12.721  20.323  0.00  0.00    +0.000 C 
ATOM      6  C   UNL     1       0.548  12.583  21.211  0.00  0.00    +0.000 C 
ENDROOT
BRANCH   1   7
ATOM      7  C   UNL     1      -1.941  12.571  21.453  0.00  0.00    +0.000 A 
ATOM      8  N   UNL     1      -3.016  13.300  21.209  0.00  0.00    +0.000 NA
ATOM      9  C   UNL     1      -3.904  13.259  22.264  0.00  0.00    +0.000 A 
ATOM     10  C   UNL     1      -5.198  13.979  22.131  0.00  0.00    +0.000 C 
ATOM     11  C   UNL     1      -3.469  12.522  23.342  0.00  0.00    +0.000 A 
ATOM     12  S   UNL     1      -1.928  11.835  23.013  0.00  0.00    +0.000 S 
ENDBRANCH   1   7
BRANCH   1  15
ATOM     13  C   UNL     1      -1.885  10.836  18.616  0.00  0.00    +0.000 C 
ATOM     14  O   UNL     1      -1.946   9.754  18.018  0.00  0.00    +0.000 OA
ATOM     15  N   UNL     1      -0.997  11.045  19.695  0.00  0.00    +0.000 N 
BRANCH  15  16
ATOM     16  C   UNL     1      -0.070   9.957  19.937  0.00  0.00    +0.000 A 
ATOM     17  C   UNL     1      -0.176   9.150  21.081  0.00  0.00    +0.000 A 
ATOM     18  C   UNL     1       0.746   8.122  21.326  0.00  0.00    +0.000 A 
ATOM     19  C   UNL     1       1.762   7.849  20.409  0.00  0.00    +0.000 A 
ATOM     20  C   UNL     1       1.860   8.609  19.247  0.00  0.00    +0.000 A 
ATOM     21  C   UNL     1       0.956   9.652  19.021  0.00  0.00    +0.000 A 
ATOM     22  F   UNL     1       1.147  10.417  17.934  0.00  0.00    +0.000 F 
ENDBRANCH  15  16
BRANCH  13  24
ATOM     23  C   UNL     1      -4.049  11.330  17.404  0.00  0.00    +0.000 C 
ATOM     24  C   UNL     1      -2.916  11.895  18.243  0.00  0.00    +0.000 C 
ENDBRANCH  13  24
ENDBRANCH   1  15
BRANCH   4  25
ATOM     25  C   UNL     1       2.799  13.685  18.349  0.00  0.00    +0.000 C 
BRANCH  25  26
ATOM     26  C   UNL     1       3.140  15.070  17.788  0.00  0.00    +0.000 C 
BRANCH  26  27
ATOM     27  N   UNL     1       4.185  15.787  18.453  0.00  0.00    +0.000 N 
ATOM     28  N   UNL     1       4.081  17.067  18.914  0.00  0.00    +0.000 NA
ATOM     29  N   UNL     1       5.250  17.531  19.107  0.00  0.00    +0.000 NA
ATOM     30  N   UNL     1       6.171  16.577  18.759  0.00  0.00    +0.000 N 
ATOM     31  C   UNL     1       5.516  15.474  18.252  0.00  0.00    +0.000 A 
ATOM     32  O   UNL     1       5.990  14.500  17.695  0.00  0.00    +0.000 OA
BRANCH  30  33
ATOM     33  C   UNL     1       7.563  16.872  18.552  0.00  0.00    +0.000 C 
ATOM     34  C   UNL     1       8.439  16.331  19.671  0.00  0.00    +0.000 C 
ENDBRANCH  30  33
ENDBRANCH  26  27
ENDBRANCH  25  26
ENDBRANCH   4  25
TORSDOF 8
ENDMDL
MODEL 3
REMARK VINA RESULT:      -6.4      8.989     11.890
REMARK  Name = 
REMARK  11 active torsions:
REMARK  status: ('A' for Active; 'I' for Inactive)
REMARK    1  A    between atoms: C_1  and  C_2
REMARK    2  A    between atoms: C_2  and  C_3
REMARK    3  A    between atoms: N_5  and  C_6
REMARK    4  A    between atoms: N_5  and  C_13
REMARK    5  A    between atoms: C_13  and  C_14
REMARK    6  A    between atoms: C_16  and  C_17
REMARK    7  A    between atoms: N_22  and  C_23
REMARK    8  A    between atoms: C_23  and  C_24
REMARK    9  A    between atoms: C_24  and  N_25
REMARK   10  A    between atoms: N_28  and  C_29
REMARK   11  A    between atoms: C_29  and  C_30
REMARK                            x       y       z     vdW  Elec       q    Type
REMARK                         _______ _______ _______ _____ _____    ______ ____
ROOT
ATOM      1  C   UNL     1      -0.799  12.131  19.699  0.00  0.00    +0.000 C 
ATOM      2  C   UNL     1       0.646  11.654  19.387  0.00  0.00    +0.000 C 
ATOM      3  C   UNL     1       1.711  12.468  20.084  0.00  0.00    +0.000 C 
ATOM      4  N   UNL     1       1.658  13.894  19.768  0.00  0.00    +0.000 NA
ATOM      5  C   UNL     1       0.324  14.468  19.948  0.00  0.00    +0.000 C 
ATOM      6  C   UNL     1      -0.786  13.640  19.292  0.00  0.00    +0.000 C 
ENDROOT
BRANCH   1   7
ATOM      7  C   UNL     1      -1.764  11.411  18.722  0.00  0.00    +0.000 A 
ATOM      8  N   UNL     1      -3.030  11.757  18.564  0.00  0.00    +0.000 NA
ATOM      9  C   UNL     1      -3.647  10.990  17.597  0.00  0.00    +0.000 A 
ATOM     10  C   UNL     1      -5.061  11.287  17.250  0.00  0.00    +0.000 C 
ATOM     11  C   UNL     1      -2.842  10.018  17.048  0.00  0.00    +0.000 A 
ATOM     12  S   UNL     1      -1.267  10.088  17.732  0.00  0.00    +0.000 S 
ENDBRANCH   1   7
BRANCH   1  15
ATOM     13  C   UNL     1      -0.704  10.678  21.876  0.00  0.00    +0.000 C 
ATOM     14  O   UNL     1      -1.007  10.494  23.063  0.00  0.00    +0.000 OA
ATOM     15  N   UNL     1      -1.195  11.779  21.140  0.00  0.00    +0.000 N 
BRANCH  15  16
ATOM     16  C   UNL     1      -1.945  12.743  21.920  0.00  0.00    +0.000 A 
ATOM     17  C   UNL     1      -3.347  12.794  21.865  0.00  0.00    +0.000 A 
ATOM     18  C   UNL     1      -4.063  13.753  22.596  0.00  0.00    +0.000 A 
ATOM     19  C   UNL     1      -3.396  14.650  23.431  0.00  0.00    +0.000 A 
ATOM     20  C   UNL     1      -2.008  14.589  23.535  0.00  0.00    +0.000 A 
ATOM     21  C   UNL     1      -1.297  13.650  22.782  0.00  0.00    +0.000 A 
ATOM     22  F   UNL     1       0.044  13.691  22.842  0.00  0.00    +0.000 F 
ENDBRANCH  15  16
BRANCH  13  24
ATOM     23  C   UNL     1       1.211   9.036  22.074  0.00  0.00    +0.000 C 
ATOM     24  C   UNL     1       0.104   9.582  21.189  0.00  0.00    +0.000 C 
ENDBRANCH  13  24
ENDBRANCH   1  15
BRANCH   4  25
ATOM     25  C   UNL     1       2.648  14.629  20.598  0.00  0.00    +0.000 C 
BRANCH  25  26
ATOM     26  C   UNL     1       3.587  15.473  19.730  0.00  0.00    +0.000 C 
BRANCH  26  27
ATOM     27  N   UNL     1       3.025  16.651  19.141  0.00  0.00    +0.000 N 
ATOM     28  N   UNL     1       2.210  17.533  19.788  0.00  0.00    +0.000 NA
ATOM     29  N   UNL     1       1.598  18.237  18.923  0.00  0.00    +0.000 NA
ATOM     30  N   UNL     1       1.973  17.830  17.669  0.00  0.00    +0.000 N 
ATOM     31  C   UNL     1       2.826  16.751  17.777  0.00  0.00    +0.000 A 
ATOM     32  O   UNL     1       3.239  16.020  16.894  0.00  0.00    +0.000 OA
BRANCH  30  33
ATOM     33  C   UNL     1       1.248  18.187  16.480  0.00  0.00    +0.000 C 
ATOM     34  C   UNL     1      -0.228  18.428  16.756  0.00  0.00    +0.000 C 
ENDBRANCH  30  33
ENDBRANCH  26  27
ENDBRANCH  25  26
ENDBRANCH   4  25
TORSDOF 8
ENDMDL
MODEL 4
REMARK VINA RESULT:      -6.4      8.106     11.247
REMARK  Name = 
REMARK  11 active torsions:
REMARK  status: ('A' for Active; 'I' for Inactive)
REMARK    1  A    between atoms: C_1  and  C_2
REMARK    2  A    between atoms: C_2  and  C_3
REMARK    3  A    between atoms: N_5  and  C_6
REMARK    4  A    between atoms: N_5  and  C_13
REMARK    5  A    between atoms: C_13  and  C_14
REMARK    6  A    between atoms: C_16  and  C_17
REMARK    7  A    between atoms: N_22  and  C_23
REMARK    8  A    between atoms: C_23  and  C_24
REMARK    9  A    between atoms: C_24  and  N_25
REMARK   10  A    between atoms: N_28  and  C_29
REMARK   11  A    between atoms: C_29  and  C_30
REMARK                            x       y       z     vdW  Elec       q    Type
REMARK                         _______ _______ _______ _____ _____    ______ ____
ROOT
ATOM      1  C   UNL     1      -0.682  12.302  20.310  0.00  0.00    +0.000 C 
ATOM      2  C   UNL     1      -0.864  13.593  19.466  0.00  0.00    +0.000 C 
ATOM      3  C   UNL     1       0.262  13.835  18.489  0.00  0.00    +0.000 C 
ATOM      4  N   UNL     1       1.577  13.926  19.122  0.00  0.00    +0.000 NA
ATOM      5  C   UNL     1       1.857  12.800  20.014  0.00  0.00    +0.000 C 
ATOM      6  C   UNL     1       0.713  12.496  20.987  0.00  0.00    +0.000 C 
ENDROOT
BRANCH   1   7
ATOM      7  C   UNL     1      -1.738  12.317  21.446  0.00  0.00    +0.000 A 
ATOM      8  N   UNL     1      -2.944  12.841  21.310  0.00  0.00    +0.000 NA
ATOM      9  C   UNL     1      -3.699  12.672  22.452  0.00  0.00    +0.000 A 
ATOM     10  C   UNL     1      -5.106  13.152  22.450  0.00  0.00    +0.000 C 
ATOM     11  C   UNL     1      -3.033  12.051  23.485  0.00  0.00    +0.000 A 
ATOM     12  S   UNL     1      -1.437  11.636  23.001  0.00  0.00    +0.000 S 
ENDBRANCH   1   7
BRANCH   1  15
ATOM     13  C   UNL     1      -1.938  10.865  18.515  0.00  0.00    +0.000 C 
ATOM     14  O   UNL     1      -2.007   9.858  17.798  0.00  0.00    +0.000 OA
ATOM     15  N   UNL     1      -0.894  11.047  19.450  0.00  0.00    +0.000 N 
BRANCH  15  16
ATOM     16  C   UNL     1       0.155  10.049  19.389  0.00  0.00    +0.000 A 
ATOM     17  C   UNL     1       1.013   9.960  18.282  0.00  0.00    +0.000 A 
ATOM     18  C   UNL     1       2.004   8.969  18.215  0.00  0.00    +0.000 A 
ATOM     19  C   UNL     1       2.185   8.077  19.273  0.00  0.00    +0.000 A 
ATOM     20  C   UNL     1       1.372   8.174  20.400  0.00  0.00    +0.000 A 
ATOM     21  C   UNL     1       0.368   9.146  20.449  0.00  0.00    +0.000 A 
ATOM     22  F   UNL     1      -0.451   9.141  21.514  0.00  0.00    +0.000 F 
ENDBRANCH  15  16
BRANCH  13  24
ATOM     23  C   UNL     1      -4.208  11.372  17.519  0.00  0.00    +0.000 C 
ATOM     24  C   UNL     1      -3.112  11.837  18.462  0.00  0.00    +0.000 C 
ENDBRANCH  13  24
ENDBRANCH   1  15
BRANCH   4  25
ATOM     25  C   UNL     1       2.631  14.028  18.079  0.00  0.00    +0.000 C 
BRANCH  25  26
ATOM     26  C   UNL     1       3.270  15.420  18.067  0.00  0.00    +0.000 C 
BRANCH  26  27
ATOM     27  N   UNL     1       4.697  15.466  17.961  0.00  0.00    +0.000 N 
ATOM     28  N   UNL     1       5.501  14.378  17.782  0.00  0.00    +0.000 NA
ATOM     29  N   UNL     1       6.693  14.692  18.096  0.00  0.00    +0.000 NA
ATOM     30  N   UNL     1       6.716  15.996  18.514  0.00  0.00    +0.000 N 
ATOM     31  C   UNL     1       5.430  16.495  18.521  0.00  0.00    +0.000 A 
ATOM     32  O   UNL     1       5.028  17.551  18.978  0.00  0.00    +0.000 OA
BRANCH  30  33
ATOM     33  C   UNL     1       7.822  16.570  19.232  0.00  0.00    +0.000 C 
ATOM     34  C   UNL     1       8.519  17.663  18.438  0.00  0.00    +0.000 C 
ENDBRANCH  30  33
ENDBRANCH  26  27
ENDBRANCH  25  26
ENDBRANCH   4  25
TORSDOF 8
ENDMDL
MODEL 5
REMARK VINA RESULT:      -6.4      9.023     10.775
REMARK  Name = 
REMARK  11 active torsions:
REMARK  status: ('A' for Active; 'I' for Inactive)
REMARK    1  A    between atoms: C_1  and  C_2
REMARK    2  A    between atoms: C_2  and  C_3
REMARK    3  A    between atoms: N_5  and  C_6
REMARK    4  A    between atoms: N_5  and  C_13
REMARK    5  A    between atoms: C_13  and  C_14
REMARK    6  A    between atoms: C_16  and  C_17
REMARK    7  A    between atoms: N_22  and  C_23
REMARK    8  A    between atoms: C_23  and  C_24
REMARK    9  A    between atoms: C_24  and  N_25
REMARK   10  A    between atoms: N_28  and  C_29
REMARK   11  A    between atoms: C_29  and  C_30
REMARK                            x       y       z     vdW  Elec       q    Type
REMARK                         _______ _______ _______ _____ _____    ______ ____
ROOT
ATOM      1  C   UNL     1      -2.047  12.696  21.925  0.00  0.00    +0.000 C 
ATOM      2  C   UNL     1      -1.760  11.583  22.968  0.00  0.00    +0.000 C 
ATOM      3  C   UNL     1      -0.491  10.812  22.690  0.00  0.00    +0.000 C 
ATOM      4  N   UNL     1      -0.470  10.174  21.375  0.00  0.00    +0.000 NA
ATOM      5  C   UNL     1      -0.798  11.100  20.289  0.00  0.00    +0.000 C 
ATOM      6  C   UNL     1      -2.054  11.932  20.561  0.00  0.00    +0.000 C 
ENDROOT
BRANCH   1   7
ATOM      7  C   UNL     1      -3.489  13.214  22.158  0.00  0.00    +0.000 A 
ATOM      8  N   UNL     1      -4.345  12.635  22.983  0.00  0.00    +0.000 NA
ATOM      9  C   UNL     1      -5.536  13.329  23.044  0.00  0.00    +0.000 A 
ATOM     10  C   UNL     1      -6.591  12.847  23.973  0.00  0.00    +0.000 C 
ATOM     11  C   UNL     1      -5.596  14.424  22.212  0.00  0.00    +0.000 A 
ATOM     12  S   UNL     1      -4.114  14.611  21.363  0.00  0.00    +0.000 S 
ENDBRANCH   1   7
BRANCH   1  15
ATOM     13  C   UNL     1      -0.868  14.610  23.272  0.00  0.00    +0.000 C 
ATOM     14  O   UNL     1      -0.004  15.494  23.355  0.00  0.00    +0.000 OA
ATOM     15  N   UNL     1      -1.065  13.868  22.086  0.00  0.00    +0.000 N 
BRANCH  15  16
ATOM     16  C   UNL     1      -0.087  14.116  21.045  0.00  0.00    +0.000 A 
ATOM     17  C   UNL     1       1.185  13.525  21.086  0.00  0.00    +0.000 A 
ATOM     18  C   UNL     1       2.138  13.798  20.093  0.00  0.00    +0.000 A 
ATOM     19  C   UNL     1       1.822  14.629  19.017  0.00  0.00    +0.000 A 
ATOM     20  C   UNL     1       0.551  15.191  18.935  0.00  0.00    +0.000 A 
ATOM     21  C   UNL     1      -0.386  14.939  19.941  0.00  0.00    +0.000 A 
ATOM     22  F   UNL     1      -1.566  15.577  19.869  0.00  0.00    +0.000 F 
ENDBRANCH  15  16
BRANCH  13  24
ATOM     23  C   UNL     1      -1.528  15.446  25.566  0.00  0.00    +0.000 C 
ATOM     24  C   UNL     1      -1.818  14.453  24.454  0.00  0.00    +0.000 C 
ENDBRANCH  13  24
ENDBRANCH   1  15
BRANCH   4  25
ATOM     25  C   UNL     1       0.862   9.558  21.137  0.00  0.00    +0.000 C 
BRANCH  25  26
ATOM     26  C   UNL     1       1.139   9.392  19.639  0.00  0.00    +0.000 C 
BRANCH  26  27
ATOM     27  N   UNL     1       1.737   8.156  19.234  0.00  0.00    +0.000 N 
ATOM     28  N   UNL     1       2.105   7.153  20.083  0.00  0.00    +0.000 NA
ATOM     29  N   UNL     1       2.920   6.383  19.481  0.00  0.00    +0.000 NA
ATOM     30  N   UNL     1       3.135   6.863  18.215  0.00  0.00    +0.000 N 
ATOM     31  C   UNL     1       2.454   8.052  18.057  0.00  0.00    +0.000 A 
ATOM     32  O   UNL     1       2.526   8.852  17.140  0.00  0.00    +0.000 OA
BRANCH  30  33
ATOM     33  C   UNL     1       4.226   6.426  17.387  0.00  0.00    +0.000 C 
ATOM     34  C   UNL     1       5.334   5.768  18.194  0.00  0.00    +0.000 C 
ENDBRANCH  30  33
ENDBRANCH  26  27
ENDBRANCH  25  26
ENDBRANCH   4  25
TORSDOF 8
ENDMDL
MODEL 6
REMARK VINA RESULT:      -6.3      8.341     11.225
REMARK  Name = 
REMARK  11 active torsions:
REMARK  status: ('A' for Active; 'I' for Inactive)
REMARK    1  A    between atoms: C_1  and  C_2
REMARK    2  A    between atoms: C_2  and  C_3
REMARK    3  A    between atoms: N_5  and  C_6
REMARK    4  A    between atoms: N_5  and  C_13
REMARK    5  A    between atoms: C_13  and  C_14
REMARK    6  A    between atoms: C_16  and  C_17
REMARK    7  A    between atoms: N_22  and  C_23
REMARK    8  A    between atoms: C_23  and  C_24
REMARK    9  A    between atoms: C_24  and  N_25
REMARK   10  A    between atoms: N_28  and  C_29
REMARK   11  A    between atoms: C_29  and  C_30
REMARK                            x       y       z     vdW  Elec       q    Type
REMARK                         _______ _______ _______ _____ _____    ______ ____
ROOT
ATOM      1  C   UNL     1      -0.763  12.416  19.665  0.00  0.00    +0.000 C 
ATOM      2  C   UNL     1       0.654  12.142  19.090  0.00  0.00    +0.000 C 
ATOM      3  C   UNL     1       1.707  13.092  19.608  0.00  0.00    +0.000 C 
ATOM      4  N   UNL     1       1.407  14.499  19.343  0.00  0.00    +0.000 NA
ATOM      5  C   UNL     1       0.062  14.884  19.772  0.00  0.00    +0.000 C 
ATOM      6  C   UNL     1      -1.026  13.913  19.302  0.00  0.00    +0.000 C 
ENDROOT
BRANCH   1   7
ATOM      7  C   UNL     1      -1.781  11.572  18.856  0.00  0.00    +0.000 A 
ATOM      8  N   UNL     1      -3.079  11.823  18.836  0.00  0.00    +0.000 NA
ATOM      9  C   UNL     1      -3.748  10.956  17.996  0.00  0.00    +0.000 A 
ATOM     10  C   UNL     1      -5.211  11.136  17.809  0.00  0.00    +0.000 C 
ATOM     11  C   UNL     1      -2.945  10.004  17.409  0.00  0.00    +0.000 A 
ATOM     12  S   UNL     1      -1.310  10.222  17.891  0.00  0.00    +0.000 S 
ENDBRANCH   1   7
BRANCH   1  15
ATOM     13  C   UNL     1      -0.118  10.957  21.744  0.00  0.00    +0.000 C 
ATOM     14  O   UNL     1      -0.172  10.732  22.960  0.00  0.00    +0.000 OA
ATOM     15  N   UNL     1      -0.844  12.011  21.145  0.00  0.00    +0.000 N 
BRANCH  15  16
ATOM     16  C   UNL     1      -1.523  12.887  22.079  0.00  0.00    +0.000 A 
ATOM     17  C   UNL     1      -2.902  12.773  22.313  0.00  0.00    +0.000 A 
ATOM     18  C   UNL     1      -3.558  13.648  23.192  0.00  0.00    +0.000 A 
ATOM     19  C   UNL     1      -2.841  14.622  23.888  0.00  0.00    +0.000 A 
ATOM     20  C   UNL     1      -1.464  14.724  23.703  0.00  0.00    +0.000 A 
ATOM     21  C   UNL     1      -0.820  13.868  22.805  0.00  0.00    +0.000 A 
ATOM     22  F   UNL     1       0.491  14.065  22.588  0.00  0.00    +0.000 F 
ENDBRANCH  15  16
BRANCH  13  24
ATOM     23  C   UNL     1       1.204   8.800  21.701  0.00  0.00    +0.000 C 
ATOM     24  C   UNL     1       0.648   9.955  20.886  0.00  0.00    +0.000 C 
ENDBRANCH  13  24
ENDBRANCH   1  15
BRANCH   4  25
ATOM     25  C   UNL     1       2.421  15.361  20.004  0.00  0.00    +0.000 C 
BRANCH  25  26
ATOM     26  C   UNL     1       3.025  16.367  19.018  0.00  0.00    +0.000 C 
BRANCH  26  27
ATOM     27  N   UNL     1       4.293  16.021  18.451  0.00  0.00    +0.000 N 
ATOM     28  N   UNL     1       4.629  14.782  17.990  0.00  0.00    +0.000 NA
ATOM     29  N   UNL     1       5.896  14.705  17.903  0.00  0.00    +0.000 NA
ATOM     30  N   UNL     1       6.445  15.888  18.324  0.00  0.00    +0.000 N 
ATOM     31  C   UNL     1       5.441  16.725  18.765  0.00  0.00    +0.000 A 
ATOM     32  O   UNL     1       5.542  17.786  19.356  0.00  0.00    +0.000 OA
BRANCH  30  33
ATOM     33  C   UNL     1       7.836  16.032  18.654  0.00  0.00    +0.000 C 
ATOM     34  C   UNL     1       8.644  14.794  18.299  0.00  0.00    +0.000 C 
ENDBRANCH  30  33
ENDBRANCH  26  27
ENDBRANCH  25  26
ENDBRANCH   4  25
TORSDOF 8
ENDMDL
MODEL 7
REMARK VINA RESULT:      -6.3      8.039     11.085
REMARK  Name = 
REMARK  11 active torsions:
REMARK  status: ('A' for Active; 'I' for Inactive)
REMARK    1  A    between atoms: C_1  and  C_2
REMARK    2  A    between atoms: C_2  and  C_3
REMARK    3  A    between atoms: N_5  and  C_6
REMARK    4  A    between atoms: N_5  and  C_13
REMARK    5  A    between atoms: C_13  and  C_14
REMARK    6  A    between atoms: C_16  and  C_17
REMARK    7  A    between atoms: N_22  and  C_23
REMARK    8  A    between atoms: C_23  and  C_24
REMARK    9  A    between atoms: C_24  and  N_25
REMARK   10  A    between atoms: N_28  and  C_29
REMARK   11  A    between atoms: C_29  and  C_30
REMARK                            x       y       z     vdW  Elec       q    Type
REMARK                         _______ _______ _______ _____ _____    ______ ____
ROOT
ATOM      1  C   UNL     1      -0.515  12.461  19.332  0.00  0.00    +0.000 C 
ATOM      2  C   UNL     1       0.856  11.819  18.987  0.00  0.00    +0.000 C 
ATOM      3  C   UNL     1       2.035  12.696  19.338  0.00  0.00    +0.000 C 
ATOM      4  N   UNL     1       2.006  14.005  18.687  0.00  0.00    +0.000 NA
ATOM      5  C   UNL     1       0.731  14.701  18.869  0.00  0.00    +0.000 C 
ATOM      6  C   UNL     1      -0.488  13.824  18.567  0.00  0.00    +0.000 C 
ENDROOT
BRANCH   1   7
ATOM      7  C   UNL     1      -1.627  11.601  18.678  0.00  0.00    +0.000 A 
ATOM      8  N   UNL     1      -2.915  11.885  18.770  0.00  0.00    +0.000 NA
ATOM      9  C   UNL     1      -3.682  10.991  18.052  0.00  0.00    +0.000 A 
ATOM     10  C   UNL     1      -5.153  11.200  18.000  0.00  0.00    +0.000 C 
ATOM     11  C   UNL     1      -2.962   9.987  17.446  0.00  0.00    +0.000 A 
ATOM     12  S   UNL     1      -1.282  10.188  17.751  0.00  0.00    +0.000 S 
ENDBRANCH   1   7
BRANCH   1  15
ATOM     13  C   UNL     1      -0.429  11.448  21.747  0.00  0.00    +0.000 C 
ATOM     14  O   UNL     1      -0.565  11.570  22.971  0.00  0.00    +0.000 OA
ATOM     15  N   UNL     1      -0.740  12.495  20.851  0.00  0.00    +0.000 N 
BRANCH  15  16
ATOM     16  C   UNL     1      -1.079  13.754  21.486  0.00  0.00    +0.000 A 
ATOM     17  C   UNL     1      -2.400  14.227  21.508  0.00  0.00    +0.000 A 
ATOM     18  C   UNL     1      -2.713  15.463  22.092  0.00  0.00    +0.000 A 
ATOM     19  C   UNL     1      -1.721  16.227  22.707  0.00  0.00    +0.000 A 
ATOM     20  C   UNL     1      -0.411  15.757  22.734  0.00  0.00    +0.000 A 
ATOM     21  C   UNL     1      -0.098  14.538  22.125  0.00  0.00    +0.000 A 
ATOM     22  F   UNL     1       1.193  14.170  22.094  0.00  0.00    +0.000 F 
ENDBRANCH  15  16
BRANCH  13  24
ATOM     23  C   UNL     1      -0.110   9.001  22.307  0.00  0.00    +0.000 C 
ATOM     24  C   UNL     1      -0.053  10.065  21.224  0.00  0.00    +0.000 C 
ENDBRANCH  13  24
ENDBRANCH   1  15
BRANCH   4  25
ATOM     25  C   UNL     1       3.123  14.843  19.194  0.00  0.00    +0.000 C 
BRANCH  25  26
ATOM     26  C   UNL     1       4.202  15.040  18.124  0.00  0.00    +0.000 C 
BRANCH  26  27
ATOM     27  N   UNL     1       5.367  15.771  18.520  0.00  0.00    +0.000 N 
ATOM     28  N   UNL     1       5.397  17.111  18.775  0.00  0.00    +0.000 NA
ATOM     29  N   UNL     1       6.605  17.510  18.734  0.00  0.00    +0.000 NA
ATOM     30  N   UNL     1       7.416  16.449  18.429  0.00  0.00    +0.000 N 
ATOM     31  C   UNL     1       6.638  15.332  18.200  0.00  0.00    +0.000 A 
ATOM     32  O   UNL     1       6.977  14.251  17.752  0.00  0.00    +0.000 OA
BRANCH  30  33
ATOM     33  C   UNL     1       8.778  16.603  17.996  0.00  0.00    +0.000 C 
ATOM     34  C   UNL     1       9.773  16.196  19.071  0.00  0.00    +0.000 C 
ENDBRANCH  30  33
ENDBRANCH  26  27
ENDBRANCH  25  26
ENDBRANCH   4  25
TORSDOF 8
ENDMDL
MODEL 8
REMARK VINA RESULT:      -6.3      9.021     10.742
REMARK  Name = 
REMARK  11 active torsions:
REMARK  status: ('A' for Active; 'I' for Inactive)
REMARK    1  A    between atoms: C_1  and  C_2
REMARK    2  A    between atoms: C_2  and  C_3
REMARK    3  A    between atoms: N_5  and  C_6
REMARK    4  A    between atoms: N_5  and  C_13
REMARK    5  A    between atoms: C_13  and  C_14
REMARK    6  A    between atoms: C_16  and  C_17
REMARK    7  A    between atoms: N_22  and  C_23
REMARK    8  A    between atoms: C_23  and  C_24
REMARK    9  A    between atoms: C_24  and  N_25
REMARK   10  A    between atoms: N_28  and  C_29
REMARK   11  A    between atoms: C_29  and  C_30
REMARK                            x       y       z     vdW  Elec       q    Type
REMARK                         _______ _______ _______ _____ _____    ______ ____
ROOT
ATOM      1  C   UNL     1      -1.884  12.675  21.702  0.00  0.00    +0.000 C 
ATOM      2  C   UNL     1      -1.783  11.628  22.845  0.00  0.00    +0.000 C 
ATOM      3  C   UNL     1      -0.487  10.852  22.835  0.00  0.00    +0.000 C 
ATOM      4  N   UNL     1      -0.242  10.137  21.583  0.00  0.00    +0.000 NA
ATOM      5  C   UNL     1      -0.378  10.993  20.404  0.00  0.00    +0.000 C 
ATOM      6  C   UNL     1      -1.661  11.830  20.406  0.00  0.00    +0.000 C 
ENDROOT
BRANCH   1   7
ATOM      7  C   UNL     1      -3.345  13.194  21.654  0.00  0.00    +0.000 A 
ATOM      8  N   UNL     1      -4.376  12.506  22.113  0.00  0.00    +0.000 NA
ATOM      9  C   UNL     1      -5.551  13.220  21.997  0.00  0.00    +0.000 A 
ATOM     10  C   UNL     1      -6.804  12.616  22.521  0.00  0.00    +0.000 C 
ATOM     11  C   UNL     1      -5.409  14.450  21.396  0.00  0.00    +0.000 A 
ATOM     12  S   UNL     1      -3.761  14.735  21.000  0.00  0.00    +0.000 S 
ENDBRANCH   1   7
BRANCH   1  15
ATOM     13  C   UNL     1      -0.855  14.590  23.164  0.00  0.00    +0.000 C 
ATOM     14  O   UNL     1      -0.019  15.488  23.329  0.00  0.00    +0.000 OA
ATOM     15  N   UNL     1      -0.942  13.862  21.957  0.00  0.00    +0.000 N 
BRANCH  15  16
ATOM     16  C   UNL     1       0.111  14.143  21.002  0.00  0.00    +0.000 A 
ATOM     17  C   UNL     1       1.401  13.613  21.163  0.00  0.00    +0.000 A 
ATOM     18  C   UNL     1       2.424  13.918  20.253  0.00  0.00    +0.000 A 
ATOM     19  C   UNL     1       2.166  14.721  19.141  0.00  0.00    +0.000 A 
ATOM     20  C   UNL     1       0.883  15.222  18.939  0.00  0.00    +0.000 A 
ATOM     21  C   UNL     1      -0.126  14.938  19.863  0.00  0.00    +0.000 A 
ATOM     22  F   UNL     1      -1.323  15.520  19.678  0.00  0.00    +0.000 F 
ENDBRANCH  15  16
BRANCH  13  24
ATOM     23  C   UNL     1      -2.201  15.690  25.002  0.00  0.00    +0.000 C 
ATOM     24  C   UNL     1      -1.895  14.399  24.264  0.00  0.00    +0.000 C 
ENDBRANCH  13  24
ENDBRANCH   1  15
BRANCH   4  25
ATOM     25  C   UNL     1       1.109   9.519  21.614  0.00  0.00    +0.000 C 
BRANCH  25  26
ATOM     26  C   UNL     1       1.048   8.029  21.258  0.00  0.00    +0.000 C 
BRANCH  26  27
ATOM     27  N   UNL     1       1.871   7.599  20.169  0.00  0.00    +0.000 N 
ATOM     28  N   UNL     1       1.970   8.239  18.967  0.00  0.00    +0.000 NA
ATOM     29  N   UNL     1       2.466   7.436  18.114  0.00  0.00    +0.000 NA
ATOM     30  N   UNL     1       2.693   6.227  18.719  0.00  0.00    +0.000 N 
ATOM     31  C   UNL     1       2.239   6.276  20.020  0.00  0.00    +0.000 A 
ATOM     32  O   UNL     1       2.120   5.362  20.817  0.00  0.00    +0.000 OA
BRANCH  30  33
ATOM     33  C   UNL     1       2.944   5.018  17.983  0.00  0.00    +0.000 C 
ATOM     34  C   UNL     1       1.661   4.291  17.613  0.00  0.00    +0.000 C 
ENDBRANCH  30  33
ENDBRANCH  26  27
ENDBRANCH  25  26
ENDBRANCH   4  25
TORSDOF 8
ENDMDL
MODEL 9
REMARK VINA RESULT:      -6.2      9.075     12.019
REMARK  Name = 
REMARK  11 active torsions:
REMARK  status: ('A' for Active; 'I' for Inactive)
REMARK    1  A    between atoms: C_1  and  C_2
REMARK    2  A    between atoms: C_2  and  C_3
REMARK    3  A    between atoms: N_5  and  C_6
REMARK    4  A    between atoms: N_5  and  C_13
REMARK    5  A    between atoms: C_13  and  C_14
REMARK    6  A    between atoms: C_16  and  C_17
REMARK    7  A    between atoms: N_22  and  C_23
REMARK    8  A    between atoms: C_23  and  C_24
REMARK    9  A    between atoms: C_24  and  N_25
REMARK   10  A    between atoms: N_28  and  C_29
REMARK   11  A    between atoms: C_29  and  C_30
REMARK                            x       y       z     vdW  Elec       q    Type
REMARK                         _______ _______ _______ _____ _____    ______ ____
ROOT
ATOM      1  C   UNL     1      -0.894  12.742  20.200  0.00  0.00    +0.000 C 
ATOM      2  C   UNL     1       0.524  12.340  19.712  0.00  0.00    +0.000 C 
ATOM      3  C   UNL     1       1.634  13.110  20.387  0.00  0.00    +0.000 C 
ATOM      4  N   UNL     1       1.526  14.559  20.222  0.00  0.00    +0.000 NA
ATOM      5  C   UNL     1       0.203  15.074  20.581  0.00  0.00    +0.000 C 
ATOM      6  C   UNL     1      -0.947  14.284  19.949  0.00  0.00    +0.000 C 
ENDROOT
BRANCH   1   7
ATOM      7  C   UNL     1      -1.932  12.095  19.248  0.00  0.00    +0.000 A 
ATOM      8  N   UNL     1      -1.600  11.340  18.215  0.00  0.00    +0.000 NA
ATOM      9  C   UNL     1      -2.716  10.848  17.570  0.00  0.00    +0.000 A 
ATOM     10  C   UNL     1      -2.522   9.929  16.418  0.00  0.00    +0.000 C 
ATOM     11  C   UNL     1      -3.912  11.279  18.098  0.00  0.00    +0.000 A 
ATOM     12  S   UNL     1      -3.633  12.294  19.457  0.00  0.00    +0.000 S 
ENDBRANCH   1   7
BRANCH   1  15
ATOM     13  C   UNL     1      -0.708  11.000  22.149  0.00  0.00    +0.000 C 
ATOM     14  O   UNL     1      -0.881  10.689  23.334  0.00  0.00    +0.000 OA
ATOM     15  N   UNL     1      -1.147  12.239  21.630  0.00  0.00    +0.000 N 
BRANCH  15  16
ATOM     16  C   UNL     1      -1.667  13.161  22.619  0.00  0.00    +0.000 A 
ATOM     17  C   UNL     1      -0.838  14.111  23.237  0.00  0.00    +0.000 A 
ATOM     18  C   UNL     1      -1.342  14.976  24.220  0.00  0.00    +0.000 A 
ATOM     19  C   UNL     1      -2.692  14.940  24.570  0.00  0.00    +0.000 A 
ATOM     20  C   UNL     1      -3.541  14.035  23.939  0.00  0.00    +0.000 A 
ATOM     21  C   UNL     1      -3.029  13.155  22.981  0.00  0.00    +0.000 A 
ATOM     22  F   UNL     1      -3.865  12.237  22.468  0.00  0.00    +0.000 F 
ENDBRANCH  15  16
BRANCH  13  24
ATOM     23  C   UNL     1       0.795   8.975  21.952  0.00  0.00    +0.000 C 
ATOM     24  C   UNL     1      -0.136   9.930  21.225  0.00  0.00    +0.000 C 
ENDBRANCH  13  24
ENDBRANCH   1  15
BRANCH   4  25
ATOM     25  C   UNL     1       2.574  15.236  21.029  0.00  0.00    +0.000 C 
BRANCH  25  26
ATOM     26  C   UNL     1       3.544  16.019  20.138  0.00  0.00    +0.000 C 
BRANCH  26  27
ATOM     27  N   UNL     1       2.979  17.078  19.358  0.00  0.00    +0.000 N 
ATOM     28  N   UNL     1       2.206  18.087  19.855  0.00  0.00    +0.000 NA
ATOM     29  N   UNL     1       1.572  18.630  18.896  0.00  0.00    +0.000 NA
ATOM     30  N   UNL     1       1.889  17.985  17.729  0.00  0.00    +0.000 N 
ATOM     31  C   UNL     1       2.726  16.925  18.008  0.00  0.00    +0.000 A 
ATOM     32  O   UNL     1       3.091  16.030  17.265  0.00  0.00    +0.000 OA
BRANCH  30  33
ATOM     33  C   UNL     1       1.123  18.129  16.521  0.00  0.00    +0.000 C 
ATOM     34  C   UNL     1      -0.351  18.379  16.800  0.00  0.00    +0.000 C 
ENDBRANCH  30  33
ENDBRANCH  26  27
ENDBRANCH  25  26
ENDBRANCH   4  25
TORSDOF 8
ENDMDL
