MODEL 1
REMARK VINA RESULT:      -9.0      0.000      0.000
REMARK  Name = 
REMARK  5 active torsions:
REMARK  status: ('A' for Active; 'I' for Inactive)
REMARK    1  A    between atoms: C_2  and  C_18
REMARK    2  A    between atoms: C_7  and  C_8
REMARK    3  A    between atoms: C_8  and  C_9
REMARK    4  A    between atoms: C_9  and  S_10
REMARK    5  A    between atoms: S_10  and  C_11
REMARK                            x       y       z     vdW  Elec       q    Type
REMARK                         _______ _______ _______ _____ _____    ______ ____
ROOT
ATOM      1  O   UNL     1       7.532   9.158  17.287  0.00  0.00    +0.000 OA
ATOM      2  C   UNL     1       8.326   8.983  18.200  0.00  0.00    +0.000 C 
ATOM      3  N   UNL     1       8.539   7.822  18.895  0.00  0.00    +0.000 N 
ATOM      4  C   UNL     1       7.971   6.622  18.583  0.00  0.00    +0.000 A 
ATOM      5  N   UNL     1       8.068   5.531  19.312  0.00  0.00    +0.000 NA
ATOM      6  N   UNL     1       7.415   4.537  18.621  0.00  0.00    +0.000 NA
ATOM      7  C   UNL     1       6.982   5.086  17.507  0.00  0.00    +0.000 A 
ATOM      8  O   UNL     1       7.289   6.421  17.415  0.00  0.00    +0.000 OA
ATOM      9  H   UNL     1       9.077   7.815  19.748  0.00  0.00    +0.000 HD
ENDROOT
BRANCH   2  10
ATOM     10  C   UNL     1       9.139  10.137  18.689  0.00  0.00    +0.000 A 
ATOM     11  C   UNL     1       9.813  10.941  17.761  0.00  0.00    +0.000 A 
ATOM     12  C   UNL     1      10.574  12.031  18.201  0.00  0.00    +0.000 A 
ATOM     13  C   UNL     1      10.673  12.305  19.564  0.00  0.00    +0.000 A 
ATOM     14 CL   UNL     1      11.615  13.638  20.106  0.00  0.00    +0.000 Cl
ATOM     15  C   UNL     1      10.018  11.499  20.496  0.00  0.00    +0.000 A 
ATOM     16  C   UNL     1       9.253  10.412  20.061  0.00  0.00    +0.000 A 
ENDBRANCH   2  10
BRANCH   7  17
ATOM     17  C   UNL     1       6.241   4.451  16.391  0.00  0.00    +0.000 C 
BRANCH  17  18
ATOM     18  C   UNL     1       4.861   3.967  16.832  0.00  0.00    +0.000 C 
BRANCH  18  19
ATOM     19  S   UNL     1       3.906   5.376  17.506  0.00  0.00    +0.000 S 
BRANCH  19  20
ATOM     20  C   UNL     1       2.656   4.502  18.433  0.00  0.00    +0.000 A 
ATOM     21  C   UNL     1       2.155   3.293  17.940  0.00  0.00    +0.000 A 
ATOM     22  C   UNL     1       1.196   2.579  18.663  0.00  0.00    +0.000 A 
ATOM     23  C   UNL     1       0.739   3.064  19.887  0.00  0.00    +0.000 A 
ATOM     24  C   UNL     1       1.248   4.260  20.392  0.00  0.00    +0.000 A 
ATOM     25  C   UNL     1       2.207   4.975  19.670  0.00  0.00    +0.000 A 
ENDBRANCH  19  20
ENDBRANCH  18  19
ENDBRANCH  17  18
ENDBRANCH   7  17
TORSDOF 5
ENDMDL
MODEL 2
REMARK VINA RESULT:      -8.9      0.430      1.420
REMARK  Name = 
REMARK  5 active torsions:
REMARK  status: ('A' for Active; 'I' for Inactive)
REMARK    1  A    between atoms: C_2  and  C_18
REMARK    2  A    between atoms: C_7  and  C_8
REMARK    3  A    between atoms: C_8  and  C_9
REMARK    4  A    between atoms: C_9  and  S_10
REMARK    5  A    between atoms: S_10  and  C_11
REMARK                            x       y       z     vdW  Elec       q    Type
REMARK                         _______ _______ _______ _____ _____    ______ ____
ROOT
ATOM      1  O   UNL     1       7.436   9.111  17.222  0.00  0.00    +0.000 OA
ATOM      2  C   UNL     1       8.235   8.946  18.134  0.00  0.00    +0.000 C 
ATOM      3  N   UNL     1       8.442   7.798  18.850  0.00  0.00    +0.000 N 
ATOM      4  C   UNL     1       7.861   6.597  18.566  0.00  0.00    +0.000 A 
ATOM      5  N   UNL     1       7.953   5.520  19.315  0.00  0.00    +0.000 NA
ATOM      6  N   UNL     1       7.286   4.518  18.649  0.00  0.00    +0.000 NA
ATOM      7  C   UNL     1       6.851   5.050  17.526  0.00  0.00    +0.000 A 
ATOM      8  O   UNL     1       7.169   6.380  17.406  0.00  0.00    +0.000 OA
ATOM      9  H   UNL     1       8.986   7.803  19.700  0.00  0.00    +0.000 HD
ENDROOT
BRANCH   2  10
ATOM     10  C   UNL     1       9.061  10.103  18.595  0.00  0.00    +0.000 A 
ATOM     11  C   UNL     1       9.283  10.282  19.966  0.00  0.00    +0.000 A 
ATOM     12  C   UNL     1      10.060  11.356  20.415  0.00  0.00    +0.000 A 
ATOM     13  C   UNL     1      10.600  12.256  19.498  0.00  0.00    +0.000 A 
ATOM     14 CL   UNL     1      11.547  13.581  20.051  0.00  0.00    +0.000 Cl
ATOM     15  C   UNL     1      10.369  12.095  18.131  0.00  0.00    +0.000 A 
ATOM     16  C   UNL     1       9.598  11.020  17.678  0.00  0.00    +0.000 A 
ENDBRANCH   2  10
BRANCH   7  17
ATOM     17  C   UNL     1       6.096   4.399  16.428  0.00  0.00    +0.000 C 
BRANCH  17  18
ATOM     18  C   UNL     1       4.732   3.900  16.898  0.00  0.00    +0.000 C 
BRANCH  18  19
ATOM     19  S   UNL     1       3.736   5.316  17.496  0.00  0.00    +0.000 S 
BRANCH  19  20
ATOM     20  C   UNL     1       2.754   4.511  18.750  0.00  0.00    +0.000 A 
ATOM     21  C   UNL     1       2.959   4.834  20.095  0.00  0.00    +0.000 A 
ATOM     22  C   UNL     1       2.183   4.235  21.091  0.00  0.00    +0.000 A 
ATOM     23  C   UNL     1       1.192   3.319  20.747  0.00  0.00    +0.000 A 
ATOM     24  C   UNL     1       0.970   3.005  19.407  0.00  0.00    +0.000 A 
ATOM     25  C   UNL     1       1.747   3.603  18.410  0.00  0.00    +0.000 A 
ENDBRANCH  19  20
ENDBRANCH  18  19
ENDBRANCH  17  18
ENDBRANCH   7  17
TORSDOF 5
ENDMDL
MODEL 3
REMARK VINA RESULT:      -8.7      0.674      1.193
REMARK  Name = 
REMARK  5 active torsions:
REMARK  status: ('A' for Active; 'I' for Inactive)
REMARK    1  A    between atoms: C_2  and  C_18
REMARK    2  A    between atoms: C_7  and  C_8
REMARK    3  A    between atoms: C_8  and  C_9
REMARK    4  A    between atoms: C_9  and  S_10
REMARK    5  A    between atoms: S_10  and  C_11
REMARK                            x       y       z     vdW  Elec       q    Type
REMARK                         _______ _______ _______ _____ _____    ______ ____
ROOT
ATOM      1  O   UNL     1       7.515   9.145  17.312  0.00  0.00    +0.000 OA
ATOM      2  C   UNL     1       8.319   8.969  18.217  0.00  0.00    +0.000 C 
ATOM      3  N   UNL     1       8.532   7.810  18.916  0.00  0.00    +0.000 N 
ATOM      4  C   UNL     1       7.951   6.612  18.617  0.00  0.00    +0.000 A 
ATOM      5  N   UNL     1       8.049   5.525  19.350  0.00  0.00    +0.000 NA
ATOM      6  N   UNL     1       7.382   4.532  18.673  0.00  0.00    +0.000 NA
ATOM      7  C   UNL     1       6.939   5.079  17.560  0.00  0.00    +0.000 A 
ATOM      8  O   UNL     1       7.254   6.411  17.458  0.00  0.00    +0.000 OA
ATOM      9  H   UNL     1       9.081   7.804  19.762  0.00  0.00    +0.000 HD
ENDROOT
BRANCH   2  10
ATOM     10  C   UNL     1       9.146  10.120  18.690  0.00  0.00    +0.000 A 
ATOM     11  C   UNL     1       9.806  10.921  17.750  0.00  0.00    +0.000 A 
ATOM     12  C   UNL     1      10.580  12.007  18.175  0.00  0.00    +0.000 A 
ATOM     13  C   UNL     1      10.705  12.281  19.535  0.00  0.00    +0.000 A 
ATOM     14 CL   UNL     1      11.663  13.611  20.059  0.00  0.00    +0.000 Cl
ATOM     15  C   UNL     1      10.065  11.478  20.480  0.00  0.00    +0.000 A 
ATOM     16  C   UNL     1       9.287  10.395  20.060  0.00  0.00    +0.000 A 
ENDBRANCH   2  10
BRANCH   7  17
ATOM     17  C   UNL     1       6.180   4.443  16.457  0.00  0.00    +0.000 C 
BRANCH  17  18
ATOM     18  C   UNL     1       4.672   4.564  16.664  0.00  0.00    +0.000 C 
BRANCH  18  19
ATOM     19  S   UNL     1       4.045   3.054  17.490  0.00  0.00    +0.000 S 
BRANCH  19  20
ATOM     20  C   UNL     1       2.979   3.781  18.721  0.00  0.00    +0.000 A 
ATOM     21  C   UNL     1       3.188   5.107  19.116  0.00  0.00    +0.000 A 
ATOM     22  C   UNL     1       2.348   5.704  20.059  0.00  0.00    +0.000 A 
ATOM     23  C   UNL     1       1.288   4.983  20.606  0.00  0.00    +0.000 A 
ATOM     24  C   UNL     1       1.063   3.667  20.205  0.00  0.00    +0.000 A 
ATOM     25  C   UNL     1       1.904   3.069  19.262  0.00  0.00    +0.000 A 
ENDBRANCH  19  20
ENDBRANCH  18  19
ENDBRANCH  17  18
ENDBRANCH   7  17
TORSDOF 5
ENDMDL
MODEL 4
REMARK VINA RESULT:      -8.4      0.900      1.445
REMARK  Name = 
REMARK  5 active torsions:
REMARK  status: ('A' for Active; 'I' for Inactive)
REMARK    1  A    between atoms: C_2  and  C_18
REMARK    2  A    between atoms: C_7  and  C_8
REMARK    3  A    between atoms: C_8  and  C_9
REMARK    4  A    between atoms: C_9  and  S_10
REMARK    5  A    between atoms: S_10  and  C_11
REMARK                            x       y       z     vdW  Elec       q    Type
REMARK                         _______ _______ _______ _____ _____    ______ ____
ROOT
ATOM      1  O   UNL     1       7.516   9.130  17.250  0.00  0.00    +0.000 OA
ATOM      2  C   UNL     1       8.288   8.973  18.186  0.00  0.00    +0.000 C 
ATOM      3  N   UNL     1       8.510   7.816  18.886  0.00  0.00    +0.000 N 
ATOM      4  C   UNL     1       7.979   6.603  18.557  0.00  0.00    +0.000 A 
ATOM      5  N   UNL     1       8.082   5.514  19.287  0.00  0.00    +0.000 NA
ATOM      6  N   UNL     1       7.474   4.505  18.577  0.00  0.00    +0.000 NA
ATOM      7  C   UNL     1       7.060   5.046  17.451  0.00  0.00    +0.000 A 
ATOM      8  O   UNL     1       7.337   6.388  17.369  0.00  0.00    +0.000 OA
ATOM      9  H   UNL     1       9.023   7.821  19.754  0.00  0.00    +0.000 HD
ENDROOT
BRANCH   2  10
ATOM     10  C   UNL     1       9.058  10.146  18.699  0.00  0.00    +0.000 A 
ATOM     11  C   UNL     1       9.632  11.040  17.786  0.00  0.00    +0.000 A 
ATOM     12  C   UNL     1      10.351  12.148  18.249  0.00  0.00    +0.000 A 
ATOM     13  C   UNL     1      10.509  12.352  19.618  0.00  0.00    +0.000 A 
ATOM     14 CL   UNL     1      11.401  13.708  20.188  0.00  0.00    +0.000 Cl
ATOM     15  C   UNL     1       9.956  11.456  20.535  0.00  0.00    +0.000 A 
ATOM     16  C   UNL     1       9.232  10.351  20.077  0.00  0.00    +0.000 A 
ENDBRANCH   2  10
BRANCH   7  17
ATOM     17  C   UNL     1       6.366   4.394  16.314  0.00  0.00    +0.000 C 
BRANCH  17  18
ATOM     18  C   UNL     1       4.934   4.900  16.160  0.00  0.00    +0.000 C 
BRANCH  18  19
ATOM     19  S   UNL     1       3.791   3.776  17.045  0.00  0.00    +0.000 S 
BRANCH  19  20
ATOM     20  C   UNL     1       3.068   4.911  18.216  0.00  0.00    +0.000 A 
ATOM     21  C   UNL     1       2.333   4.409  19.296  0.00  0.00    +0.000 A 
ATOM     22  C   UNL     1       1.781   5.278  20.240  0.00  0.00    +0.000 A 
ATOM     23  C   UNL     1       1.968   6.654  20.116  0.00  0.00    +0.000 A 
ATOM     24  C   UNL     1       2.714   7.160  19.053  0.00  0.00    +0.000 A 
ATOM     25  C   UNL     1       3.266   6.291  18.107  0.00  0.00    +0.000 A 
ENDBRANCH  19  20
ENDBRANCH  18  19
ENDBRANCH  17  18
ENDBRANCH   7  17
TORSDOF 5
ENDMDL
MODEL 5
REMARK VINA RESULT:      -8.4      1.050      1.401
REMARK  Name = 
REMARK  5 active torsions:
REMARK  status: ('A' for Active; 'I' for Inactive)
REMARK    1  A    between atoms: C_2  and  C_18
REMARK    2  A    between atoms: C_7  and  C_8
REMARK    3  A    between atoms: C_8  and  C_9
REMARK    4  A    between atoms: C_9  and  S_10
REMARK    5  A    between atoms: S_10  and  C_11
REMARK                            x       y       z     vdW  Elec       q    Type
REMARK                         _______ _______ _______ _____ _____    ______ ____
ROOT
ATOM      1  O   UNL     1       7.556   9.161  17.133  0.00  0.00    +0.000 OA
ATOM      2  C   UNL     1       8.278   9.057  18.115  0.00  0.00    +0.000 C 
ATOM      3  N   UNL     1       8.493   7.930  18.864  0.00  0.00    +0.000 N 
ATOM      4  C   UNL     1       8.020   6.692  18.546  0.00  0.00    +0.000 A 
ATOM      5  N   UNL     1       8.113   5.629  19.316  0.00  0.00    +0.000 NA
ATOM      6  N   UNL     1       7.578   4.580  18.606  0.00  0.00    +0.000 NA
ATOM      7  C   UNL     1       7.212   5.072  17.441  0.00  0.00    +0.000 A 
ATOM      8  O   UNL     1       7.453   6.419  17.332  0.00  0.00    +0.000 OA
ATOM      9  H   UNL     1       8.956   7.979  19.759  0.00  0.00    +0.000 HD
ENDROOT
BRANCH   2  10
ATOM     10  C   UNL     1       8.982  10.269  18.632  0.00  0.00    +0.000 A 
ATOM     11  C   UNL     1       9.515  10.251  19.928  0.00  0.00    +0.000 A 
ATOM     12  C   UNL     1      10.183  11.375  20.426  0.00  0.00    +0.000 A 
ATOM     13  C   UNL     1      10.303  12.519  19.639  0.00  0.00    +0.000 A 
ATOM     14 CL   UNL     1      11.116  13.905  20.254  0.00  0.00    +0.000 Cl
ATOM     15  C   UNL     1       9.759  12.552  18.354  0.00  0.00    +0.000 A 
ATOM     16  C   UNL     1       9.096  11.429  17.850  0.00  0.00    +0.000 A 
ENDBRANCH   2  10
BRANCH   7  17
ATOM     17  C   UNL     1       6.605   4.364  16.289  0.00  0.00    +0.000 C 
BRANCH  17  18
ATOM     18  C   UNL     1       5.284   5.002  15.866  0.00  0.00    +0.000 C 
BRANCH  18  19
ATOM     19  S   UNL     1       4.455   5.722  17.332  0.00  0.00    +0.000 S 
BRANCH  19  20
ATOM     20  C   UNL     1       3.702   4.261  18.025  0.00  0.00    +0.000 A 
ATOM     21  C   UNL     1       2.953   3.416  17.200  0.00  0.00    +0.000 A 
ATOM     22  C   UNL     1       2.377   2.253  17.716  0.00  0.00    +0.000 A 
ATOM     23  C   UNL     1       2.555   1.922  19.058  0.00  0.00    +0.000 A 
ATOM     24  C   UNL     1       3.315   2.750  19.883  0.00  0.00    +0.000 A 
ATOM     25  C   UNL     1       3.891   3.915  19.367  0.00  0.00    +0.000 A 
ENDBRANCH  19  20
ENDBRANCH  18  19
ENDBRANCH  17  18
ENDBRANCH   7  17
TORSDOF 5
ENDMDL
MODEL 6
REMARK VINA RESULT:      -8.2      1.638      2.526
REMARK  Name = 
REMARK  5 active torsions:
REMARK  status: ('A' for Active; 'I' for Inactive)
REMARK    1  A    between atoms: C_2  and  C_18
REMARK    2  A    between atoms: C_7  and  C_8
REMARK    3  A    between atoms: C_8  and  C_9
REMARK    4  A    between atoms: C_9  and  S_10
REMARK    5  A    between atoms: S_10  and  C_11
REMARK                            x       y       z     vdW  Elec       q    Type
REMARK                         _______ _______ _______ _____ _____    ______ ____
ROOT
ATOM      1  O   UNL     1       7.374   9.258  17.525  0.00  0.00    +0.000 OA
ATOM      2  C   UNL     1       8.302   9.041  18.291  0.00  0.00    +0.000 C 
ATOM      3  N   UNL     1       8.607   7.852  18.900  0.00  0.00    +0.000 N 
ATOM      4  C   UNL     1       7.977   6.670  18.640  0.00  0.00    +0.000 A 
ATOM      5  N   UNL     1       8.173   5.551  19.303  0.00  0.00    +0.000 NA
ATOM      6  N   UNL     1       7.404   4.590  18.690  0.00  0.00    +0.000 NA
ATOM      7  C   UNL     1       6.805   5.187  17.680  0.00  0.00    +0.000 A 
ATOM      8  O   UNL     1       7.114   6.521  17.590  0.00  0.00    +0.000 OA
ATOM      9  H   UNL     1       9.275   7.807  19.654  0.00  0.00    +0.000 HD
ENDROOT
BRANCH   2  10
ATOM     10  C   UNL     1       9.200  10.168  18.686  0.00  0.00    +0.000 A 
ATOM     11  C   UNL     1       9.361  10.472  20.043  0.00  0.00    +0.000 A 
ATOM     12  C   UNL     1      10.204  11.520  20.431  0.00  0.00    +0.000 A 
ATOM     13  C   UNL     1      10.870  12.272  19.464  0.00  0.00    +0.000 A 
ATOM     14 CL   UNL     1      11.898  13.566  19.940  0.00  0.00    +0.000 Cl
ATOM     15  C   UNL     1      10.701  11.987  18.108  0.00  0.00    +0.000 A 
ATOM     16  C   UNL     1       9.865  10.937  17.717  0.00  0.00    +0.000 A 
ENDBRANCH   2  10
BRANCH   7  17
ATOM     17  C   UNL     1       5.885   4.602  16.676  0.00  0.00    +0.000 C 
BRANCH  17  18
ATOM     18  C   UNL     1       4.479   5.186  16.789  0.00  0.00    +0.000 C 
BRANCH  18  19
ATOM     19  S   UNL     1       3.876   4.999  18.508  0.00  0.00    +0.000 S 
BRANCH  19  20
ATOM     20  C   UNL     1       2.982   6.531  18.704  0.00  0.00    +0.000 A 
ATOM     21  C   UNL     1       2.323   6.793  19.909  0.00  0.00    +0.000 A 
ATOM     22  C   UNL     1       1.640   7.997  20.093  0.00  0.00    +0.000 A 
ATOM     23  C   UNL     1       1.620   8.951  19.078  0.00  0.00    +0.000 A 
ATOM     24  C   UNL     1       2.290   8.705  17.880  0.00  0.00    +0.000 A 
ATOM     25  C   UNL     1       2.973   7.499  17.695  0.00  0.00    +0.000 A 
ENDBRANCH  19  20
ENDBRANCH  18  19
ENDBRANCH  17  18
ENDBRANCH   7  17
TORSDOF 5
ENDMDL
MODEL 7
REMARK VINA RESULT:      -8.1      0.825      1.737
REMARK  Name = 
REMARK  5 active torsions:
REMARK  status: ('A' for Active; 'I' for Inactive)
REMARK    1  A    between atoms: C_2  and  C_18
REMARK    2  A    between atoms: C_7  and  C_8
REMARK    3  A    between atoms: C_8  and  C_9
REMARK    4  A    between atoms: C_9  and  S_10
REMARK    5  A    between atoms: S_10  and  C_11
REMARK                            x       y       z     vdW  Elec       q    Type
REMARK                         _______ _______ _______ _____ _____    ______ ____
ROOT
ATOM      1  O   UNL     1       7.367   9.282  17.539  0.00  0.00    +0.000 OA
ATOM      2  C   UNL     1       8.301   9.045  18.294  0.00  0.00    +0.000 C 
ATOM      3  N   UNL     1       8.580   7.855  18.911  0.00  0.00    +0.000 N 
ATOM      4  C   UNL     1       7.912   6.689  18.674  0.00  0.00    +0.000 A 
ATOM      5  N   UNL     1       8.086   5.572  19.347  0.00  0.00    +0.000 NA
ATOM      6  N   UNL     1       7.279   4.628  18.758  0.00  0.00    +0.000 NA
ATOM      7  C   UNL     1       6.682   5.230  17.751  0.00  0.00    +0.000 A 
ATOM      8  O   UNL     1       7.028   6.554  17.640  0.00  0.00    +0.000 OA
ATOM      9  H   UNL     1       9.258   7.799  19.655  0.00  0.00    +0.000 HD
ENDROOT
BRANCH   2  10
ATOM     10  C   UNL     1       9.237  10.150  18.661  0.00  0.00    +0.000 A 
ATOM     11  C   UNL     1       9.400  10.489  20.010  0.00  0.00    +0.000 A 
ATOM     12  C   UNL     1      10.278  11.517  20.372  0.00  0.00    +0.000 A 
ATOM     13  C   UNL     1      10.979  12.213  19.388  0.00  0.00    +0.000 A 
ATOM     14 CL   UNL     1      12.051  13.483  19.833  0.00  0.00    +0.000 Cl
ATOM     15  C   UNL     1      10.810  11.893  18.041  0.00  0.00    +0.000 A 
ATOM     16  C   UNL     1       9.937  10.863  17.674  0.00  0.00    +0.000 A 
ENDBRANCH   2  10
BRANCH   7  17
ATOM     17  C   UNL     1       5.729   4.661  16.768  0.00  0.00    +0.000 C 
BRANCH  17  18
ATOM     18  C   UNL     1       4.869   3.561  17.385  0.00  0.00    +0.000 C 
BRANCH  18  19
ATOM     19  S   UNL     1       3.109   3.862  16.982  0.00  0.00    +0.000 S 
BRANCH  19  20
ATOM     20  C   UNL     1       2.606   4.797  18.415  0.00  0.00    +0.000 A 
ATOM     21  C   UNL     1       2.785   6.184  18.429  0.00  0.00    +0.000 A 
ATOM     22  C   UNL     1       2.374   6.939  19.530  0.00  0.00    +0.000 A 
ATOM     23  C   UNL     1       1.772   6.313  20.620  0.00  0.00    +0.000 A 
ATOM     24  C   UNL     1       1.575   4.933  20.606  0.00  0.00    +0.000 A 
ATOM     25  C   UNL     1       1.986   4.178  19.505  0.00  0.00    +0.000 A 
ENDBRANCH  19  20
ENDBRANCH  18  19
ENDBRANCH  17  18
ENDBRANCH   7  17
TORSDOF 5
ENDMDL
MODEL 8
REMARK VINA RESULT:      -7.8      4.844      7.477
REMARK  Name = 
REMARK  5 active torsions:
REMARK  status: ('A' for Active; 'I' for Inactive)
REMARK    1  A    between atoms: C_2  and  C_18
REMARK    2  A    between atoms: C_7  and  C_8
REMARK    3  A    between atoms: C_8  and  C_9
REMARK    4  A    between atoms: C_9  and  S_10
REMARK    5  A    between atoms: S_10  and  C_11
REMARK                            x       y       z     vdW  Elec       q    Type
REMARK                         _______ _______ _______ _____ _____    ______ ____
ROOT
ATOM      1  O   UNL     1       2.135   7.900  19.135  0.00  0.00    +0.000 OA
ATOM      2  C   UNL     1       1.637   7.729  20.238  0.00  0.00    +0.000 C 
ATOM      3  N   UNL     1       1.573   6.554  20.940  0.00  0.00    +0.000 N 
ATOM      4  C   UNL     1       2.181   5.394  20.557  0.00  0.00    +0.000 A 
ATOM      5  N   UNL     1       2.027   4.232  21.153  0.00  0.00    +0.000 NA
ATOM      6  N   UNL     1       2.855   3.345  20.506  0.00  0.00    +0.000 NA
ATOM      7  C   UNL     1       3.473   4.034  19.571  0.00  0.00    +0.000 A 
ATOM      8  O   UNL     1       3.087   5.351  19.534  0.00  0.00    +0.000 OA
ATOM      9  H   UNL     1       0.986   6.464  21.755  0.00  0.00    +0.000 HD
ENDROOT
BRANCH   2  10
ATOM     10  C   UNL     1       0.962   8.875  20.918  0.00  0.00    +0.000 A 
ATOM     11  C   UNL     1       0.771  10.072  20.215  0.00  0.00    +0.000 A 
ATOM     12  C   UNL     1       0.135  11.154  20.834  0.00  0.00    +0.000 A 
ATOM     13  C   UNL     1      -0.293  11.046  22.156  0.00  0.00    +0.000 A 
ATOM     14 CL   UNL     1      -1.067  12.379  22.920  0.00  0.00    +0.000 Cl
ATOM     15  C   UNL     1      -0.092   9.864  22.869  0.00  0.00    +0.000 A 
ATOM     16  C   UNL     1       0.538   8.778  22.253  0.00  0.00    +0.000 A 
ENDBRANCH   2  10
BRANCH   7  17
ATOM     17  C   UNL     1       4.497   3.568  18.605  0.00  0.00    +0.000 C 
BRANCH  17  18
ATOM     18  C   UNL     1       4.181   4.023  17.182  0.00  0.00    +0.000 C 
BRANCH  18  19
ATOM     19  S   UNL     1       5.723   4.063  16.196  0.00  0.00    +0.000 S 
BRANCH  19  20
ATOM     20  C   UNL     1       6.666   5.260  17.123  0.00  0.00    +0.000 A 
ATOM     21  C   UNL     1       6.621   6.608  16.752  0.00  0.00    +0.000 A 
ATOM     22  C   UNL     1       7.331   7.566  17.480  0.00  0.00    +0.000 A 
ATOM     23  C   UNL     1       8.082   7.184  18.590  0.00  0.00    +0.000 A 
ATOM     24  C   UNL     1       8.117   5.845  18.977  0.00  0.00    +0.000 A 
ATOM     25  C   UNL     1       7.408   4.886  18.248  0.00  0.00    +0.000 A 
ENDBRANCH  19  20
ENDBRANCH  18  19
ENDBRANCH  17  18
ENDBRANCH   7  17
TORSDOF 5
ENDMDL
MODEL 9
REMARK VINA RESULT:      -7.8      4.890      7.560
REMARK  Name = 
REMARK  5 active torsions:
REMARK  status: ('A' for Active; 'I' for Inactive)
REMARK    1  A    between atoms: C_2  and  C_18
REMARK    2  A    between atoms: C_7  and  C_8
REMARK    3  A    between atoms: C_8  and  C_9
REMARK    4  A    between atoms: C_9  and  S_10
REMARK    5  A    between atoms: S_10  and  C_11
REMARK                            x       y       z     vdW  Elec       q    Type
REMARK                         _______ _______ _______ _____ _____    ______ ____
ROOT
ATOM      1  O   UNL     1       2.185   7.969  19.218  0.00  0.00    +0.000 OA
ATOM      2  C   UNL     1       1.625   7.773  20.288  0.00  0.00    +0.000 C 
ATOM      3  N   UNL     1       1.511   6.581  20.952  0.00  0.00    +0.000 N 
ATOM      4  C   UNL     1       2.128   5.425  20.572  0.00  0.00    +0.000 A 
ATOM      5  N   UNL     1       1.929   4.249  21.126  0.00  0.00    +0.000 NA
ATOM      6  N   UNL     1       2.784   3.371  20.502  0.00  0.00    +0.000 NA
ATOM      7  C   UNL     1       3.460   4.078  19.622  0.00  0.00    +0.000 A 
ATOM      8  O   UNL     1       3.088   5.399  19.600  0.00  0.00    +0.000 OA
ATOM      9  H   UNL     1       0.878   6.475  21.731  0.00  0.00    +0.000 HD
ENDROOT
BRANCH   2  10
ATOM     10  C   UNL     1       0.924   8.909  20.960  0.00  0.00    +0.000 A 
ATOM     11  C   UNL     1       0.501   8.762  22.288  0.00  0.00    +0.000 A 
ATOM     12  C   UNL     1      -0.151   9.817  22.936  0.00  0.00    +0.000 A 
ATOM     13  C   UNL     1      -0.393  11.009  22.254  0.00  0.00    +0.000 A 
ATOM     14 CL   UNL     1      -1.203  12.303  23.048  0.00  0.00    +0.000 Cl
ATOM     15  C   UNL     1       0.009  11.158  20.926  0.00  0.00    +0.000 A 
ATOM     16  C   UNL     1       0.666  10.108  20.277  0.00  0.00    +0.000 A 
ENDBRANCH   2  10
BRANCH   7  17
ATOM     17  C   UNL     1       4.531   3.627  18.701  0.00  0.00    +0.000 C 
BRANCH  17  18
ATOM     18  C   UNL     1       4.110   3.752  17.239  0.00  0.00    +0.000 C 
BRANCH  18  19
ATOM     19  S   UNL     1       5.599   3.909  16.185  0.00  0.00    +0.000 S 
BRANCH  19  20
ATOM     20  C   UNL     1       6.494   5.168  17.078  0.00  0.00    +0.000 A 
ATOM     21  C   UNL     1       7.388   4.792  18.086  0.00  0.00    +0.000 A 
ATOM     22  C   UNL     1       8.118   5.760  18.780  0.00  0.00    +0.000 A 
ATOM     23  C   UNL     1       7.967   7.108  18.463  0.00  0.00    +0.000 A 
ATOM     24  C   UNL     1       7.091   7.489  17.448  0.00  0.00    +0.000 A 
ATOM     25  C   UNL     1       6.359   6.521  16.754  0.00  0.00    +0.000 A 
ENDBRANCH  19  20
ENDBRANCH  18  19
ENDBRANCH  17  18
ENDBRANCH   7  17
TORSDOF 5
ENDMDL
