MODEL 1
REMARK VINA RESULT:      -9.0      0.000      0.000
REMARK  Name = 
REMARK  4 active torsions:
REMARK  status: ('A' for Active; 'I' for Inactive)
REMARK    1  A    between atoms: C_1  and  O_2
REMARK    2  A    between atoms: O_2  and  C_3
REMARK    3  A    between atoms: C_3  and  C_5
REMARK    4  A    between atoms: C_13  and  C_14
REMARK                            x       y       z     vdW  Elec       q    Type
REMARK                         _______ _______ _______ _____ _____    ______ ____
ROOT
ATOM      1  C   UNL     1       7.020   6.370  16.597  0.00  0.00    +0.000 A 
ATOM      2  N   UNL     1       7.778   5.887  15.554  0.00  0.00    +0.000 N 
ATOM      3  C   UNL     1       7.027   5.111  14.703  0.00  0.00    +0.000 A 
ATOM      4  C   UNL     1       7.415   4.362  13.586  0.00  0.00    +0.000 A 
ATOM      5  C   UNL     1       6.422   3.650  12.894  0.00  0.00    +0.000 A 
ATOM      6  C   UNL     1       5.091   3.751  13.274  0.00  0.00    +0.000 A 
ATOM      7  C   UNL     1       4.725   4.560  14.351  0.00  0.00    +0.000 A 
ATOM      8  C   UNL     1       5.710   5.197  15.144  0.00  0.00    +0.000 A 
ATOM      9  C   UNL     1       5.705   5.949  16.381  0.00  0.00    +0.000 A 
ATOM     10  H   UNL     1       8.774   6.048  15.456  0.00  0.00    +0.000 HD
ENDROOT
BRANCH   9  11
ATOM     11  C   UNL     1       4.574   6.280  17.267  0.00  0.00    +0.000 A 
ATOM     12  C   UNL     1       3.827   7.458  17.064  0.00  0.00    +0.000 A 
ATOM     13  C   UNL     1       2.787   7.820  17.907  0.00  0.00    +0.000 A 
ATOM     14  C   UNL     1       2.388   6.959  18.922  0.00  0.00    +0.000 A 
ATOM     15  C   UNL     1       3.053   5.725  19.133  0.00  0.00    +0.000 A 
ATOM     16  C   UNL     1       4.178   5.434  18.342  0.00  0.00    +0.000 A 
ATOM     17  S   UNL     1       4.935   4.008  18.964  0.00  0.00    +0.000 S 
ATOM     18  C   UNL     1       3.586   3.565  19.906  0.00  0.00    +0.000 A 
ATOM     19  C   UNL     1       3.366   2.331  20.545  0.00  0.00    +0.000 A 
ATOM     20  C   UNL     1       2.284   2.210  21.416  0.00  0.00    +0.000 A 
ATOM     21  C   UNL     1       1.444   3.290  21.644  0.00  0.00    +0.000 A 
ATOM     22  C   UNL     1       1.635   4.492  20.952  0.00  0.00    +0.000 A 
ATOM     23  C   UNL     1       2.710   4.636  20.037  0.00  0.00    +0.000 A 
ENDBRANCH   9  11
BRANCH   1  24
ATOM     24  C   UNL     1       7.593   7.156  17.672  0.00  0.00    +0.000 C 
ATOM     25  O   UNL     1       8.070   6.722  18.712  0.00  0.00    +0.000 OA
BRANCH  24  27
ATOM     26  C   UNL     1       8.391   9.300  18.119  0.00  0.00    +0.000 C 
ATOM     27  O   UNL     1       7.479   8.484  17.382  0.00  0.00    +0.000 OA
ENDBRANCH  24  27
ENDBRANCH   1  24
TORSDOF 3
ENDMDL
MODEL 2
REMARK VINA RESULT:      -8.4      1.587      2.831
REMARK  Name = 
REMARK  4 active torsions:
REMARK  status: ('A' for Active; 'I' for Inactive)
REMARK    1  A    between atoms: C_1  and  O_2
REMARK    2  A    between atoms: O_2  and  C_3
REMARK    3  A    between atoms: C_3  and  C_5
REMARK    4  A    between atoms: C_13  and  C_14
REMARK                            x       y       z     vdW  Elec       q    Type
REMARK                         _______ _______ _______ _____ _____    ______ ____
ROOT
ATOM      1  C   UNL     1       6.886   5.073  16.397  0.00  0.00    +0.000 A 
ATOM      2  N   UNL     1       7.612   5.345  15.260  0.00  0.00    +0.000 N 
ATOM      3  C   UNL     1       7.053   4.754  14.152  0.00  0.00    +0.000 A 
ATOM      4  C   UNL     1       7.513   4.698  12.831  0.00  0.00    +0.000 A 
ATOM      5  C   UNL     1       6.729   4.010  11.890  0.00  0.00    +0.000 A 
ATOM      6  C   UNL     1       5.505   3.469  12.257  0.00  0.00    +0.000 A 
ATOM      7  C   UNL     1       5.040   3.600  13.566  0.00  0.00    +0.000 A 
ATOM      8  C   UNL     1       5.855   4.181  14.567  0.00  0.00    +0.000 A 
ATOM      9  C   UNL     1       5.768   4.330  16.005  0.00  0.00    +0.000 A 
ATOM     10  H   UNL     1       8.475   5.877  15.253  0.00  0.00    +0.000 HD
ENDROOT
BRANCH   9  11
ATOM     11  C   UNL     1       4.723   3.857  16.930  0.00  0.00    +0.000 A 
ATOM     12  C   UNL     1       4.551   2.480  17.174  0.00  0.00    +0.000 A 
ATOM     13  C   UNL     1       3.547   2.002  18.003  0.00  0.00    +0.000 A 
ATOM     14  C   UNL     1       2.747   2.894  18.706  0.00  0.00    +0.000 A 
ATOM     15  C   UNL     1       2.917   4.295  18.560  0.00  0.00    +0.000 A 
ATOM     16  C   UNL     1       3.861   4.754  17.624  0.00  0.00    +0.000 A 
ATOM     17  S   UNL     1       3.692   6.469  17.469  0.00  0.00    +0.000 S 
ATOM     18  C   UNL     1       2.766   6.621  18.891  0.00  0.00    +0.000 A 
ATOM     19  C   UNL     1       2.438   7.811  19.567  0.00  0.00    +0.000 A 
ATOM     20  C   UNL     1       1.525   7.755  20.619  0.00  0.00    +0.000 A 
ATOM     21  C   UNL     1       0.954   6.546  20.988  0.00  0.00    +0.000 A 
ATOM     22  C   UNL     1       1.338   5.360  20.351  0.00  0.00    +0.000 A 
ATOM     23  C   UNL     1       2.286   5.381  19.296  0.00  0.00    +0.000 A 
ENDBRANCH   9  11
BRANCH   1  24
ATOM     24  C   UNL     1       7.305   5.521  17.711  0.00  0.00    +0.000 C 
ATOM     25  O   UNL     1       7.909   4.859  18.544  0.00  0.00    +0.000 OA
BRANCH  24  27
ATOM     26  C   UNL     1       7.928   7.765  17.813  0.00  0.00    +0.000 C 
ATOM     27  O   UNL     1       6.879   6.801  17.917  0.00  0.00    +0.000 OA
ENDBRANCH  24  27
ENDBRANCH   1  24
TORSDOF 3
ENDMDL
MODEL 3
REMARK VINA RESULT:      -8.3      0.723      1.121
REMARK  Name = 
REMARK  4 active torsions:
REMARK  status: ('A' for Active; 'I' for Inactive)
REMARK    1  A    between atoms: C_1  and  O_2
REMARK    2  A    between atoms: O_2  and  C_3
REMARK    3  A    between atoms: C_3  and  C_5
REMARK    4  A    between atoms: C_13  and  C_14
REMARK                            x       y       z     vdW  Elec       q    Type
REMARK                         _______ _______ _______ _____ _____    ______ ____
ROOT
ATOM      1  C   UNL     1       7.000   6.280  16.397  0.00  0.00    +0.000 A 
ATOM      2  N   UNL     1       7.758   5.776  15.364  0.00  0.00    +0.000 N 
ATOM      3  C   UNL     1       6.998   5.018  14.506  0.00  0.00    +0.000 A 
ATOM      4  C   UNL     1       7.381   4.257  13.395  0.00  0.00    +0.000 A 
ATOM      5  C   UNL     1       6.378   3.568  12.692  0.00  0.00    +0.000 A 
ATOM      6  C   UNL     1       5.045   3.704  13.055  0.00  0.00    +0.000 A 
ATOM      7  C   UNL     1       4.687   4.525  14.126  0.00  0.00    +0.000 A 
ATOM      8  C   UNL     1       5.678   5.138  14.930  0.00  0.00    +0.000 A 
ATOM      9  C   UNL     1       5.677   5.893  16.166  0.00  0.00    +0.000 A 
ATOM     10  H   UNL     1       8.759   5.911  15.278  0.00  0.00    +0.000 HD
ENDROOT
BRANCH   9  11
ATOM     11  C   UNL     1       4.545   6.255  17.036  0.00  0.00    +0.000 A 
ATOM     12  C   UNL     1       3.959   7.535  16.956  0.00  0.00    +0.000 A 
ATOM     13  C   UNL     1       2.923   7.921  17.792  0.00  0.00    +0.000 A 
ATOM     14  C   UNL     1       2.362   7.000  18.669  0.00  0.00    +0.000 A 
ATOM     15  C   UNL     1       2.858   5.674  18.747  0.00  0.00    +0.000 A 
ATOM     16  C   UNL     1       3.985   5.341  17.975  0.00  0.00    +0.000 A 
ATOM     17  S   UNL     1       4.525   3.765  18.440  0.00  0.00    +0.000 S 
ATOM     18  C   UNL     1       3.078   3.386  19.256  0.00  0.00    +0.000 A 
ATOM     19  C   UNL     1       2.672   2.120  19.720  0.00  0.00    +0.000 A 
ATOM     20  C   UNL     1       1.533   2.033  20.521  0.00  0.00    +0.000 A 
ATOM     21  C   UNL     1       0.818   3.176  20.849  0.00  0.00    +0.000 A 
ATOM     22  C   UNL     1       1.195   4.419  20.327  0.00  0.00    +0.000 A 
ATOM     23  C   UNL     1       2.332   4.536  19.487  0.00  0.00    +0.000 A 
ENDBRANCH   9  11
BRANCH   1  24
ATOM     24  C   UNL     1       7.580   7.054  17.478  0.00  0.00    +0.000 C 
ATOM     25  O   UNL     1       7.564   8.272  17.587  0.00  0.00    +0.000 OA
BRANCH  24  27
ATOM     26  C   UNL     1       7.358   5.779  19.417  0.00  0.00    +0.000 C 
ATOM     27  O   UNL     1       8.208   6.217  18.355  0.00  0.00    +0.000 OA
ENDBRANCH  24  27
ENDBRANCH   1  24
TORSDOF 3
ENDMDL
MODEL 4
REMARK VINA RESULT:      -7.8      1.015      1.047
REMARK  Name = 
REMARK  4 active torsions:
REMARK  status: ('A' for Active; 'I' for Inactive)
REMARK    1  A    between atoms: C_1  and  O_2
REMARK    2  A    between atoms: O_2  and  C_3
REMARK    3  A    between atoms: C_3  and  C_5
REMARK    4  A    between atoms: C_13  and  C_14
REMARK                            x       y       z     vdW  Elec       q    Type
REMARK                         _______ _______ _______ _____ _____    ______ ____
ROOT
ATOM      1  C   UNL     1       7.062   5.706  15.874  0.00  0.00    +0.000 A 
ATOM      2  N   UNL     1       7.732   5.159  14.803  0.00  0.00    +0.000 N 
ATOM      3  C   UNL     1       6.868   4.542  13.930  0.00  0.00    +0.000 A 
ATOM      4  C   UNL     1       7.133   3.791  12.779  0.00  0.00    +0.000 A 
ATOM      5  C   UNL     1       6.040   3.265  12.070  0.00  0.00    +0.000 A 
ATOM      6  C   UNL     1       4.741   3.550  12.469  0.00  0.00    +0.000 A 
ATOM      7  C   UNL     1       4.507   4.359  13.582  0.00  0.00    +0.000 A 
ATOM      8  C   UNL     1       5.581   4.807  14.389  0.00  0.00    +0.000 A 
ATOM      9  C   UNL     1       5.696   5.498  15.656  0.00  0.00    +0.000 A 
ATOM     10  H   UNL     1       8.740   5.172  14.700  0.00  0.00    +0.000 HD
ENDROOT
BRANCH   9  11
ATOM     11  C   UNL     1       4.633   5.958  16.567  0.00  0.00    +0.000 A 
ATOM     12  C   UNL     1       4.170   7.288  16.514  0.00  0.00    +0.000 A 
ATOM     13  C   UNL     1       3.205   7.763  17.388  0.00  0.00    +0.000 A 
ATOM     14  C   UNL     1       2.588   6.892  18.278  0.00  0.00    +0.000 A 
ATOM     15  C   UNL     1       2.958   5.525  18.332  0.00  0.00    +0.000 A 
ATOM     16  C   UNL     1       4.022   5.093  17.519  0.00  0.00    +0.000 A 
ATOM     17  S   UNL     1       4.424   3.468  17.956  0.00  0.00    +0.000 S 
ATOM     18  C   UNL     1       2.976   3.221  18.820  0.00  0.00    +0.000 A 
ATOM     19  C   UNL     1       2.467   1.996  19.290  0.00  0.00    +0.000 A 
ATOM     20  C   UNL     1       1.353   2.011  20.129  0.00  0.00    +0.000 A 
ATOM     21  C   UNL     1       0.762   3.213  20.488  0.00  0.00    +0.000 A 
ATOM     22  C   UNL     1       1.237   4.419  19.961  0.00  0.00    +0.000 A 
ATOM     23  C   UNL     1       2.352   4.435  19.083  0.00  0.00    +0.000 A 
ENDBRANCH   9  11
BRANCH   1  24
ATOM     24  C   UNL     1       7.752   6.351  16.974  0.00  0.00    +0.000 C 
ATOM     25  O   UNL     1       8.073   5.830  18.033  0.00  0.00    +0.000 OA
BRANCH  24  27
ATOM     26  C   UNL     1       7.934   8.510  17.833  0.00  0.00    +0.000 C 
ATOM     27  O   UNL     1       7.956   7.668  16.679  0.00  0.00    +0.000 OA
ENDBRANCH  24  27
ENDBRANCH   1  24
TORSDOF 3
ENDMDL
MODEL 5
REMARK VINA RESULT:      -7.5      5.972      8.989
REMARK  Name = 
REMARK  4 active torsions:
REMARK  status: ('A' for Active; 'I' for Inactive)
REMARK    1  A    between atoms: C_1  and  O_2
REMARK    2  A    between atoms: O_2  and  C_3
REMARK    3  A    between atoms: C_3  and  C_5
REMARK    4  A    between atoms: C_13  and  C_14
REMARK                            x       y       z     vdW  Elec       q    Type
REMARK                         _______ _______ _______ _____ _____    ______ ____
ROOT
ATOM      1  C   UNL     1      -1.090  11.733  18.270  0.00  0.00    +0.000 A 
ATOM      2  N   UNL     1      -1.102  13.031  17.810  0.00  0.00    +0.000 N 
ATOM      3  C   UNL     1      -0.273  13.836  18.553  0.00  0.00    +0.000 A 
ATOM      4  C   UNL     1      -0.063  15.218  18.487  0.00  0.00    +0.000 A 
ATOM      5  C   UNL     1       0.854  15.788  19.386  0.00  0.00    +0.000 A 
ATOM      6  C   UNL     1       1.574  14.984  20.260  0.00  0.00    +0.000 A 
ATOM      7  C   UNL     1       1.393  13.600  20.255  0.00  0.00    +0.000 A 
ATOM      8  C   UNL     1       0.394  13.005  19.448  0.00  0.00    +0.000 A 
ATOM      9  C   UNL     1      -0.162  11.674  19.314  0.00  0.00    +0.000 A 
ATOM     10  H   UNL     1      -1.686  13.355  17.047  0.00  0.00    +0.000 HD
ENDROOT
BRANCH   9  11
ATOM     11  C   UNL     1       0.166  10.447  20.062  0.00  0.00    +0.000 A 
ATOM     12  C   UNL     1      -0.477  10.159  21.283  0.00  0.00    +0.000 A 
ATOM     13  C   UNL     1      -0.158   9.037  22.031  0.00  0.00    +0.000 A 
ATOM     14  C   UNL     1       0.741   8.103  21.531  0.00  0.00    +0.000 A 
ATOM     15  C   UNL     1       1.368   8.299  20.274  0.00  0.00    +0.000 A 
ATOM     16  C   UNL     1       1.119   9.501  19.589  0.00  0.00    +0.000 A 
ATOM     17  S   UNL     1       2.185   9.590  18.229  0.00  0.00    +0.000 S 
ATOM     18  C   UNL     1       2.593   7.937  18.296  0.00  0.00    +0.000 A 
ATOM     19  C   UNL     1       3.273   7.190  17.315  0.00  0.00    +0.000 A 
ATOM     20  C   UNL     1       3.671   5.889  17.620  0.00  0.00    +0.000 A 
ATOM     21  C   UNL     1       3.400   5.347  18.867  0.00  0.00    +0.000 A 
ATOM     22  C   UNL     1       2.665   6.076  19.810  0.00  0.00    +0.000 A 
ATOM     23  C   UNL     1       2.221   7.392  19.519  0.00  0.00    +0.000 A 
ENDBRANCH   9  11
BRANCH   1  24
ATOM     24  C   UNL     1      -1.935  10.701  17.702  0.00  0.00    +0.000 C 
ATOM     25  O   UNL     1      -1.559   9.720  17.076  0.00  0.00    +0.000 OA
BRANCH  24  27
ATOM     26  C   UNL     1      -4.007  11.121  16.719  0.00  0.00    +0.000 C 
ATOM     27  O   UNL     1      -3.246  11.008  17.923  0.00  0.00    +0.000 OA
ENDBRANCH  24  27
ENDBRANCH   1  24
TORSDOF 3
ENDMDL
MODEL 6
REMARK VINA RESULT:      -7.3      3.182      5.762
REMARK  Name = 
REMARK  4 active torsions:
REMARK  status: ('A' for Active; 'I' for Inactive)
REMARK    1  A    between atoms: C_1  and  O_2
REMARK    2  A    between atoms: O_2  and  C_3
REMARK    3  A    between atoms: C_3  and  C_5
REMARK    4  A    between atoms: C_13  and  C_14
REMARK                            x       y       z     vdW  Elec       q    Type
REMARK                         _______ _______ _______ _____ _____    ______ ____
ROOT
ATOM      1  C   UNL     1       4.202   5.660  18.454  0.00  0.00    +0.000 A 
ATOM      2  N   UNL     1       4.403   4.355  18.846  0.00  0.00    +0.000 N 
ATOM      3  C   UNL     1       3.403   3.921  19.682  0.00  0.00    +0.000 A 
ATOM      4  C   UNL     1       3.269   2.712  20.375  0.00  0.00    +0.000 A 
ATOM      5  C   UNL     1       2.128   2.535  21.175  0.00  0.00    +0.000 A 
ATOM      6  C   UNL     1       1.139   3.509  21.213  0.00  0.00    +0.000 A 
ATOM      7  C   UNL     1       1.268   4.675  20.458  0.00  0.00    +0.000 A 
ATOM      8  C   UNL     1       2.456   4.939  19.735  0.00  0.00    +0.000 A 
ATOM      9  C   UNL     1       2.983   6.072  19.002  0.00  0.00    +0.000 A 
ATOM     10  H   UNL     1       5.213   3.804  18.584  0.00  0.00    +0.000 HD
ENDROOT
BRANCH   9  11
ATOM     11  C   UNL     1       2.393   7.406  18.797  0.00  0.00    +0.000 A 
ATOM     12  C   UNL     1       2.365   7.988  17.513  0.00  0.00    +0.000 A 
ATOM     13  C   UNL     1       1.858   9.260  17.296  0.00  0.00    +0.000 A 
ATOM     14  C   UNL     1       1.261   9.954  18.341  0.00  0.00    +0.000 A 
ATOM     15  C   UNL     1       1.192   9.394  19.641  0.00  0.00    +0.000 A 
ATOM     16  C   UNL     1       1.818   8.155  19.864  0.00  0.00    +0.000 A 
ATOM     17  S   UNL     1       1.800   7.826  21.562  0.00  0.00    +0.000 S 
ATOM     18  C   UNL     1       0.627   9.016  21.896  0.00  0.00    +0.000 A 
ATOM     19  C   UNL     1      -0.092   9.186  23.094  0.00  0.00    +0.000 A 
ATOM     20  C   UNL     1      -0.886  10.323  23.244  0.00  0.00    +0.000 A 
ATOM     21  C   UNL     1      -0.961  11.264  22.227  0.00  0.00    +0.000 A 
ATOM     22  C   UNL     1      -0.294  11.050  21.016  0.00  0.00    +0.000 A 
ATOM     23  C   UNL     1       0.499   9.889  20.822  0.00  0.00    +0.000 A 
ENDBRANCH   9  11
BRANCH   1  24
ATOM     24  C   UNL     1       5.153   6.377  17.627  0.00  0.00    +0.000 C 
ATOM     25  O   UNL     1       4.999   6.697  16.457  0.00  0.00    +0.000 OA
BRANCH  24  27
ATOM     26  C   UNL     1       7.429   6.864  17.506  0.00  0.00    +0.000 C 
ATOM     27  O   UNL     1       6.296   6.606  18.337  0.00  0.00    +0.000 OA
ENDBRANCH  24  27
ENDBRANCH   1  24
TORSDOF 3
ENDMDL
MODEL 7
REMARK VINA RESULT:      -7.3      3.009      5.372
REMARK  Name = 
REMARK  4 active torsions:
REMARK  status: ('A' for Active; 'I' for Inactive)
REMARK    1  A    between atoms: C_1  and  O_2
REMARK    2  A    between atoms: O_2  and  C_3
REMARK    3  A    between atoms: C_3  and  C_5
REMARK    4  A    between atoms: C_13  and  C_14
REMARK                            x       y       z     vdW  Elec       q    Type
REMARK                         _______ _______ _______ _____ _____    ______ ____
ROOT
ATOM      1  C   UNL     1       4.091   3.302  17.681  0.00  0.00    +0.000 A 
ATOM      2  N   UNL     1       5.136   3.115  16.804  0.00  0.00    +0.000 N 
ATOM      3  C   UNL     1       5.886   4.258  16.662  0.00  0.00    +0.000 A 
ATOM      4  C   UNL     1       6.964   4.529  15.812  0.00  0.00    +0.000 A 
ATOM      5  C   UNL     1       7.548   5.805  15.876  0.00  0.00    +0.000 A 
ATOM      6  C   UNL     1       7.104   6.735  16.808  0.00  0.00    +0.000 A 
ATOM      7  C   UNL     1       6.071   6.412  17.689  0.00  0.00    +0.000 A 
ATOM      8  C   UNL     1       5.382   5.181  17.574  0.00  0.00    +0.000 A 
ATOM      9  C   UNL     1       4.204   4.601  18.185  0.00  0.00    +0.000 A 
ATOM     10  H   UNL     1       5.299   2.254  16.294  0.00  0.00    +0.000 HD
ENDROOT
BRANCH   9  11
ATOM     11  C   UNL     1       3.285   5.186  19.178  0.00  0.00    +0.000 A 
ATOM     12  C   UNL     1       3.001   4.506  20.379  0.00  0.00    +0.000 A 
ATOM     13  C   UNL     1       2.106   5.008  21.312  0.00  0.00    +0.000 A 
ATOM     14  C   UNL     1       1.544   6.265  21.125  0.00  0.00    +0.000 A 
ATOM     15  C   UNL     1       1.846   7.032  19.971  0.00  0.00    +0.000 A 
ATOM     16  C   UNL     1       2.662   6.452  18.984  0.00  0.00    +0.000 A 
ATOM     17  S   UNL     1       2.666   7.485  17.596  0.00  0.00    +0.000 S 
ATOM     18  C   UNL     1       2.020   8.815  18.443  0.00  0.00    +0.000 A 
ATOM     19  C   UNL     1       1.951  10.150  18.001  0.00  0.00    +0.000 A 
ATOM     20  C   UNL     1       1.230  11.071  18.761  0.00  0.00    +0.000 A 
ATOM     21  C   UNL     1       0.596  10.673  19.929  0.00  0.00    +0.000 A 
ATOM     22  C   UNL     1       0.728   9.358  20.391  0.00  0.00    +0.000 A 
ATOM     23  C   UNL     1       1.478   8.405  19.655  0.00  0.00    +0.000 A 
ENDBRANCH   9  11
BRANCH   1  24
ATOM     24  C   UNL     1       3.109   2.270  17.948  0.00  0.00    +0.000 C 
ATOM     25  O   UNL     1       3.333   1.155  18.398  0.00  0.00    +0.000 OA
BRANCH  24  27
ATOM     26  C   UNL     1       0.856   2.406  18.532  0.00  0.00    +0.000 C 
ATOM     27  O   UNL     1       1.871   2.705  17.572  0.00  0.00    +0.000 OA
ENDBRANCH  24  27
ENDBRANCH   1  24
TORSDOF 3
ENDMDL
MODEL 8
REMARK VINA RESULT:      -7.3      3.327      5.789
REMARK  Name = 
REMARK  4 active torsions:
REMARK  status: ('A' for Active; 'I' for Inactive)
REMARK    1  A    between atoms: C_1  and  O_2
REMARK    2  A    between atoms: O_2  and  C_3
REMARK    3  A    between atoms: C_3  and  C_5
REMARK    4  A    between atoms: C_13  and  C_14
REMARK                            x       y       z     vdW  Elec       q    Type
REMARK                         _______ _______ _______ _____ _____    ______ ____
ROOT
ATOM      1  C   UNL     1       3.196   4.271  17.388  0.00  0.00    +0.000 A 
ATOM      2  N   UNL     1       4.251   3.895  16.588  0.00  0.00    +0.000 N 
ATOM      3  C   UNL     1       5.303   4.774  16.695  0.00  0.00    +0.000 A 
ATOM      4  C   UNL     1       6.515   4.819  15.997  0.00  0.00    +0.000 A 
ATOM      5  C   UNL     1       7.419   5.847  16.313  0.00  0.00    +0.000 A 
ATOM      6  C   UNL     1       7.135   6.741  17.336  0.00  0.00    +0.000 A 
ATOM      7  C   UNL     1       5.948   6.630  18.061  0.00  0.00    +0.000 A 
ATOM      8  C   UNL     1       4.963   5.682  17.693  0.00  0.00    +0.000 A 
ATOM      9  C   UNL     1       3.601   5.404  18.099  0.00  0.00    +0.000 A 
ATOM     10  H   UNL     1       4.232   3.095  15.965  0.00  0.00    +0.000 HD
ENDROOT
BRANCH   9  11
ATOM     11  C   UNL     1       2.761   6.104  19.087  0.00  0.00    +0.000 A 
ATOM     12  C   UNL     1       2.367   5.461  20.277  0.00  0.00    +0.000 A 
ATOM     13  C   UNL     1       1.540   6.077  21.204  0.00  0.00    +0.000 A 
ATOM     14  C   UNL     1       1.165   7.402  21.024  0.00  0.00    +0.000 A 
ATOM     15  C   UNL     1       1.587   8.129  19.882  0.00  0.00    +0.000 A 
ATOM     16  C   UNL     1       2.326   7.448  18.898  0.00  0.00    +0.000 A 
ATOM     17  S   UNL     1       2.495   8.482  17.522  0.00  0.00    +0.000 S 
ATOM     18  C   UNL     1       2.032   9.883  18.375  0.00  0.00    +0.000 A 
ATOM     19  C   UNL     1       2.159  11.218  17.947  0.00  0.00    +0.000 A 
ATOM     20  C   UNL     1       1.566  12.225  18.707  0.00  0.00    +0.000 A 
ATOM     21  C   UNL     1       0.867  11.911  19.863  0.00  0.00    +0.000 A 
ATOM     22  C   UNL     1       0.804  10.586  20.313  0.00  0.00    +0.000 A 
ATOM     23  C   UNL     1       1.422   9.543  19.576  0.00  0.00    +0.000 A 
ENDBRANCH   9  11
BRANCH   1  24
ATOM     24  C   UNL     1       1.938   3.550  17.401  0.00  0.00    +0.000 C 
ATOM     25  O   UNL     1       0.823   4.036  17.273  0.00  0.00    +0.000 OA
BRANCH  24  27
ATOM     26  C   UNL     1       2.235   1.904  19.025  0.00  0.00    +0.000 C 
ATOM     27  O   UNL     1       2.171   2.225  17.635  0.00  0.00    +0.000 OA
ENDBRANCH  24  27
ENDBRANCH   1  24
TORSDOF 3
ENDMDL
MODEL 9
REMARK VINA RESULT:      -7.2      6.246      9.180
REMARK  Name = 
REMARK  4 active torsions:
REMARK  status: ('A' for Active; 'I' for Inactive)
REMARK    1  A    between atoms: C_1  and  O_2
REMARK    2  A    between atoms: O_2  and  C_3
REMARK    3  A    between atoms: C_3  and  C_5
REMARK    4  A    between atoms: C_13  and  C_14
REMARK                            x       y       z     vdW  Elec       q    Type
REMARK                         _______ _______ _______ _____ _____    ______ ____
ROOT
ATOM      1  C   UNL     1      -1.175  12.298  18.669  0.00  0.00    +0.000 A 
ATOM      2  N   UNL     1      -1.063  13.551  18.110  0.00  0.00    +0.000 N 
ATOM      3  C   UNL     1      -0.119  14.310  18.760  0.00  0.00    +0.000 A 
ATOM      4  C   UNL     1       0.239  15.651  18.579  0.00  0.00    +0.000 A 
ATOM      5  C   UNL     1       1.251  16.178  19.399  0.00  0.00    +0.000 A 
ATOM      6  C   UNL     1       1.914  15.363  20.308  0.00  0.00    +0.000 A 
ATOM      7  C   UNL     1       1.581  14.013  20.418  0.00  0.00    +0.000 A 
ATOM      8  C   UNL     1       0.489  13.476  19.694  0.00  0.00    +0.000 A 
ATOM      9  C   UNL     1      -0.215  12.211  19.683  0.00  0.00    +0.000 A 
ATOM     10  H   UNL     1      -1.640  13.882  17.345  0.00  0.00    +0.000 HD
ENDROOT
BRANCH   9  11
ATOM     11  C   UNL     1       0.006  11.014  20.512  0.00  0.00    +0.000 A 
ATOM     12  C   UNL     1      -0.601  10.897  21.779  0.00  0.00    +0.000 A 
ATOM     13  C   UNL     1      -0.376   9.804  22.602  0.00  0.00    +0.000 A 
ATOM     14  C   UNL     1       0.380   8.734  22.140  0.00  0.00    +0.000 A 
ATOM     15  C   UNL     1       0.959   8.758  20.845  0.00  0.00    +0.000 A 
ATOM     16  C   UNL     1       0.816   9.926  20.076  0.00  0.00    +0.000 A 
ATOM     17  S   UNL     1       1.811   9.784  18.669  0.00  0.00    +0.000 S 
ATOM     18  C   UNL     1       2.027   8.104  18.852  0.00  0.00    +0.000 A 
ATOM     19  C   UNL     1       2.563   7.209  17.906  0.00  0.00    +0.000 A 
ATOM     20  C   UNL     1       2.823   5.896  18.298  0.00  0.00    +0.000 A 
ATOM     21  C   UNL     1       2.556   5.486  19.595  0.00  0.00    +0.000 A 
ATOM     22  C   UNL     1       1.962   6.367  20.507  0.00  0.00    +0.000 A 
ATOM     23  C   UNL     1       1.660   7.701  20.130  0.00  0.00    +0.000 A 
ENDBRANCH   9  11
BRANCH   1  24
ATOM     24  C   UNL     1      -2.152  11.329  18.213  0.00  0.00    +0.000 C 
ATOM     25  O   UNL     1      -3.340  11.304  18.507  0.00  0.00    +0.000 OA
BRANCH  24  27
ATOM     26  C   UNL     1      -2.351   9.963  16.335  0.00  0.00    +0.000 C 
ATOM     27  O   UNL     1      -1.541  10.394  17.429  0.00  0.00    +0.000 OA
ENDBRANCH  24  27
ENDBRANCH   1  24
TORSDOF 3
ENDMDL
