MODEL 1
REMARK VINA RESULT:      -7.7      0.000      0.000
REMARK  Name = 
REMARK  2 active torsions:
REMARK  status: ('A' for Active; 'I' for Inactive)
REMARK    1  A    between atoms: C_1  and  N_2
REMARK    2  A    between atoms: N_5  and  C_6
REMARK                            x       y       z     vdW  Elec       q    Type
REMARK                         _______ _______ _______ _____ _____    ______ ____
ROOT
ATOM      1  C   UNL     1       4.739   4.565  18.623  0.00  0.00    +0.000 C 
ATOM      2  O   UNL     1       5.412   3.652  19.511  0.00  0.00    +0.000 OA
ATOM      3  C   UNL     1       4.609   2.618  19.893  0.00  0.00    +0.000 C 
ATOM      4  O   UNL     1       4.932   1.672  20.586  0.00  0.00    +0.000 OA
ATOM      5  C   UNL     1       3.308   2.848  19.291  0.00  0.00    +0.000 A 
ATOM      6  C   UNL     1       2.182   2.047  19.345  0.00  0.00    +0.000 A 
ATOM      7  C   UNL     1       1.050   2.483  18.655  0.00  0.00    +0.000 A 
ATOM      8  C   UNL     1       1.073   3.698  17.946  0.00  0.00    +0.000 A 
ATOM      9  C   UNL     1       2.231   4.478  17.898  0.00  0.00    +0.000 A 
ATOM     10  C   UNL     1       3.355   4.023  18.570  0.00  0.00    +0.000 A 
ENDROOT
BRANCH   1  15
ATOM     11  C   UNL     1       7.849   8.272  17.607  0.00  0.00    +0.000 C 
ATOM     12  N   UNL     1       7.191   7.089  17.055  0.00  0.00    +0.000 NA
ATOM     13  C   UNL     1       5.725   7.241  17.093  0.00  0.00    +0.000 C 
ATOM     14  C   UNL     1       4.978   5.960  16.635  0.00  0.00    +0.000 C 
ATOM     15  N   UNL     1       5.377   4.708  17.311  0.00  0.00    +0.000 NA
ATOM     16  C   UNL     1       6.853   4.623  17.309  0.00  0.00    +0.000 C 
ATOM     17  C   UNL     1       7.602   5.884  17.794  0.00  0.00    +0.000 C 
ENDBRANCH   1  15
TORSDOF 1
ENDMDL
MODEL 2
REMARK VINA RESULT:      -7.3      2.184      5.220
REMARK  Name = 
REMARK  2 active torsions:
REMARK  status: ('A' for Active; 'I' for Inactive)
REMARK    1  A    between atoms: C_1  and  N_2
REMARK    2  A    between atoms: N_5  and  C_6
REMARK                            x       y       z     vdW  Elec       q    Type
REMARK                         _______ _______ _______ _____ _____    ______ ____
ROOT
ATOM      1  C   UNL     1       4.688   3.989  17.993  0.00  0.00    +0.000 C 
ATOM      2  O   UNL     1       5.747   4.277  18.926  0.00  0.00    +0.000 OA
ATOM      3  C   UNL     1       6.891   4.675  18.301  0.00  0.00    +0.000 C 
ATOM      4  O   UNL     1       7.919   5.038  18.840  0.00  0.00    +0.000 OA
ATOM      5  C   UNL     1       6.637   4.610  16.872  0.00  0.00    +0.000 A 
ATOM      6  C   UNL     1       7.476   4.967  15.833  0.00  0.00    +0.000 A 
ATOM      7  C   UNL     1       6.983   4.832  14.535  0.00  0.00    +0.000 A 
ATOM      8  C   UNL     1       5.683   4.342  14.314  0.00  0.00    +0.000 A 
ATOM      9  C   UNL     1       4.853   4.003  15.386  0.00  0.00    +0.000 A 
ATOM     10  C   UNL     1       5.348   4.162  16.671  0.00  0.00    +0.000 A 
ENDROOT
BRANCH   1  15
ATOM     11  C   UNL     1       1.202   2.842  21.307  0.00  0.00    +0.000 C 
ATOM     12  N   UNL     1       1.583   3.795  20.267  0.00  0.00    +0.000 NA
ATOM     13  C   UNL     1       1.726   3.118  18.964  0.00  0.00    +0.000 C 
ATOM     14  C   UNL     1       2.252   4.063  17.852  0.00  0.00    +0.000 C 
ATOM     15  N   UNL     1       3.486   4.809  18.175  0.00  0.00    +0.000 NA
ATOM     16  C   UNL     1       3.329   5.420  19.512  0.00  0.00    +0.000 C 
ATOM     17  C   UNL     1       2.836   4.477  20.631  0.00  0.00    +0.000 C 
ENDBRANCH   1  15
TORSDOF 1
ENDMDL
MODEL 3
REMARK VINA RESULT:      -7.1      2.095      3.100
REMARK  Name = 
REMARK  2 active torsions:
REMARK  status: ('A' for Active; 'I' for Inactive)
REMARK    1  A    between atoms: C_1  and  N_2
REMARK    2  A    between atoms: N_5  and  C_6
REMARK                            x       y       z     vdW  Elec       q    Type
REMARK                         _______ _______ _______ _____ _____    ______ ____
ROOT
ATOM      1  C   UNL     1       3.997   3.848  18.021  0.00  0.00    +0.000 C 
ATOM      2  O   UNL     1       2.946   4.161  17.087  0.00  0.00    +0.000 OA
ATOM      3  C   UNL     1       1.709   4.057  17.650  0.00  0.00    +0.000 C 
ATOM      4  O   UNL     1       0.648   4.321  17.116  0.00  0.00    +0.000 OA
ATOM      5  C   UNL     1       1.902   3.603  19.016  0.00  0.00    +0.000 A 
ATOM      6  C   UNL     1       0.950   3.402  19.998  0.00  0.00    +0.000 A 
ATOM      7  C   UNL     1       1.398   2.981  21.250  0.00  0.00    +0.000 A 
ATOM      8  C   UNL     1       2.769   2.766  21.481  0.00  0.00    +0.000 A 
ATOM      9  C   UNL     1       3.710   2.992  20.472  0.00  0.00    +0.000 A 
ATOM     10  C   UNL     1       3.253   3.431  19.239  0.00  0.00    +0.000 A 
ENDROOT
BRANCH   1  15
ATOM     11  C   UNL     1       7.193   5.305  14.540  0.00  0.00    +0.000 C 
ATOM     12  N   UNL     1       6.743   5.538  15.912  0.00  0.00    +0.000 NA
ATOM     13  C   UNL     1       6.929   4.328  16.735  0.00  0.00    +0.000 C 
ATOM     14  C   UNL     1       6.350   4.483  18.166  0.00  0.00    +0.000 C 
ATOM     15  N   UNL     1       4.948   4.942  18.245  0.00  0.00    +0.000 NA
ATOM     16  C   UNL     1       4.787   6.116  17.359  0.00  0.00    +0.000 C 
ATOM     17  C   UNL     1       5.333   5.956  15.924  0.00  0.00    +0.000 C 
ENDBRANCH   1  15
TORSDOF 1
ENDMDL
MODEL 4
REMARK VINA RESULT:      -7.1      1.986      2.461
REMARK  Name = 
REMARK  2 active torsions:
REMARK  status: ('A' for Active; 'I' for Inactive)
REMARK    1  A    between atoms: C_1  and  N_2
REMARK    2  A    between atoms: N_5  and  C_6
REMARK                            x       y       z     vdW  Elec       q    Type
REMARK                         _______ _______ _______ _____ _____    ______ ____
ROOT
ATOM      1  C   UNL     1       3.494   4.742  17.381  0.00  0.00    +0.000 C 
ATOM      2  O   UNL     1       3.469   6.046  17.992  0.00  0.00    +0.000 OA
ATOM      3  C   UNL     1       2.642   6.091  19.075  0.00  0.00    +0.000 C 
ATOM      4  O   UNL     1       2.475   7.041  19.816  0.00  0.00    +0.000 OA
ATOM      5  C   UNL     1       2.025   4.782  19.192  0.00  0.00    +0.000 A 
ATOM      6  C   UNL     1       1.154   4.325  20.164  0.00  0.00    +0.000 A 
ATOM      7  C   UNL     1       0.716   3.005  20.065  0.00  0.00    +0.000 A 
ATOM      8  C   UNL     1       1.149   2.188  19.004  0.00  0.00    +0.000 A 
ATOM      9  C   UNL     1       2.042   2.674  18.044  0.00  0.00    +0.000 A 
ATOM     10  C   UNL     1       2.486   3.982  18.167  0.00  0.00    +0.000 A 
ENDROOT
BRANCH   1  15
ATOM     11  C   UNL     1       7.652   7.409  17.589  0.00  0.00    +0.000 C 
ATOM     12  N   UNL     1       7.115   6.054  17.477  0.00  0.00    +0.000 NA
ATOM     13  C   UNL     1       6.293   5.917  16.259  0.00  0.00    +0.000 C 
ATOM     14  C   UNL     1       5.597   4.534  16.160  0.00  0.00    +0.000 C 
ATOM     15  N   UNL     1       4.821   4.119  17.347  0.00  0.00    +0.000 NA
ATOM     16  C   UNL     1       5.654   4.330  18.550  0.00  0.00    +0.000 C 
ATOM     17  C   UNL     1       6.324   5.716  18.671  0.00  0.00    +0.000 C 
ENDBRANCH   1  15
TORSDOF 1
ENDMDL
MODEL 5
REMARK VINA RESULT:      -6.9      1.164      1.167
REMARK  Name = 
REMARK  2 active torsions:
REMARK  status: ('A' for Active; 'I' for Inactive)
REMARK    1  A    between atoms: C_1  and  N_2
REMARK    2  A    between atoms: N_5  and  C_6
REMARK                            x       y       z     vdW  Elec       q    Type
REMARK                         _______ _______ _______ _____ _____    ______ ____
ROOT
ATOM      1  C   UNL     1       4.628   4.522  19.172  0.00  0.00    +0.000 C 
ATOM      2  O   UNL     1       5.410   3.375  19.556  0.00  0.00    +0.000 OA
ATOM      3  C   UNL     1       4.654   2.418  20.167  0.00  0.00    +0.000 C 
ATOM      4  O   UNL     1       5.036   1.325  20.538  0.00  0.00    +0.000 OA
ATOM      5  C   UNL     1       3.302   2.941  20.259  0.00  0.00    +0.000 A 
ATOM      6  C   UNL     1       2.171   2.318  20.751  0.00  0.00    +0.000 A 
ATOM      7  C   UNL     1       0.974   3.032  20.708  0.00  0.00    +0.000 A 
ATOM      8  C   UNL     1       0.943   4.338  20.187  0.00  0.00    +0.000 A 
ATOM      9  C   UNL     1       2.101   4.937  19.683  0.00  0.00    +0.000 A 
ATOM     10  C   UNL     1       3.279   4.208  19.713  0.00  0.00    +0.000 A 
ENDROOT
BRANCH   1  15
ATOM     11  C   UNL     1       7.695   7.856  17.189  0.00  0.00    +0.000 C 
ATOM     12  N   UNL     1       6.628   6.902  16.895  0.00  0.00    +0.000 NA
ATOM     13  C   UNL     1       5.394   7.258  17.620  0.00  0.00    +0.000 C 
ATOM     14  C   UNL     1       4.269   6.205  17.440  0.00  0.00    +0.000 C 
ATOM     15  N   UNL     1       4.645   4.806  17.733  0.00  0.00    +0.000 NA
ATOM     16  C   UNL     1       5.917   4.508  17.040  0.00  0.00    +0.000 C 
ATOM     17  C   UNL     1       7.052   5.536  17.242  0.00  0.00    +0.000 C 
ENDBRANCH   1  15
TORSDOF 1
ENDMDL
MODEL 6
REMARK VINA RESULT:      -6.7      2.626      5.740
REMARK  Name = 
REMARK  2 active torsions:
REMARK  status: ('A' for Active; 'I' for Inactive)
REMARK    1  A    between atoms: C_1  and  N_2
REMARK    2  A    between atoms: N_5  and  C_6
REMARK                            x       y       z     vdW  Elec       q    Type
REMARK                         _______ _______ _______ _____ _____    ______ ____
ROOT
ATOM      1  C   UNL     1       3.940   4.318  18.062  0.00  0.00    +0.000 C 
ATOM      2  O   UNL     1       3.572   5.675  18.375  0.00  0.00    +0.000 OA
ATOM      3  C   UNL     1       4.042   6.563  17.453  0.00  0.00    +0.000 C 
ATOM      4  O   UNL     1       3.832   7.760  17.431  0.00  0.00    +0.000 OA
ATOM      5  C   UNL     1       4.813   5.800  16.487  0.00  0.00    +0.000 A 
ATOM      6  C   UNL     1       5.441   6.250  15.340  0.00  0.00    +0.000 A 
ATOM      7  C   UNL     1       6.106   5.306  14.559  0.00  0.00    +0.000 A 
ATOM      8  C   UNL     1       6.132   3.953  14.945  0.00  0.00    +0.000 A 
ATOM      9  C   UNL     1       5.475   3.526  16.102  0.00  0.00    +0.000 A 
ATOM     10  C   UNL     1       4.800   4.472  16.858  0.00  0.00    +0.000 A 
ENDROOT
BRANCH   1  15
ATOM     11  C   UNL     1       1.278   2.614  21.865  0.00  0.00    +0.000 C 
ATOM     12  N   UNL     1       1.434   2.574  20.411  0.00  0.00    +0.000 NA
ATOM     13  C   UNL     1       2.760   2.046  20.042  0.00  0.00    +0.000 C 
ATOM     14  C   UNL     1       3.022   2.102  18.514  0.00  0.00    +0.000 C 
ATOM     15  N   UNL     1       2.801   3.414  17.872  0.00  0.00    +0.000 NA
ATOM     16  C   UNL     1       1.492   3.939  18.316  0.00  0.00    +0.000 C 
ATOM     17  C   UNL     1       1.237   3.916  19.839  0.00  0.00    +0.000 C 
ENDBRANCH   1  15
TORSDOF 1
ENDMDL
MODEL 7
REMARK VINA RESULT:      -6.6      2.325      5.851
REMARK  Name = 
REMARK  2 active torsions:
REMARK  status: ('A' for Active; 'I' for Inactive)
REMARK    1  A    between atoms: C_1  and  N_2
REMARK    2  A    between atoms: N_5  and  C_6
REMARK                            x       y       z     vdW  Elec       q    Type
REMARK                         _______ _______ _______ _____ _____    ______ ____
ROOT
ATOM      1  C   UNL     1       4.214   5.087  18.004  0.00  0.00    +0.000 C 
ATOM      2  O   UNL     1       3.962   5.719  16.735  0.00  0.00    +0.000 OA
ATOM      3  C   UNL     1       5.034   6.437  16.294  0.00  0.00    +0.000 C 
ATOM      4  O   UNL     1       5.125   7.020  15.231  0.00  0.00    +0.000 OA
ATOM      5  C   UNL     1       6.056   6.345  17.322  0.00  0.00    +0.000 A 
ATOM      6  C   UNL     1       7.338   6.863  17.309  0.00  0.00    +0.000 A 
ATOM      7  C   UNL     1       8.143   6.614  18.421  0.00  0.00    +0.000 A 
ATOM      8  C   UNL     1       7.646   5.871  19.507  0.00  0.00    +0.000 A 
ATOM      9  C   UNL     1       6.350   5.347  19.485  0.00  0.00    +0.000 A 
ATOM     10  C   UNL     1       5.569   5.584  18.364  0.00  0.00    +0.000 A 
ENDROOT
BRANCH   1  15
ATOM     11  C   UNL     1       1.087   2.652  20.961  0.00  0.00    +0.000 C 
ATOM     12  N   UNL     1       2.109   2.495  19.927  0.00  0.00    +0.000 NA
ATOM     13  C   UNL     1       3.400   3.046  20.381  0.00  0.00    +0.000 C 
ATOM     14  C   UNL     1       4.485   3.018  19.272  0.00  0.00    +0.000 C 
ATOM     15  N   UNL     1       4.099   3.625  17.981  0.00  0.00    +0.000 NA
ATOM     16  C   UNL     1       2.774   3.097  17.592  0.00  0.00    +0.000 C 
ATOM     17  C   UNL     1       1.681   3.151  18.681  0.00  0.00    +0.000 C 
ENDBRANCH   1  15
TORSDOF 1
ENDMDL
MODEL 8
REMARK VINA RESULT:      -6.6      1.667      2.449
REMARK  Name = 
REMARK  2 active torsions:
REMARK  status: ('A' for Active; 'I' for Inactive)
REMARK    1  A    between atoms: C_1  and  N_2
REMARK    2  A    between atoms: N_5  and  C_6
REMARK                            x       y       z     vdW  Elec       q    Type
REMARK                         _______ _______ _______ _____ _____    ______ ____
ROOT
ATOM      1  C   UNL     1       4.739   4.313  19.605  0.00  0.00    +0.000 C 
ATOM      2  O   UNL     1       5.065   3.060  18.975  0.00  0.00    +0.000 OA
ATOM      3  C   UNL     1       3.970   2.266  18.808  0.00  0.00    +0.000 C 
ATOM      4  O   UNL     1       3.940   1.185  18.251  0.00  0.00    +0.000 OA
ATOM      5  C   UNL     1       2.843   2.972  19.392  0.00  0.00    +0.000 A 
ATOM      6  C   UNL     1       1.513   2.595  19.420  0.00  0.00    +0.000 A 
ATOM      7  C   UNL     1       0.610   3.467  20.028  0.00  0.00    +0.000 A 
ATOM      8  C   UNL     1       1.058   4.675  20.593  0.00  0.00    +0.000 A 
ATOM      9  C   UNL     1       2.408   5.036  20.536  0.00  0.00    +0.000 A 
ATOM     10  C   UNL     1       3.290   4.169  19.910  0.00  0.00    +0.000 A 
ENDROOT
BRANCH   1  15
ATOM     11  C   UNL     1       6.501   3.946  15.000  0.00  0.00    +0.000 C 
ATOM     12  N   UNL     1       6.128   4.884  16.057  0.00  0.00    +0.000 NA
ATOM     13  C   UNL     1       6.947   4.663  17.265  0.00  0.00    +0.000 C 
ATOM     14  C   UNL     1       6.504   5.549  18.458  0.00  0.00    +0.000 C 
ATOM     15  N   UNL     1       5.067   5.495  18.801  0.00  0.00    +0.000 NA
ATOM     16  C   UNL     1       4.282   5.656  17.558  0.00  0.00    +0.000 C 
ATOM     17  C   UNL     1       4.697   4.754  16.376  0.00  0.00    +0.000 C 
ENDBRANCH   1  15
TORSDOF 1
ENDMDL
MODEL 9
REMARK VINA RESULT:      -6.5      2.220      2.962
REMARK  Name = 
REMARK  2 active torsions:
REMARK  status: ('A' for Active; 'I' for Inactive)
REMARK    1  A    between atoms: C_1  and  N_2
REMARK    2  A    between atoms: N_5  and  C_6
REMARK                            x       y       z     vdW  Elec       q    Type
REMARK                         _______ _______ _______ _____ _____    ______ ____
ROOT
ATOM      1  C   UNL     1       3.766   4.939  17.710  0.00  0.00    +0.000 C 
ATOM      2  O   UNL     1       3.618   6.249  18.291  0.00  0.00    +0.000 OA
ATOM      3  C   UNL     1       2.645   6.283  19.245  0.00  0.00    +0.000 C 
ATOM      4  O   UNL     1       2.348   7.237  19.940  0.00  0.00    +0.000 OA
ATOM      5  C   UNL     1       2.055   4.957  19.296  0.00  0.00    +0.000 A 
ATOM      6  C   UNL     1       1.069   4.486  20.143  0.00  0.00    +0.000 A 
ATOM      7  C   UNL     1       0.687   3.152  20.006  0.00  0.00    +0.000 A 
ATOM      8  C   UNL     1       1.289   2.336  19.030  0.00  0.00    +0.000 A 
ATOM      9  C   UNL     1       2.294   2.837  18.198  0.00  0.00    +0.000 A 
ATOM     10  C   UNL     1       2.679   4.159  18.360  0.00  0.00    +0.000 A 
ENDROOT
BRANCH   1  15
ATOM     11  C   UNL     1       7.185   5.168  14.145  0.00  0.00    +0.000 C 
ATOM     12  N   UNL     1       6.905   4.674  15.493  0.00  0.00    +0.000 NA
ATOM     13  C   UNL     1       5.773   3.729  15.478  0.00  0.00    +0.000 C 
ATOM     14  C   UNL     1       5.356   3.273  16.901  0.00  0.00    +0.000 C 
ATOM     15  N   UNL     1       5.102   4.357  17.874  0.00  0.00    +0.000 NA
ATOM     16  C   UNL     1       6.226   5.315  17.813  0.00  0.00    +0.000 C 
ATOM     17  C   UNL     1       6.625   5.797  16.401  0.00  0.00    +0.000 C 
ENDBRANCH   1  15
TORSDOF 1
ENDMDL
