MODEL 1
REMARK VINA RESULT:      -8.6      0.000      0.000
REMARK  Name = 
REMARK  6 active torsions:
REMARK  status: ('A' for Active; 'I' for Inactive)
REMARK    1  A    between atoms: C_1  and  S_2
REMARK    2  A    between atoms: S_2  and  C_5
REMARK    3  A    between atoms: C_5  and  C_6
REMARK    4  A    between atoms: C_6  and  C_7
REMARK    5  A    between atoms: C_7  and  C_8
REMARK    6  A    between atoms: C_12  and  C_13
REMARK                            x       y       z     vdW  Elec       q    Type
REMARK                         _______ _______ _______ _____ _____    ______ ____
ROOT
ATOM      1  C   UNL     1       2.279   7.694  18.511  0.00  0.00    +0.000 A 
ATOM      2  C   UNL     1       1.842   8.779  17.759  0.00  0.00    +0.000 A 
ATOM      3  N   UNL     1       1.163   9.860  18.262  0.00  0.00    +0.000 NA
ATOM      4  C   UNL     1       0.858   9.881  19.587  0.00  0.00    +0.000 A 
ATOM      5  C   UNL     1       1.252   8.828  20.403  0.00  0.00    +0.000 A 
ATOM      6  C   UNL     1       1.967   7.757  19.863  0.00  0.00    +0.000 A 
ATOM      7  C   UNL     1       1.047   8.809  21.881  0.00  0.00    +0.000 C 
ATOM      8  C   UNL     1      -0.107   9.655  22.342  0.00  0.00    +0.000 C 
ATOM      9  C   UNL     1      -0.375  10.896  21.514  0.00  0.00    +0.000 C 
ATOM     10  N   UNL     1       0.154  10.984  20.157  0.00  0.00    +0.000 N 
ATOM     11  C   UNL     1      -0.132  12.194  19.528  0.00  0.00    +0.000 C 
ATOM     12  N   UNL     1       0.355  12.370  18.272  0.00  0.00    +0.000 N 
ATOM     13  O   UNL     1      -0.765  13.099  20.065  0.00  0.00    +0.000 OA
ATOM     14  H   UNL     1       0.027  11.612  17.682  0.00  0.00    +0.000 HD
ATOM     15  H   UNL     1       1.351  12.192  18.260  0.00  0.00    +0.000 HD
ENDROOT
BRANCH   1  20
ATOM     16  C   UNL     1       3.156   4.168  17.419  0.00  0.00    +0.000 A 
ATOM     17  C   UNL     1       4.443   4.401  16.956  0.00  0.00    +0.000 A 
ATOM     18  N   UNL     1       5.045   5.612  16.984  0.00  0.00    +0.000 NA
ATOM     19  C   UNL     1       4.338   6.647  17.505  0.00  0.00    +0.000 A 
ATOM     20  C   UNL     1       3.046   6.543  18.009  0.00  0.00    +0.000 A 
ATOM     21  C   UNL     1       2.457   5.268  17.929  0.00  0.00    +0.000 A 
BRANCH  16  22
ATOM     22  C   UNL     1       2.549   2.790  17.432  0.00  0.00    +0.000 C 
BRANCH  22  23
ATOM     23  C   UNL     1       2.780   2.049  18.753  0.00  0.00    +0.000 C 
BRANCH  23  24
ATOM     24  C   UNL     1       1.639   2.245  19.751  0.00  0.00    +0.000 C 
BRANCH  24  26
ATOM     25  C   UNL     1       2.272   4.488  21.278  0.00  0.00    +0.000 C 
ATOM     26  S   UNL     1       2.253   2.711  21.356  0.00  0.00    +0.000 S 
ATOM     27  O   UNL     1       3.621   2.265  21.471  0.00  0.00    +0.000 OA
ATOM     28  O   UNL     1       1.252   2.332  22.344  0.00  0.00    +0.000 OA
ENDBRANCH  24  26
ENDBRANCH  23  24
ENDBRANCH  22  23
ENDBRANCH  16  22
ENDBRANCH   1  20
TORSDOF 5
ENDMDL
MODEL 2
REMARK VINA RESULT:      -8.4      2.972      3.769
REMARK  Name = 
REMARK  6 active torsions:
REMARK  status: ('A' for Active; 'I' for Inactive)
REMARK    1  A    between atoms: C_1  and  S_2
REMARK    2  A    between atoms: S_2  and  C_5
REMARK    3  A    between atoms: C_5  and  C_6
REMARK    4  A    between atoms: C_6  and  C_7
REMARK    5  A    between atoms: C_7  and  C_8
REMARK    6  A    between atoms: C_12  and  C_13
REMARK                            x       y       z     vdW  Elec       q    Type
REMARK                         _______ _______ _______ _____ _____    ______ ____
ROOT
ATOM      1  C   UNL     1       1.874   7.065  19.912  0.00  0.00    +0.000 A 
ATOM      2  C   UNL     1       2.003   7.978  18.869  0.00  0.00    +0.000 A 
ATOM      3  N   UNL     1       1.644   9.301  18.935  0.00  0.00    +0.000 NA
ATOM      4  C   UNL     1       1.093   9.771  20.085  0.00  0.00    +0.000 A 
ATOM      5  C   UNL     1       0.922   8.919  21.169  0.00  0.00    +0.000 A 
ATOM      6  C   UNL     1       1.325   7.584  21.077  0.00  0.00    +0.000 A 
ATOM      7  C   UNL     1       0.416   9.366  22.500  0.00  0.00    +0.000 C 
ATOM      8  C   UNL     1      -0.449  10.594  22.435  0.00  0.00    +0.000 C 
ATOM      9  C   UNL     1      -0.096  11.582  21.340  0.00  0.00    +0.000 C 
ATOM     10  N   UNL     1       0.704  11.140  20.203  0.00  0.00    +0.000 N 
ATOM     11  C   UNL     1       0.988  12.158  19.295  0.00  0.00    +0.000 C 
ATOM     12  N   UNL     1       1.759  11.837  18.225  0.00  0.00    +0.000 N 
ATOM     13  O   UNL     1       0.604  13.315  19.441  0.00  0.00    +0.000 OA
ATOM     14  H   UNL     1       1.325  11.068  17.724  0.00  0.00    +0.000 HD
ATOM     15  H   UNL     1       2.613  11.391  18.534  0.00  0.00    +0.000 HD
ENDROOT
BRANCH   1  20
ATOM     16  C   UNL     1       3.323   3.775  18.702  0.00  0.00    +0.000 A 
ATOM     17  C   UNL     1       3.181   3.036  19.868  0.00  0.00    +0.000 A 
ATOM     18  N   UNL     1       2.641   3.526  21.007  0.00  0.00    +0.000 NA
ATOM     19  C   UNL     1       2.212   4.813  20.990  0.00  0.00    +0.000 A 
ATOM     20  C   UNL     1       2.289   5.655  19.885  0.00  0.00    +0.000 A 
ATOM     21  C   UNL     1       2.885   5.104  18.735  0.00  0.00    +0.000 A 
BRANCH  16  22
ATOM     22  C   UNL     1       3.866   3.170  17.435  0.00  0.00    +0.000 C 
BRANCH  22  23
ATOM     23  C   UNL     1       4.481   4.210  16.493  0.00  0.00    +0.000 C 
BRANCH  23  24
ATOM     24  C   UNL     1       5.813   3.758  15.896  0.00  0.00    +0.000 C 
BRANCH  24  26
ATOM     25  C   UNL     1       6.238   6.264  17.036  0.00  0.00    +0.000 C 
ATOM     26  S   UNL     1       7.101   4.947  16.206  0.00  0.00    +0.000 S 
ATOM     27  O   UNL     1       7.566   5.461  14.940  0.00  0.00    +0.000 OA
ATOM     28  O   UNL     1       8.027   4.363  17.167  0.00  0.00    +0.000 OA
ENDBRANCH  24  26
ENDBRANCH  23  24
ENDBRANCH  22  23
ENDBRANCH  16  22
ENDBRANCH   1  20
TORSDOF 5
ENDMDL
MODEL 3
REMARK VINA RESULT:      -8.2      1.630      1.790
REMARK  Name = 
REMARK  6 active torsions:
REMARK  status: ('A' for Active; 'I' for Inactive)
REMARK    1  A    between atoms: C_1  and  S_2
REMARK    2  A    between atoms: S_2  and  C_5
REMARK    3  A    between atoms: C_5  and  C_6
REMARK    4  A    between atoms: C_6  and  C_7
REMARK    5  A    between atoms: C_7  and  C_8
REMARK    6  A    between atoms: C_12  and  C_13
REMARK                            x       y       z     vdW  Elec       q    Type
REMARK                         _______ _______ _______ _____ _____    ______ ____
ROOT
ATOM      1  C   UNL     1       2.576   7.791  18.554  0.00  0.00    +0.000 A 
ATOM      2  C   UNL     1       2.052   8.805  17.758  0.00  0.00    +0.000 A 
ATOM      3  N   UNL     1       1.200   9.787  18.198  0.00  0.00    +0.000 NA
ATOM      4  C   UNL     1       0.801   9.771  19.497  0.00  0.00    +0.000 A 
ATOM      5  C   UNL     1       1.273   8.784  20.354  0.00  0.00    +0.000 A 
ATOM      6  C   UNL     1       2.162   7.816  19.879  0.00  0.00    +0.000 A 
ATOM      7  C   UNL     1       0.968   8.742  21.813  0.00  0.00    +0.000 C 
ATOM      8  C   UNL     1      -0.320   9.427  22.181  0.00  0.00    +0.000 C 
ATOM      9  C   UNL     1      -0.692  10.618  21.319  0.00  0.00    +0.000 C 
ATOM     10  N   UNL     1      -0.084  10.772  20.002  0.00  0.00    +0.000 N 
ATOM     11  C   UNL     1      -0.484  11.929  19.338  0.00  0.00    +0.000 C 
ATOM     12  N   UNL     1       0.064  12.164  18.118  0.00  0.00    +0.000 N 
ATOM     13  O   UNL     1      -1.269  12.742  19.817  0.00  0.00    +0.000 OA
ATOM     14  H   UNL     1      -0.116  11.367  17.516  0.00  0.00    +0.000 HD
ATOM     15  H   UNL     1       1.073  12.122  18.178  0.00  0.00    +0.000 HD
ENDROOT
BRANCH   1  20
ATOM     16  C   UNL     1       4.587   4.575  18.483  0.00  0.00    +0.000 A 
ATOM     17  C   UNL     1       5.217   4.743  17.258  0.00  0.00    +0.000 A 
ATOM     18  N   UNL     1       5.043   5.824  16.466  0.00  0.00    +0.000 NA
ATOM     19  C   UNL     1       4.208   6.796  16.912  0.00  0.00    +0.000 A 
ATOM     20  C   UNL     1       3.524   6.753  18.122  0.00  0.00    +0.000 A 
ATOM     21  C   UNL     1       3.719   5.593  18.895  0.00  0.00    +0.000 A 
BRANCH  16  22
ATOM     22  C   UNL     1       4.861   3.387  19.367  0.00  0.00    +0.000 C 
BRANCH  22  23
ATOM     23  C   UNL     1       3.588   2.638  19.772  0.00  0.00    +0.000 C 
BRANCH  23  24
ATOM     24  C   UNL     1       2.779   2.148  18.572  0.00  0.00    +0.000 C 
BRANCH  24  26
ATOM     25  C   UNL     1       1.049   3.700  20.107  0.00  0.00    +0.000 C 
ATOM     26  S   UNL     1       1.171   2.911  18.517  0.00  0.00    +0.000 S 
ATOM     27  O   UNL     1       0.171   1.871  18.468  0.00  0.00    +0.000 OA
ATOM     28  O   UNL     1       1.211   3.965  17.513  0.00  0.00    +0.000 OA
ENDBRANCH  24  26
ENDBRANCH  23  24
ENDBRANCH  22  23
ENDBRANCH  16  22
ENDBRANCH   1  20
TORSDOF 5
ENDMDL
MODEL 4
REMARK VINA RESULT:      -8.1      1.816      2.556
REMARK  Name = 
REMARK  6 active torsions:
REMARK  status: ('A' for Active; 'I' for Inactive)
REMARK    1  A    between atoms: C_1  and  S_2
REMARK    2  A    between atoms: S_2  and  C_5
REMARK    3  A    between atoms: C_5  and  C_6
REMARK    4  A    between atoms: C_6  and  C_7
REMARK    5  A    between atoms: C_7  and  C_8
REMARK    6  A    between atoms: C_12  and  C_13
REMARK                            x       y       z     vdW  Elec       q    Type
REMARK                         _______ _______ _______ _____ _____    ______ ____
ROOT
ATOM      1  C   UNL     1       2.067   7.815  19.268  0.00  0.00    +0.000 A 
ATOM      2  C   UNL     1       1.800   7.693  20.629  0.00  0.00    +0.000 A 
ATOM      3  N   UNL     1       1.084   8.598  21.372  0.00  0.00    +0.000 NA
ATOM      4  C   UNL     1       0.616   9.719  20.762  0.00  0.00    +0.000 A 
ATOM      5  C   UNL     1       0.850   9.918  19.407  0.00  0.00    +0.000 A 
ATOM      6  C   UNL     1       1.557   8.962  18.674  0.00  0.00    +0.000 A 
ATOM      7  C   UNL     1       0.294  11.066  18.634  0.00  0.00    +0.000 C 
ATOM      8  C   UNL     1       0.002  12.277  19.476  0.00  0.00    +0.000 C 
ATOM      9  C   UNL     1      -0.429  11.989  20.901  0.00  0.00    +0.000 C 
ATOM     10  N   UNL     1      -0.135  10.688  21.493  0.00  0.00    +0.000 N 
ATOM     11  C   UNL     1      -0.623  10.546  22.790  0.00  0.00    +0.000 C 
ATOM     12  N   UNL     1      -0.422   9.350  23.401  0.00  0.00    +0.000 N 
ATOM     13  O   UNL     1      -1.244  11.429  23.376  0.00  0.00    +0.000 OA
ATOM     14  H   UNL     1       0.573   9.145  23.405  0.00  0.00    +0.000 HD
ATOM     15  H   UNL     1      -0.759   8.600  22.812  0.00  0.00    +0.000 HD
ENDROOT
BRANCH   1  20
ATOM     16  C   UNL     1       2.976   4.591  17.488  0.00  0.00    +0.000 A 
ATOM     17  C   UNL     1       4.082   5.040  16.782  0.00  0.00    +0.000 A 
ATOM     18  N   UNL     1       4.556   6.305  16.851  0.00  0.00    +0.000 NA
ATOM     19  C   UNL     1       3.905   7.170  17.670  0.00  0.00    +0.000 A 
ATOM     20  C   UNL     1       2.792   6.842  18.437  0.00  0.00    +0.000 A 
ATOM     21  C   UNL     1       2.323   5.522  18.305  0.00  0.00    +0.000 A 
BRANCH  16  22
ATOM     22  C   UNL     1       2.523   3.156  17.434  0.00  0.00    +0.000 C 
BRANCH  22  23
ATOM     23  C   UNL     1       3.679   2.159  17.573  0.00  0.00    +0.000 C 
BRANCH  23  24
ATOM     24  C   UNL     1       3.665   1.416  18.908  0.00  0.00    +0.000 C 
BRANCH  24  26
ATOM     25  C   UNL     1       3.025   3.090  21.042  0.00  0.00    +0.000 C 
ATOM     26  S   UNL     1       4.423   2.382  20.197  0.00  0.00    +0.000 S 
ATOM     27  O   UNL     1       5.157   3.465  19.588  0.00  0.00    +0.000 OA
ATOM     28  O   UNL     1       5.068   1.463  21.125  0.00  0.00    +0.000 OA
ENDBRANCH  24  26
ENDBRANCH  23  24
ENDBRANCH  22  23
ENDBRANCH  16  22
ENDBRANCH   1  20
TORSDOF 5
ENDMDL
MODEL 5
REMARK VINA RESULT:      -8.1      3.437      4.618
REMARK  Name = 
REMARK  6 active torsions:
REMARK  status: ('A' for Active; 'I' for Inactive)
REMARK    1  A    between atoms: C_1  and  S_2
REMARK    2  A    between atoms: S_2  and  C_5
REMARK    3  A    between atoms: C_5  and  C_6
REMARK    4  A    between atoms: C_6  and  C_7
REMARK    5  A    between atoms: C_7  and  C_8
REMARK    6  A    between atoms: C_12  and  C_13
REMARK                            x       y       z     vdW  Elec       q    Type
REMARK                         _______ _______ _______ _____ _____    ______ ____
ROOT
ATOM      1  C   UNL     1       2.133   7.281  19.585  0.00  0.00    +0.000 A 
ATOM      2  C   UNL     1       1.757   7.281  20.924  0.00  0.00    +0.000 A 
ATOM      3  N   UNL     1       1.095   8.306  21.553  0.00  0.00    +0.000 NA
ATOM      4  C   UNL     1       0.800   9.426  20.842  0.00  0.00    +0.000 A 
ATOM      5  C   UNL     1       1.152   9.506  19.500  0.00  0.00    +0.000 A 
ATOM      6  C   UNL     1       1.799   8.432  18.884  0.00  0.00    +0.000 A 
ATOM      7  C   UNL     1       0.785  10.651  18.617  0.00  0.00    +0.000 C 
ATOM      8  C   UNL     1       0.570  11.941  19.360  0.00  0.00    +0.000 C 
ATOM      9  C   UNL     1       0.008  11.799  20.761  0.00  0.00    +0.000 C 
ATOM     10  N   UNL     1       0.111  10.518  21.451  0.00  0.00    +0.000 N 
ATOM     11  C   UNL     1      -0.482  10.518  22.712  0.00  0.00    +0.000 C 
ATOM     12  N   UNL     1      -0.460   9.352  23.407  0.00  0.00    +0.000 N 
ATOM     13  O   UNL     1      -1.041  11.500  23.192  0.00  0.00    +0.000 OA
ATOM     14  H   UNL     1       0.502   9.043  23.502  0.00  0.00    +0.000 HD
ATOM     15  H   UNL     1      -0.835   8.604  22.840  0.00  0.00    +0.000 HD
ENDROOT
BRANCH   1  20
ATOM     16  C   UNL     1       4.813   4.844  18.457  0.00  0.00    +0.000 A 
ATOM     17  C   UNL     1       4.040   4.043  17.629  0.00  0.00    +0.000 A 
ATOM     18  N   UNL     1       2.722   4.245  17.405  0.00  0.00    +0.000 NA
ATOM     19  C   UNL     1       2.138   5.300  18.027  0.00  0.00    +0.000 A 
ATOM     20  C   UNL     1       2.803   6.181  18.873  0.00  0.00    +0.000 A 
ATOM     21  C   UNL     1       4.166   5.909  19.094  0.00  0.00    +0.000 A 
BRANCH  16  22
ATOM     22  C   UNL     1       6.294   4.626  18.625  0.00  0.00    +0.000 C 
BRANCH  22  23
ATOM     23  C   UNL     1       7.120   5.231  17.485  0.00  0.00    +0.000 C 
BRANCH  23  24
ATOM     24  C   UNL     1       7.220   4.309  16.270  0.00  0.00    +0.000 C 
BRANCH  24  26
ATOM     25  C   UNL     1       5.992   3.818  13.818  0.00  0.00    +0.000 C 
ATOM     26  S   UNL     1       6.698   5.136  14.783  0.00  0.00    +0.000 S 
ATOM     27  O   UNL     1       7.870   5.608  14.084  0.00  0.00    +0.000 OA
ATOM     28  O   UNL     1       5.614   6.044  15.133  0.00  0.00    +0.000 OA
ENDBRANCH  24  26
ENDBRANCH  23  24
ENDBRANCH  22  23
ENDBRANCH  16  22
ENDBRANCH   1  20
TORSDOF 5
ENDMDL
MODEL 6
REMARK VINA RESULT:      -8.0      3.246      4.150
REMARK  Name = 
REMARK  6 active torsions:
REMARK  status: ('A' for Active; 'I' for Inactive)
REMARK    1  A    between atoms: C_1  and  S_2
REMARK    2  A    between atoms: S_2  and  C_5
REMARK    3  A    between atoms: C_5  and  C_6
REMARK    4  A    between atoms: C_6  and  C_7
REMARK    5  A    between atoms: C_7  and  C_8
REMARK    6  A    between atoms: C_12  and  C_13
REMARK                            x       y       z     vdW  Elec       q    Type
REMARK                         _______ _______ _______ _____ _____    ______ ____
ROOT
ATOM      1  C   UNL     1       1.826   7.411  19.934  0.00  0.00    +0.000 A 
ATOM      2  C   UNL     1       1.864   8.350  18.908  0.00  0.00    +0.000 A 
ATOM      3  N   UNL     1       1.417   9.643  19.011  0.00  0.00    +0.000 NA
ATOM      4  C   UNL     1       0.867  10.052  20.185  0.00  0.00    +0.000 A 
ATOM      5  C   UNL     1       0.784   9.169  21.255  0.00  0.00    +0.000 A 
ATOM      6  C   UNL     1       1.275   7.867  21.124  0.00  0.00    +0.000 A 
ATOM      7  C   UNL     1       0.286   9.554  22.607  0.00  0.00    +0.000 C 
ATOM      8  C   UNL     1      -0.664  10.720  22.591  0.00  0.00    +0.000 C 
ATOM      9  C   UNL     1      -0.409  11.751  21.508  0.00  0.00    +0.000 C 
ATOM     10  N   UNL     1       0.388  11.388  20.342  0.00  0.00    +0.000 N 
ATOM     11  C   UNL     1       0.577  12.441  19.449  0.00  0.00    +0.000 C 
ATOM     12  N   UNL     1       1.339  12.195  18.352  0.00  0.00    +0.000 N 
ATOM     13  O   UNL     1       0.118  13.566  19.629  0.00  0.00    +0.000 OA
ATOM     14  H   UNL     1       0.944  11.408  17.846  0.00  0.00    +0.000 HD
ATOM     15  H   UNL     1       2.229  11.803  18.630  0.00  0.00    +0.000 HD
ENDROOT
BRANCH   1  20
ATOM     16  C   UNL     1       3.762   4.354  18.792  0.00  0.00    +0.000 A 
ATOM     17  C   UNL     1       3.393   3.477  19.802  0.00  0.00    +0.000 A 
ATOM     18  N   UNL     1       2.558   3.804  20.814  0.00  0.00    +0.000 NA
ATOM     19  C   UNL     1       2.053   5.064  20.823  0.00  0.00    +0.000 A 
ATOM     20  C   UNL     1       2.337   6.033  19.866  0.00  0.00    +0.000 A 
ATOM     21  C   UNL     1       3.234   5.649  18.852  0.00  0.00    +0.000 A 
BRANCH  16  22
ATOM     22  C   UNL     1       4.641   3.928  17.646  0.00  0.00    +0.000 C 
BRANCH  22  23
ATOM     23  C   UNL     1       5.876   4.819  17.478  0.00  0.00    +0.000 C 
BRANCH  23  24
ATOM     24  C   UNL     1       6.856   4.285  16.434  0.00  0.00    +0.000 C 
BRANCH  24  26
ATOM     25  C   UNL     1       6.131   3.855  13.778  0.00  0.00    +0.000 C 
ATOM     26  S   UNL     1       6.679   5.139  14.881  0.00  0.00    +0.000 S 
ATOM     27  O   UNL     1       7.986   5.564  14.440  0.00  0.00    +0.000 OA
ATOM     28  O   UNL     1       5.584   6.090  15.017  0.00  0.00    +0.000 OA
ENDBRANCH  24  26
ENDBRANCH  23  24
ENDBRANCH  22  23
ENDBRANCH  16  22
ENDBRANCH   1  20
TORSDOF 5
ENDMDL
MODEL 7
REMARK VINA RESULT:      -7.9      1.461      2.272
REMARK  Name = 
REMARK  6 active torsions:
REMARK  status: ('A' for Active; 'I' for Inactive)
REMARK    1  A    between atoms: C_1  and  S_2
REMARK    2  A    between atoms: S_2  and  C_5
REMARK    3  A    between atoms: C_5  and  C_6
REMARK    4  A    between atoms: C_6  and  C_7
REMARK    5  A    between atoms: C_7  and  C_8
REMARK    6  A    between atoms: C_12  and  C_13
REMARK                            x       y       z     vdW  Elec       q    Type
REMARK                         _______ _______ _______ _____ _____    ______ ____
ROOT
ATOM      1  C   UNL     1       2.126   7.741  19.158  0.00  0.00    +0.000 A 
ATOM      2  C   UNL     1       1.850   7.623  20.517  0.00  0.00    +0.000 A 
ATOM      3  N   UNL     1       1.085   8.501  21.242  0.00  0.00    +0.000 NA
ATOM      4  C   UNL     1       0.570   9.591  20.613  0.00  0.00    +0.000 A 
ATOM      5  C   UNL     1       0.810   9.785  19.258  0.00  0.00    +0.000 A 
ATOM      6  C   UNL     1       1.570   8.855  18.544  0.00  0.00    +0.000 A 
ATOM      7  C   UNL     1       0.209  10.896  18.465  0.00  0.00    +0.000 C 
ATOM      8  C   UNL     1      -0.149  12.102  19.289  0.00  0.00    +0.000 C 
ATOM      9  C   UNL     1      -0.582  11.811  20.713  0.00  0.00    +0.000 C 
ATOM     10  N   UNL     1      -0.233  10.533  21.324  0.00  0.00    +0.000 N 
ATOM     11  C   UNL     1      -0.728  10.384  22.618  0.00  0.00    +0.000 C 
ATOM     12  N   UNL     1      -0.477   9.206  23.245  0.00  0.00    +0.000 N 
ATOM     13  O   UNL     1      -1.396  11.243  23.186  0.00  0.00    +0.000 OA
ATOM     14  H   UNL     1       0.526   9.048  23.262  0.00  0.00    +0.000 HD
ATOM     15  H   UNL     1      -0.772   8.434  22.663  0.00  0.00    +0.000 HD
ENDROOT
BRANCH   1  20
ATOM     16  C   UNL     1       3.176   4.559  17.379  0.00  0.00    +0.000 A 
ATOM     17  C   UNL     1       4.301   5.040  16.726  0.00  0.00    +0.000 A 
ATOM     18  N   UNL     1       4.745   6.312  16.831  0.00  0.00    +0.000 NA
ATOM     19  C   UNL     1       4.043   7.153  17.632  0.00  0.00    +0.000 A 
ATOM     20  C   UNL     1       2.905   6.793  18.346  0.00  0.00    +0.000 A 
ATOM     21  C   UNL     1       2.470   5.466  18.178  0.00  0.00    +0.000 A 
BRANCH  16  22
ATOM     22  C   UNL     1       2.755   3.116  17.289  0.00  0.00    +0.000 C 
BRANCH  22  23
ATOM     23  C   UNL     1       1.573   2.780  18.205  0.00  0.00    +0.000 C 
BRANCH  23  24
ATOM     24  C   UNL     1       1.975   1.916  19.400  0.00  0.00    +0.000 C 
BRANCH  24  26
ATOM     25  C   UNL     1       0.918   4.151  20.684  0.00  0.00    +0.000 C 
ATOM     26  S   UNL     1       2.165   2.896  20.874  0.00  0.00    +0.000 S 
ATOM     27  O   UNL     1       3.451   3.549  20.829  0.00  0.00    +0.000 OA
ATOM     28  O   UNL     1       1.778   2.071  22.011  0.00  0.00    +0.000 OA
ENDBRANCH  24  26
ENDBRANCH  23  24
ENDBRANCH  22  23
ENDBRANCH  16  22
ENDBRANCH   1  20
TORSDOF 5
ENDMDL
MODEL 8
REMARK VINA RESULT:      -7.9      2.442      3.295
REMARK  Name = 
REMARK  6 active torsions:
REMARK  status: ('A' for Active; 'I' for Inactive)
REMARK    1  A    between atoms: C_1  and  S_2
REMARK    2  A    between atoms: S_2  and  C_5
REMARK    3  A    between atoms: C_5  and  C_6
REMARK    4  A    between atoms: C_6  and  C_7
REMARK    5  A    between atoms: C_7  and  C_8
REMARK    6  A    between atoms: C_12  and  C_13
REMARK                            x       y       z     vdW  Elec       q    Type
REMARK                         _______ _______ _______ _____ _____    ______ ____
ROOT
ATOM      1  C   UNL     1       1.790   7.508  19.727  0.00  0.00    +0.000 A 
ATOM      2  C   UNL     1       1.790   8.495  18.746  0.00  0.00    +0.000 A 
ATOM      3  N   UNL     1       1.356   9.784  18.930  0.00  0.00    +0.000 NA
ATOM      4  C   UNL     1       0.857  10.138  20.145  0.00  0.00    +0.000 A 
ATOM      5  C   UNL     1       0.815   9.205  21.174  0.00  0.00    +0.000 A 
ATOM      6  C   UNL     1       1.292   7.909  20.960  0.00  0.00    +0.000 A 
ATOM      7  C   UNL     1       0.377   9.527  22.563  0.00  0.00    +0.000 C 
ATOM      8  C   UNL     1      -0.565  10.696  22.643  0.00  0.00    +0.000 C 
ATOM      9  C   UNL     1      -0.351  11.777  21.600  0.00  0.00    +0.000 C 
ATOM     10  N   UNL     1       0.395  11.467  20.385  0.00  0.00    +0.000 N 
ATOM     11  C   UNL     1       0.551  12.561  19.537  0.00  0.00    +0.000 C 
ATOM     12  N   UNL     1       1.265  12.364  18.398  0.00  0.00    +0.000 N 
ATOM     13  O   UNL     1       0.108  13.677  19.789  0.00  0.00    +0.000 OA
ATOM     14  H   UNL     1       0.844  11.604  17.872  0.00  0.00    +0.000 HD
ATOM     15  H   UNL     1       2.163  11.957  18.619  0.00  0.00    +0.000 HD
ENDROOT
BRANCH   1  20
ATOM     16  C   UNL     1       3.279   4.386  18.168  0.00  0.00    +0.000 A 
ATOM     17  C   UNL     1       3.339   3.588  19.302  0.00  0.00    +0.000 A 
ATOM     18  N   UNL     1       2.922   3.987  20.525  0.00  0.00    +0.000 NA
ATOM     19  C   UNL     1       2.412   5.240  20.632  0.00  0.00    +0.000 A 
ATOM     20  C   UNL     1       2.289   6.133  19.572  0.00  0.00    +0.000 A 
ATOM     21  C   UNL     1       2.764   5.678  18.328  0.00  0.00    +0.000 A 
BRANCH  16  22
ATOM     22  C   UNL     1       3.689   3.879  16.811  0.00  0.00    +0.000 C 
BRANCH  22  23
ATOM     23  C   UNL     1       5.174   4.111  16.511  0.00  0.00    +0.000 C 
BRANCH  23  24
ATOM     24  C   UNL     1       5.696   5.429  17.082  0.00  0.00    +0.000 C 
BRANCH  24  26
ATOM     25  C   UNL     1       7.829   6.804  18.232  0.00  0.00    +0.000 C 
ATOM     26  S   UNL     1       7.134   5.171  18.100  0.00  0.00    +0.000 S 
ATOM     27  O   UNL     1       8.074   4.355  17.368  0.00  0.00    +0.000 OA
ATOM     28  O   UNL     1       6.678   4.787  19.429  0.00  0.00    +0.000 OA
ENDBRANCH  24  26
ENDBRANCH  23  24
ENDBRANCH  22  23
ENDBRANCH  16  22
ENDBRANCH   1  20
TORSDOF 5
ENDMDL
MODEL 9
REMARK VINA RESULT:      -7.9      1.560      2.377
REMARK  Name = 
REMARK  6 active torsions:
REMARK  status: ('A' for Active; 'I' for Inactive)
REMARK    1  A    between atoms: C_1  and  S_2
REMARK    2  A    between atoms: S_2  and  C_5
REMARK    3  A    between atoms: C_5  and  C_6
REMARK    4  A    between atoms: C_6  and  C_7
REMARK    5  A    between atoms: C_7  and  C_8
REMARK    6  A    between atoms: C_12  and  C_13
REMARK                            x       y       z     vdW  Elec       q    Type
REMARK                         _______ _______ _______ _____ _____    ______ ____
ROOT
ATOM      1  C   UNL     1       2.074   7.829  19.354  0.00  0.00    +0.000 A 
ATOM      2  C   UNL     1       1.765   7.733  20.708  0.00  0.00    +0.000 A 
ATOM      3  N   UNL     1       1.060   8.670  21.420  0.00  0.00    +0.000 NA
ATOM      4  C   UNL     1       0.647   9.799  20.785  0.00  0.00    +0.000 A 
ATOM      5  C   UNL     1       0.925   9.973  19.435  0.00  0.00    +0.000 A 
ATOM      6  C   UNL     1       1.620   8.985  18.732  0.00  0.00    +0.000 A 
ATOM      7  C   UNL     1       0.430  11.130  18.633  0.00  0.00    +0.000 C 
ATOM      8  C   UNL     1       0.156  12.360  19.453  0.00  0.00    +0.000 C 
ATOM      9  C   UNL     1      -0.324  12.104  20.868  0.00  0.00    +0.000 C 
ATOM     10  N   UNL     1      -0.091  10.802  21.483  0.00  0.00    +0.000 N 
ATOM     11  C   UNL     1      -0.620  10.693  22.767  0.00  0.00    +0.000 C 
ATOM     12  N   UNL     1      -0.476   9.498  23.397  0.00  0.00    +0.000 N 
ATOM     13  O   UNL     1      -1.226  11.603  23.325  0.00  0.00    +0.000 OA
ATOM     14  H   UNL     1       0.510   9.260  23.431  0.00  0.00    +0.000 HD
ATOM     15  H   UNL     1      -0.821   8.752  22.807  0.00  0.00    +0.000 HD
ENDROOT
BRANCH   1  20
ATOM     16  C   UNL     1       2.840   4.622  17.480  0.00  0.00    +0.000 A 
ATOM     17  C   UNL     1       4.076   4.971  16.953  0.00  0.00    +0.000 A 
ATOM     18  N   UNL     1       4.677   6.162  17.172  0.00  0.00    +0.000 NA
ATOM     19  C   UNL     1       4.025   7.053  17.961  0.00  0.00    +0.000 A 
ATOM     20  C   UNL     1       2.788   6.822  18.555  0.00  0.00    +0.000 A 
ATOM     21  C   UNL     1       2.194   5.578  18.271  0.00  0.00    +0.000 A 
BRANCH  16  22
ATOM     22  C   UNL     1       2.238   3.258  17.267  0.00  0.00    +0.000 C 
BRANCH  22  23
ATOM     23  C   UNL     1       2.516   2.295  18.427  0.00  0.00    +0.000 C 
BRANCH  23  24
ATOM     24  C   UNL     1       1.534   2.463  19.586  0.00  0.00    +0.000 C 
BRANCH  24  26
ATOM     25  C   UNL     1       4.057   2.449  20.769  0.00  0.00    +0.000 C 
ATOM     26  S   UNL     1       2.374   2.932  21.085  0.00  0.00    +0.000 S 
ATOM     27  O   UNL     1       1.880   2.111  22.164  0.00  0.00    +0.000 OA
ATOM     28  O   UNL     1       2.351   4.386  21.173  0.00  0.00    +0.000 OA
ENDBRANCH  24  26
ENDBRANCH  23  24
ENDBRANCH  22  23
ENDBRANCH  16  22
ENDBRANCH   1  20
TORSDOF 5
ENDMDL
