MODEL 1
REMARK VINA RESULT:      -8.3      0.000      0.000
REMARK  Name = 
REMARK  9 active torsions:
REMARK  status: ('A' for Active; 'I' for Inactive)
REMARK    1  A    between atoms: N_5  and  C_6
REMARK    2  A    between atoms: C_6  and  CA_7
REMARK    3  A    between atoms: CA_7  and  C_8
REMARK    4  A    between atoms: CA_7  and  N_10
REMARK    5  A    between atoms: C_8  and  O_9
REMARK    6  A    between atoms: N_10  and  C_11
REMARK    7  A    between atoms: C_11  and  C_12
REMARK    8  A    between atoms: C_12  and  N_13
REMARK    9  A    between atoms: N_13  and  C_14
REMARK                            x       y       z     vdW  Elec       q    Type
REMARK                         _______ _______ _______ _____ _____    ______ ____
ROOT
ATOM      1  CA  UNL     1       3.552   3.414  19.111  0.00  0.00    +0.000 C 
ENDROOT
BRANCH   1   2
ATOM      2  N   UNL     1       3.121   3.207  20.511  0.00  0.00    +0.000 NA
ATOM      3  H   UNL     1       3.942   3.262  21.122  0.00  0.00    +0.000 HD
BRANCH   2   4
ATOM      4  C   UNL     1       2.050   4.090  20.979  0.00  0.00    +0.000 C 
BRANCH   4   5
ATOM      5  C   UNL     1       1.921   5.359  20.118  0.00  0.00    +0.000 C 
BRANCH   5   6
ATOM      6  N   UNL     1       2.081   6.580  20.906  0.00  0.00    +0.000 N 
ATOM      7  H   UNL     1       2.982   6.608  21.374  0.00  0.00    +0.000 HD
BRANCH   6   8
ATOM      8  C   UNL     1       1.809   7.797  20.226  0.00  0.00    +0.000 A 
ATOM      9  C   UNL     1       2.126   7.944  18.870  0.00  0.00    +0.000 A 
ATOM     10  C   UNL     1       1.786   9.109  18.214  0.00  0.00    +0.000 A 
ATOM     11  N   UNL     1       1.127  10.125  18.794  0.00  0.00    +0.000 NA
ATOM     12  C   UNL     1       0.764   9.987  20.074  0.00  0.00    +0.000 A 
ATOM     13  C   UNL     1       0.040  11.024  20.638  0.00  0.00    +0.000 A 
ATOM     14  C   UNL     1      -0.382  10.977  21.961  0.00  0.00    +0.000 A 
ATOM     15 CL   UNL     1      -1.297  12.276  22.618  0.00  0.00    +0.000 Cl
ATOM     16  C   UNL     1      -0.074   9.883  22.756  0.00  0.00    +0.000 A 
ATOM     17  C   UNL     1       0.647   8.822  22.207  0.00  0.00    +0.000 A 
ATOM     18  C   UNL     1       1.079   8.845  20.856  0.00  0.00    +0.000 A 
ENDBRANCH   6   8
ENDBRANCH   5   6
ENDBRANCH   4   5
ENDBRANCH   2   4
ENDBRANCH   1   2
BRANCH   1  19
ATOM     19  C   UNL     1       5.082   3.216  18.923  0.00  0.00    +0.000 C 
BRANCH  19  24
ATOM     20  O   UNL     1       7.957   6.995  17.957  0.00  0.00    +0.000 OA
ATOM     21  C   UNL     1       7.209   6.058  17.805  0.00  0.00    +0.000 C 
ATOM     22  C   UNL     1       6.489   5.261  18.908  0.00  0.00    +0.000 C 
ATOM     23  O   UNL     1       6.667   5.390  20.103  0.00  0.00    +0.000 OA
ATOM     24  N   UNL     1       5.723   4.319  18.239  0.00  0.00    +0.000 N 
ATOM     25  C   UNL     1       5.928   4.403  16.847  0.00  0.00    +0.000 A 
ATOM     26  C   UNL     1       5.408   3.619  15.835  0.00  0.00    +0.000 A 
ATOM     27  C   UNL     1       5.880   3.835  14.530  0.00  0.00    +0.000 A 
ATOM     28  C   UNL     1       6.844   4.830  14.266  0.00  0.00    +0.000 A 
ATOM     29 CL   UNL     1       7.465   5.004  12.672  0.00  0.00    +0.000 Cl
ATOM     30  C   UNL     1       7.325   5.653  15.279  0.00  0.00    +0.000 A 
ATOM     31  C   UNL     1       6.839   5.415  16.549  0.00  0.00    +0.000 A 
ENDBRANCH  19  24
ENDBRANCH   1  19
BRANCH   1  32
ATOM     32  C   UNL     1       2.699   2.501  18.199  0.00  0.00    +0.000 C 
BRANCH  32  33
ATOM     33  O   UNL     1       3.339   1.257  17.949  0.00  0.00    +0.000 OA
ATOM     34  H   UNL     1       2.763   0.553  18.313  0.00  0.00    +0.000 HD
ENDBRANCH  32  33
ENDBRANCH   1  32
TORSDOF 9
ENDMDL
MODEL 2
REMARK VINA RESULT:      -8.2      0.906      1.027
REMARK  Name = 
REMARK  9 active torsions:
REMARK  status: ('A' for Active; 'I' for Inactive)
REMARK    1  A    between atoms: N_5  and  C_6
REMARK    2  A    between atoms: C_6  and  CA_7
REMARK    3  A    between atoms: CA_7  and  C_8
REMARK    4  A    between atoms: CA_7  and  N_10
REMARK    5  A    between atoms: C_8  and  O_9
REMARK    6  A    between atoms: N_10  and  C_11
REMARK    7  A    between atoms: C_11  and  C_12
REMARK    8  A    between atoms: C_12  and  N_13
REMARK    9  A    between atoms: N_13  and  C_14
REMARK                            x       y       z     vdW  Elec       q    Type
REMARK                         _______ _______ _______ _____ _____    ______ ____
ROOT
ATOM      1  CA  UNL     1       3.158   3.657  18.783  0.00  0.00    +0.000 C 
ENDROOT
BRANCH   1   2
ATOM      2  N   UNL     1       2.609   3.258  20.098  0.00  0.00    +0.000 NA
ATOM      3  H   UNL     1       3.359   2.838  20.656  0.00  0.00    +0.000 HD
BRANCH   2   4
ATOM      4  C   UNL     1       1.920   4.315  20.843  0.00  0.00    +0.000 C 
BRANCH   4   5
ATOM      5  C   UNL     1       2.628   5.676  20.714  0.00  0.00    +0.000 C 
BRANCH   5   6
ATOM      6  N   UNL     1       1.695   6.796  20.816  0.00  0.00    +0.000 N 
ATOM      7  H   UNL     1       1.704   7.209  21.744  0.00  0.00    +0.000 HD
BRANCH   6   8
ATOM      8  C   UNL     1       1.803   7.787  19.803  0.00  0.00    +0.000 A 
ATOM      9  C   UNL     1       2.499   7.524  18.617  0.00  0.00    +0.000 A 
ATOM     10  C   UNL     1       2.529   8.477  17.620  0.00  0.00    +0.000 A 
ATOM     11  N   UNL     1       1.891   9.656  17.697  0.00  0.00    +0.000 NA
ATOM     12  C   UNL     1       1.172   9.908  18.797  0.00  0.00    +0.000 A 
ATOM     13  C   UNL     1       0.480  11.108  18.834  0.00  0.00    +0.000 A 
ATOM     14  C   UNL     1      -0.293  11.463  19.932  0.00  0.00    +0.000 A 
ATOM     15 CL   UNL     1      -1.154  12.952  19.931  0.00  0.00    +0.000 Cl
ATOM     16  C   UNL     1      -0.380  10.621  21.031  0.00  0.00    +0.000 A 
ATOM     17  C   UNL     1       0.301   9.403  21.011  0.00  0.00    +0.000 A 
ATOM     18  C   UNL     1       1.088   9.016  19.897  0.00  0.00    +0.000 A 
ENDBRANCH   6   8
ENDBRANCH   5   6
ENDBRANCH   4   5
ENDBRANCH   2   4
ENDBRANCH   1   2
BRANCH   1  19
ATOM     19  C   UNL     1       4.656   3.277  18.623  0.00  0.00    +0.000 C 
BRANCH  19  24
ATOM     20  O   UNL     1       7.964   6.777  18.082  0.00  0.00    +0.000 OA
ATOM     21  C   UNL     1       7.140   5.930  17.824  0.00  0.00    +0.000 C 
ATOM     22  C   UNL     1       6.256   5.163  18.824  0.00  0.00    +0.000 C 
ATOM     23  O   UNL     1       6.348   5.220  20.034  0.00  0.00    +0.000 OA
ATOM     24  N   UNL     1       5.457   4.337  18.049  0.00  0.00    +0.000 N 
ATOM     25  C   UNL     1       5.782   4.462  16.684  0.00  0.00    +0.000 A 
ATOM     26  C   UNL     1       5.271   3.782  15.594  0.00  0.00    +0.000 A 
ATOM     27  C   UNL     1       5.868   4.007  14.343  0.00  0.00    +0.000 A 
ATOM     28  C   UNL     1       6.944   4.906  14.207  0.00  0.00    +0.000 A 
ATOM     29 CL   UNL     1       7.708   5.086  12.676  0.00  0.00    +0.000 Cl
ATOM     30  C   UNL     1       7.422   5.629  15.295  0.00  0.00    +0.000 A 
ATOM     31  C   UNL     1       6.812   5.386  16.510  0.00  0.00    +0.000 A 
ENDBRANCH  19  24
ENDBRANCH   1  19
BRANCH   1  32
ATOM     32  C   UNL     1       2.253   3.063  17.678  0.00  0.00    +0.000 C 
BRANCH  32  33
ATOM     33  O   UNL     1       2.312   1.644  17.652  0.00  0.00    +0.000 OA
ATOM     34  H   UNL     1       2.727   1.383  16.804  0.00  0.00    +0.000 HD
ENDBRANCH  32  33
ENDBRANCH   1  32
TORSDOF 9
ENDMDL
MODEL 3
REMARK VINA RESULT:      -8.1      1.024      1.048
REMARK  Name = 
REMARK  9 active torsions:
REMARK  status: ('A' for Active; 'I' for Inactive)
REMARK    1  A    between atoms: N_5  and  C_6
REMARK    2  A    between atoms: C_6  and  CA_7
REMARK    3  A    between atoms: CA_7  and  C_8
REMARK    4  A    between atoms: CA_7  and  N_10
REMARK    5  A    between atoms: C_8  and  O_9
REMARK    6  A    between atoms: N_10  and  C_11
REMARK    7  A    between atoms: C_11  and  C_12
REMARK    8  A    between atoms: C_12  and  N_13
REMARK    9  A    between atoms: N_13  and  C_14
REMARK                            x       y       z     vdW  Elec       q    Type
REMARK                         _______ _______ _______ _____ _____    ______ ____
ROOT
ATOM      1  CA  UNL     1       2.558   3.195  18.084  0.00  0.00    +0.000 C 
ENDROOT
BRANCH   1   2
ATOM      2  N   UNL     1       2.107   4.466  18.694  0.00  0.00    +0.000 NA
ATOM      3  H   UNL     1       1.413   4.900  18.078  0.00  0.00    +0.000 HD
BRANCH   2   4
ATOM      4  C   UNL     1       1.609   4.365  20.068  0.00  0.00    +0.000 C 
BRANCH   4   5
ATOM      5  C   UNL     1       1.600   5.726  20.787  0.00  0.00    +0.000 C 
BRANCH   5   6
ATOM      6  N   UNL     1       2.568   6.660  20.214  0.00  0.00    +0.000 N 
ATOM      7  H   UNL     1       3.176   6.203  19.541  0.00  0.00    +0.000 HD
BRANCH   6   8
ATOM      8  C   UNL     1       2.031   7.869  19.695  0.00  0.00    +0.000 A 
ATOM      9  C   UNL     1       2.111   8.159  18.328  0.00  0.00    +0.000 A 
ATOM     10  C   UNL     1       1.519   9.304  17.839  0.00  0.00    +0.000 A 
ATOM     11  N   UNL     1       0.826  10.167  18.599  0.00  0.00    +0.000 NA
ATOM     12  C   UNL     1       0.687   9.885  19.900  0.00  0.00    +0.000 A 
ATOM     13  C   UNL     1      -0.075  10.760  20.655  0.00  0.00    +0.000 A 
ATOM     14  C   UNL     1      -0.277  10.556  22.014  0.00  0.00    +0.000 A 
ATOM     15 CL   UNL     1      -1.248  11.655  22.914  0.00  0.00    +0.000 Cl
ATOM     16  C   UNL     1       0.296   9.466  22.652  0.00  0.00    +0.000 A 
ATOM     17  C   UNL     1       1.061   8.565  21.909  0.00  0.00    +0.000 A 
ATOM     18  C   UNL     1       1.271   8.749  20.518  0.00  0.00    +0.000 A 
ENDBRANCH   6   8
ENDBRANCH   5   6
ENDBRANCH   4   5
ENDBRANCH   2   4
ENDBRANCH   1   2
BRANCH   1  19
ATOM     19  C   UNL     1       4.102   3.023  18.138  0.00  0.00    +0.000 C 
BRANCH  19  24
ATOM     20  O   UNL     1       6.872   6.997  18.031  0.00  0.00    +0.000 OA
ATOM     21  C   UNL     1       6.254   6.022  17.671  0.00  0.00    +0.000 C 
ATOM     22  C   UNL     1       5.324   5.147  18.530  0.00  0.00    +0.000 C 
ATOM     23  O   UNL     1       5.173   5.246  19.731  0.00  0.00    +0.000 OA
ATOM     24  N   UNL     1       4.825   4.185  17.666  0.00  0.00    +0.000 N 
ATOM     25  C   UNL     1       5.382   4.328  16.380  0.00  0.00    +0.000 A 
ATOM     26  C   UNL     1       5.199   3.549  15.253  0.00  0.00    +0.000 A 
ATOM     27  C   UNL     1       5.982   3.838  14.123  0.00  0.00    +0.000 A 
ATOM     28  C   UNL     1       6.913   4.896  14.140  0.00  0.00    +0.000 A 
ATOM     29 CL   UNL     1       7.918   5.160  12.770  0.00  0.00    +0.000 Cl
ATOM     30  C   UNL     1       7.056   5.712  15.258  0.00  0.00    +0.000 A 
ATOM     31  C   UNL     1       6.270   5.402  16.350  0.00  0.00    +0.000 A 
ENDBRANCH  19  24
ENDBRANCH   1  19
BRANCH   1  32
ATOM     32  C   UNL     1       1.787   2.033  18.753  0.00  0.00    +0.000 C 
BRANCH  32  33
ATOM     33  O   UNL     1       0.450   1.944  18.280  0.00  0.00    +0.000 OA
ATOM     34  H   UNL     1       0.216   2.815  17.895  0.00  0.00    +0.000 HD
ENDBRANCH  32  33
ENDBRANCH   1  32
TORSDOF 9
ENDMDL
MODEL 4
REMARK VINA RESULT:      -8.1      5.349      7.771
REMARK  Name = 
REMARK  9 active torsions:
REMARK  status: ('A' for Active; 'I' for Inactive)
REMARK    1  A    between atoms: N_5  and  C_6
REMARK    2  A    between atoms: C_6  and  CA_7
REMARK    3  A    between atoms: CA_7  and  C_8
REMARK    4  A    between atoms: CA_7  and  N_10
REMARK    5  A    between atoms: C_8  and  O_9
REMARK    6  A    between atoms: N_10  and  C_11
REMARK    7  A    between atoms: C_11  and  C_12
REMARK    8  A    between atoms: C_12  and  N_13
REMARK    9  A    between atoms: N_13  and  C_14
REMARK                            x       y       z     vdW  Elec       q    Type
REMARK                         _______ _______ _______ _____ _____    ______ ____
ROOT
ATOM      1  CA  UNL     1       6.277   6.307  17.577  0.00  0.00    +0.000 C 
ENDROOT
BRANCH   1   2
ATOM      2  N   UNL     1       6.794   7.562  16.987  0.00  0.00    +0.000 NA
ATOM      3  H   UNL     1       6.078   8.289  17.076  0.00  0.00    +0.000 HD
BRANCH   2   4
ATOM      4  C   UNL     1       8.085   8.020  17.506  0.00  0.00    +0.000 C 
BRANCH   4   5
ATOM      5  C   UNL     1       8.001   9.428  18.120  0.00  0.00    +0.000 C 
BRANCH   5   6
ATOM      6  N   UNL     1       9.054   9.665  19.106  0.00  0.00    +0.000 N 
ATOM      7  H   UNL     1       9.700   8.883  19.159  0.00  0.00    +0.000 HD
BRANCH   6   8
ATOM      8  C   UNL     1       9.743  10.903  18.993  0.00  0.00    +0.000 A 
ATOM      9  C   UNL     1      10.374  11.263  17.796  0.00  0.00    +0.000 A 
ATOM     10  C   UNL     1      10.974  12.500  17.689  0.00  0.00    +0.000 A 
ATOM     11  N   UNL     1      10.965  13.419  18.667  0.00  0.00    +0.000 NA
ATOM     12  C   UNL     1      10.320  13.121  19.801  0.00  0.00    +0.000 A 
ATOM     13  C   UNL     1      10.279  14.102  20.778  0.00  0.00    +0.000 A 
ATOM     14  C   UNL     1       9.636  13.890  21.990  0.00  0.00    +0.000 A 
ATOM     15 CL   UNL     1       9.589  15.141  23.169  0.00  0.00    +0.000 Cl
ATOM     16  C   UNL     1       9.025  12.673  22.256  0.00  0.00    +0.000 A 
ATOM     17  C   UNL     1       9.046  11.673  21.283  0.00  0.00    +0.000 A 
ATOM     18  C   UNL     1       9.688  11.873  20.034  0.00  0.00    +0.000 A 
ENDBRANCH   6   8
ENDBRANCH   5   6
ENDBRANCH   4   5
ENDBRANCH   2   4
ENDBRANCH   1   2
BRANCH   1  19
ATOM     19  C   UNL     1       4.876   5.922  17.026  0.00  0.00    +0.000 C 
BRANCH  19  24
ATOM     20  O   UNL     1       2.363   4.908  21.043  0.00  0.00    +0.000 OA
ATOM     21  C   UNL     1       2.743   5.469  20.041  0.00  0.00    +0.000 C 
ATOM     22  C   UNL     1       3.772   4.946  19.023  0.00  0.00    +0.000 C 
ATOM     23  O   UNL     1       4.440   3.939  19.149  0.00  0.00    +0.000 OA
ATOM     24  N   UNL     1       3.843   5.921  18.040  0.00  0.00    +0.000 N 
ATOM     25  C   UNL     1       3.016   7.016  18.359  0.00  0.00    +0.000 A 
ATOM     26  C   UNL     1       2.840   8.209  17.684  0.00  0.00    +0.000 A 
ATOM     27  C   UNL     1       2.046   9.195  18.292  0.00  0.00    +0.000 A 
ATOM     28  C   UNL     1       1.442   8.966  19.545  0.00  0.00    +0.000 A 
ATOM     29 CL   UNL     1       0.554  10.230  20.300  0.00  0.00    +0.000 Cl
ATOM     30  C   UNL     1       1.578   7.744  20.197  0.00  0.00    +0.000 A 
ATOM     31  C   UNL     1       2.362   6.796  19.571  0.00  0.00    +0.000 A 
ENDBRANCH  19  24
ENDBRANCH   1  19
BRANCH   1  32
ATOM     32  C   UNL     1       7.340   5.201  17.377  0.00  0.00    +0.000 C 
BRANCH  32  33
ATOM     33  O   UNL     1       7.193   4.150  18.321  0.00  0.00    +0.000 OA
ATOM     34  H   UNL     1       7.370   3.307  17.853  0.00  0.00    +0.000 HD
ENDBRANCH  32  33
ENDBRANCH   1  32
TORSDOF 9
ENDMDL
MODEL 5
REMARK VINA RESULT:      -7.9      1.232      1.440
REMARK  Name = 
REMARK  9 active torsions:
REMARK  status: ('A' for Active; 'I' for Inactive)
REMARK    1  A    between atoms: N_5  and  C_6
REMARK    2  A    between atoms: C_6  and  CA_7
REMARK    3  A    between atoms: CA_7  and  C_8
REMARK    4  A    between atoms: CA_7  and  N_10
REMARK    5  A    between atoms: C_8  and  O_9
REMARK    6  A    between atoms: N_10  and  C_11
REMARK    7  A    between atoms: C_11  and  C_12
REMARK    8  A    between atoms: C_12  and  N_13
REMARK    9  A    between atoms: N_13  and  C_14
REMARK                            x       y       z     vdW  Elec       q    Type
REMARK                         _______ _______ _______ _____ _____    ______ ____
ROOT
ATOM      1  CA  UNL     1       2.233   3.006  17.999  0.00  0.00    +0.000 C 
ENDROOT
BRANCH   1   2
ATOM      2  N   UNL     1       2.095   4.428  17.614  0.00  0.00    +0.000 NA
ATOM      3  H   UNL     1       1.457   4.494  16.815  0.00  0.00    +0.000 HD
BRANCH   2   4
ATOM      4  C   UNL     1       1.697   5.339  18.690  0.00  0.00    +0.000 C 
BRANCH   4   5
ATOM      5  C   UNL     1       2.841   6.276  19.115  0.00  0.00    +0.000 C 
BRANCH   5   6
ATOM      6  N   UNL     1       2.434   7.200  20.173  0.00  0.00    +0.000 N 
ATOM      7  H   UNL     1       3.202   7.409  20.803  0.00  0.00    +0.000 HD
BRANCH   6   8
ATOM      8  C   UNL     1       1.774   8.383  19.743  0.00  0.00    +0.000 A 
ATOM      9  C   UNL     1       1.793   8.762  18.396  0.00  0.00    +0.000 A 
ATOM     10  C   UNL     1       1.085   9.875  17.992  0.00  0.00    +0.000 A 
ATOM     11  N   UNL     1       0.334  10.620  18.819  0.00  0.00    +0.000 NA
ATOM     12  C   UNL     1       0.255  10.246  20.101  0.00  0.00    +0.000 A 
ATOM     13  C   UNL     1      -0.566  10.997  20.926  0.00  0.00    +0.000 A 
ATOM     14  C   UNL     1      -0.714  10.692  22.273  0.00  0.00    +0.000 A 
ATOM     15 CL   UNL     1      -1.760  11.636  23.259  0.00  0.00    +0.000 Cl
ATOM     16  C   UNL     1      -0.026   9.623  22.829  0.00  0.00    +0.000 A 
ATOM     17  C   UNL     1       0.800   8.846  22.015  0.00  0.00    +0.000 A 
ATOM     18  C   UNL     1       0.957   9.135  20.635  0.00  0.00    +0.000 A 
ENDBRANCH   6   8
ENDBRANCH   5   6
ENDBRANCH   4   5
ENDBRANCH   2   4
ENDBRANCH   1   2
BRANCH   1  19
ATOM     19  C   UNL     1       3.656   2.448  17.720  0.00  0.00    +0.000 C 
BRANCH  19  24
ATOM     20  O   UNL     1       7.387   5.317  18.872  0.00  0.00    +0.000 OA
ATOM     21  C   UNL     1       6.540   4.744  18.227  0.00  0.00    +0.000 C 
ATOM     22  C   UNL     1       5.391   3.876  18.772  0.00  0.00    +0.000 C 
ATOM     23  O   UNL     1       5.246   3.546  19.932  0.00  0.00    +0.000 OA
ATOM     24  N   UNL     1       4.673   3.476  17.656  0.00  0.00    +0.000 N 
ATOM     25  C   UNL     1       5.275   3.951  16.474  0.00  0.00    +0.000 A 
ATOM     26  C   UNL     1       4.916   3.733  15.158  0.00  0.00    +0.000 A 
ATOM     27  C   UNL     1       5.771   4.221  14.156  0.00  0.00    +0.000 A 
ATOM     28  C   UNL     1       6.950   4.918  14.489  0.00  0.00    +0.000 A 
ATOM     29 CL   UNL     1       8.019   5.419  13.238  0.00  0.00    +0.000 Cl
ATOM     30  C   UNL     1       7.282   5.182  15.814  0.00  0.00    +0.000 A 
ATOM     31  C   UNL     1       6.418   4.691  16.773  0.00  0.00    +0.000 A 
ENDBRANCH  19  24
ENDBRANCH   1  19
BRANCH   1  32
ATOM     32  C   UNL     1       1.793   2.857  19.475  0.00  0.00    +0.000 C 
BRANCH  32  33
ATOM     33  O   UNL     1       2.598   1.917  20.174  0.00  0.00    +0.000 OA
ATOM     34  H   UNL     1       3.531   2.204  20.083  0.00  0.00    +0.000 HD
ENDBRANCH  32  33
ENDBRANCH   1  32
TORSDOF 9
ENDMDL
MODEL 6
REMARK VINA RESULT:      -7.9      2.080      2.654
REMARK  Name = 
REMARK  9 active torsions:
REMARK  status: ('A' for Active; 'I' for Inactive)
REMARK    1  A    between atoms: N_5  and  C_6
REMARK    2  A    between atoms: C_6  and  CA_7
REMARK    3  A    between atoms: CA_7  and  C_8
REMARK    4  A    between atoms: CA_7  and  N_10
REMARK    5  A    between atoms: C_8  and  O_9
REMARK    6  A    between atoms: N_10  and  C_11
REMARK    7  A    between atoms: C_11  and  C_12
REMARK    8  A    between atoms: C_12  and  N_13
REMARK    9  A    between atoms: N_13  and  C_14
REMARK                            x       y       z     vdW  Elec       q    Type
REMARK                         _______ _______ _______ _____ _____    ______ ____
ROOT
ATOM      1  CA  UNL     1       3.661   3.318  18.954  0.00  0.00    +0.000 C 
ENDROOT
BRANCH   1   2
ATOM      2  N   UNL     1       3.121   3.931  20.187  0.00  0.00    +0.000 NA
ATOM      3  H   UNL     1       3.889   4.376  20.699  0.00  0.00    +0.000 HD
BRANCH   2   4
ATOM      4  C   UNL     1       2.003   4.857  19.995  0.00  0.00    +0.000 C 
BRANCH   4   5
ATOM      5  C   UNL     1       2.475   6.281  19.654  0.00  0.00    +0.000 C 
BRANCH   5   6
ATOM      6  N   UNL     1       2.044   7.260  20.650  0.00  0.00    +0.000 N 
ATOM      7  H   UNL     1       2.763   7.427  21.347  0.00  0.00    +0.000 HD
BRANCH   6   8
ATOM      8  C   UNL     1       1.521   8.478  20.137  0.00  0.00    +0.000 A 
ATOM      9  C   UNL     1       1.685   8.814  18.788  0.00  0.00    +0.000 A 
ATOM     10  C   UNL     1       1.107   9.966  18.298  0.00  0.00    +0.000 A 
ATOM     11  N   UNL     1       0.351  10.792  19.039  0.00  0.00    +0.000 NA
ATOM     12  C   UNL     1       0.132  10.465  20.317  0.00  0.00    +0.000 A 
ATOM     13  C   UNL     1      -0.692  11.303  21.049  0.00  0.00    +0.000 A 
ATOM     14  C   UNL     1      -0.979  11.050  22.385  0.00  0.00    +0.000 A 
ATOM     15 CL   UNL     1      -2.025  12.103  23.254  0.00  0.00    +0.000 Cl
ATOM     16  C   UNL     1      -0.430   9.948  23.023  0.00  0.00    +0.000 A 
ATOM     17  C   UNL     1       0.397   9.084  22.303  0.00  0.00    +0.000 A 
ATOM     18  C   UNL     1       0.694   9.318  20.936  0.00  0.00    +0.000 A 
ENDBRANCH   6   8
ENDBRANCH   5   6
ENDBRANCH   4   5
ENDBRANCH   2   4
ENDBRANCH   1   2
BRANCH   1  19
ATOM     19  C   UNL     1       5.200   3.492  18.826  0.00  0.00    +0.000 C 
BRANCH  19  24
ATOM     20  O   UNL     1       5.048   6.748  15.240  0.00  0.00    +0.000 OA
ATOM     21  C   UNL     1       5.406   6.146  16.226  0.00  0.00    +0.000 C 
ATOM     22  C   UNL     1       4.820   4.832  16.772  0.00  0.00    +0.000 C 
ATOM     23  O   UNL     1       3.828   4.273  16.349  0.00  0.00    +0.000 OA
ATOM     24  N   UNL     1       5.584   4.525  17.887  0.00  0.00    +0.000 N 
ATOM     25  C   UNL     1       6.543   5.528  18.130  0.00  0.00    +0.000 A 
ATOM     26  C   UNL     1       7.456   5.638  19.162  0.00  0.00    +0.000 A 
ATOM     27  C   UNL     1       8.217   6.816  19.240  0.00  0.00    +0.000 A 
ATOM     28  C   UNL     1       8.060   7.843  18.288  0.00  0.00    +0.000 A 
ATOM     29 CL   UNL     1       8.943   9.308  18.469  0.00  0.00    +0.000 Cl
ATOM     30  C   UNL     1       7.178   7.707  17.220  0.00  0.00    +0.000 A 
ATOM     31  C   UNL     1       6.448   6.536  17.171  0.00  0.00    +0.000 A 
ENDBRANCH  19  24
ENDBRANCH   1  19
BRANCH   1  32
ATOM     32  C   UNL     1       3.205   1.841  18.904  0.00  0.00    +0.000 C 
BRANCH  32  33
ATOM     33  O   UNL     1       1.866   1.716  18.445  0.00  0.00    +0.000 OA
ATOM     34  H   UNL     1       1.893   1.672  17.467  0.00  0.00    +0.000 HD
ENDBRANCH  32  33
ENDBRANCH   1  32
TORSDOF 9
ENDMDL
MODEL 7
REMARK VINA RESULT:      -7.8      1.339      1.431
REMARK  Name = 
REMARK  9 active torsions:
REMARK  status: ('A' for Active; 'I' for Inactive)
REMARK    1  A    between atoms: N_5  and  C_6
REMARK    2  A    between atoms: C_6  and  CA_7
REMARK    3  A    between atoms: CA_7  and  C_8
REMARK    4  A    between atoms: CA_7  and  N_10
REMARK    5  A    between atoms: C_8  and  O_9
REMARK    6  A    between atoms: N_10  and  C_11
REMARK    7  A    between atoms: C_11  and  C_12
REMARK    8  A    between atoms: C_12  and  N_13
REMARK    9  A    between atoms: N_13  and  C_14
REMARK                            x       y       z     vdW  Elec       q    Type
REMARK                         _______ _______ _______ _____ _____    ______ ____
ROOT
ATOM      1  CA  UNL     1       3.204   5.224  18.632  0.00  0.00    +0.000 C 
ENDROOT
BRANCH   1   2
ATOM      2  N   UNL     1       3.426   4.586  19.948  0.00  0.00    +0.000 NA
ATOM      3  H   UNL     1       4.353   4.854  20.294  0.00  0.00    +0.000 HD
BRANCH   2   4
ATOM      4  C   UNL     1       2.391   4.836  20.954  0.00  0.00    +0.000 C 
BRANCH   4   5
ATOM      5  C   UNL     1       1.455   5.991  20.555  0.00  0.00    +0.000 C 
BRANCH   5   6
ATOM      6  N   UNL     1       1.814   7.246  21.213  0.00  0.00    +0.000 N 
ATOM      7  H   UNL     1       2.808   7.292  21.414  0.00  0.00    +0.000 HD
BRANCH   6   8
ATOM      8  C   UNL     1       1.353   8.432  20.580  0.00  0.00    +0.000 A 
ATOM      9  C   UNL     1       1.599   8.657  19.220  0.00  0.00    +0.000 A 
ATOM     10  C   UNL     1       1.080   9.782  18.613  0.00  0.00    +0.000 A 
ATOM     11  N   UNL     1       0.309  10.681  19.245  0.00  0.00    +0.000 NA
ATOM     12  C   UNL     1       0.014  10.459  20.530  0.00  0.00    +0.000 A 
ATOM     13  C   UNL     1      -0.825  11.371  21.149  0.00  0.00    +0.000 A 
ATOM     14  C   UNL     1      -1.190  11.231  22.482  0.00  0.00    +0.000 A 
ATOM     15 CL   UNL     1      -2.251  12.373  23.208  0.00  0.00    +0.000 Cl
ATOM     16  C   UNL     1      -0.707  10.169  23.233  0.00  0.00    +0.000 A 
ATOM     17  C   UNL     1       0.133   9.232  22.628  0.00  0.00    +0.000 A 
ATOM     18  C   UNL     1       0.509   9.351  21.266  0.00  0.00    +0.000 A 
ENDBRANCH   6   8
ENDBRANCH   5   6
ENDBRANCH   4   5
ENDBRANCH   2   4
ENDBRANCH   1   2
BRANCH   1  19
ATOM     19  C   UNL     1       4.234   6.348  18.333  0.00  0.00    +0.000 C 
BRANCH  19  24
ATOM     20  O   UNL     1       8.481   4.052  17.924  0.00  0.00    +0.000 OA
ATOM     21  C   UNL     1       7.462   4.635  17.634  0.00  0.00    +0.000 C 
ATOM     22  C   UNL     1       6.457   5.280  18.605  0.00  0.00    +0.000 C 
ATOM     23  O   UNL     1       6.489   5.189  19.816  0.00  0.00    +0.000 OA
ATOM     24  N   UNL     1       5.485   5.852  17.800  0.00  0.00    +0.000 N 
ATOM     25  C   UNL     1       5.741   5.589  16.440  0.00  0.00    +0.000 A 
ATOM     26  C   UNL     1       4.996   5.924  15.325  0.00  0.00    +0.000 A 
ATOM     27  C   UNL     1       5.414   5.423  14.082  0.00  0.00    +0.000 A 
ATOM     28  C   UNL     1       6.564   4.613  13.979  0.00  0.00    +0.000 A 
ATOM     29 CL   UNL     1       6.992   3.942  12.454  0.00  0.00    +0.000 Cl
ATOM     30  C   UNL     1       7.342   4.321  15.095  0.00  0.00    +0.000 A 
ATOM     31  C   UNL     1       6.904   4.832  16.300  0.00  0.00    +0.000 A 
ENDBRANCH  19  24
ENDBRANCH   1  19
BRANCH   1  32
ATOM     32  C   UNL     1       3.174   4.116  17.553  0.00  0.00    +0.000 C 
BRANCH  32  33
ATOM     33  O   UNL     1       3.761   2.909  18.018  0.00  0.00    +0.000 OA
ATOM     34  H   UNL     1       4.163   2.461  17.245  0.00  0.00    +0.000 HD
ENDBRANCH  32  33
ENDBRANCH   1  32
TORSDOF 9
ENDMDL
MODEL 8
REMARK VINA RESULT:      -7.7      2.927      4.930
REMARK  Name = 
REMARK  9 active torsions:
REMARK  status: ('A' for Active; 'I' for Inactive)
REMARK    1  A    between atoms: N_5  and  C_6
REMARK    2  A    between atoms: C_6  and  CA_7
REMARK    3  A    between atoms: CA_7  and  C_8
REMARK    4  A    between atoms: CA_7  and  N_10
REMARK    5  A    between atoms: C_8  and  O_9
REMARK    6  A    between atoms: N_10  and  C_11
REMARK    7  A    between atoms: C_11  and  C_12
REMARK    8  A    between atoms: C_12  and  N_13
REMARK    9  A    between atoms: N_13  and  C_14
REMARK                            x       y       z     vdW  Elec       q    Type
REMARK                         _______ _______ _______ _____ _____    ______ ____
ROOT
ATOM      1  CA  UNL     1       1.650   6.641  20.251  0.00  0.00    +0.000 C 
ENDROOT
BRANCH   1   2
ATOM      2  N   UNL     1       2.614   7.505  19.536  0.00  0.00    +0.000 NA
ATOM      3  H   UNL     1       3.548   7.087  19.606  0.00  0.00    +0.000 HD
BRANCH   2   4
ATOM      4  C   UNL     1       2.274   7.817  18.146  0.00  0.00    +0.000 C 
BRANCH   4   5
ATOM      5  C   UNL     1       1.974   9.312  17.940  0.00  0.00    +0.000 C 
BRANCH   5   6
ATOM      6  N   UNL     1       0.595   9.545  17.512  0.00  0.00    +0.000 N 
ATOM      7  H   UNL     1       0.145   8.684  17.216  0.00  0.00    +0.000 HD
BRANCH   6   8
ATOM      8  C   UNL     1      -0.220  10.277  18.417  0.00  0.00    +0.000 A 
ATOM      9  C   UNL     1       0.310  10.776  19.613  0.00  0.00    +0.000 A 
ATOM     10  C   UNL     1      -0.482  11.544  20.440  0.00  0.00    +0.000 A 
ATOM     11  N   UNL     1      -1.750  11.883  20.153  0.00  0.00    +0.000 NA
ATOM     12  C   UNL     1      -2.262  11.465  18.990  0.00  0.00    +0.000 A 
ATOM     13  C   UNL     1      -3.552  11.869  18.690  0.00  0.00    +0.000 A 
ATOM     14  C   UNL     1      -4.174  11.487  17.508  0.00  0.00    +0.000 A 
ATOM     15 CL   UNL     1      -5.770  12.026  17.162  0.00  0.00    +0.000 Cl
ATOM     16  C   UNL     1      -3.512  10.675  16.598  0.00  0.00    +0.000 A 
ATOM     17  C   UNL     1      -2.207  10.264  16.875  0.00  0.00    +0.000 A 
ATOM     18  C   UNL     1      -1.550  10.651  18.071  0.00  0.00    +0.000 A 
ENDBRANCH   6   8
ENDBRANCH   5   6
ENDBRANCH   4   5
ENDBRANCH   2   4
ENDBRANCH   1   2
BRANCH   1  19
ATOM     19  C   UNL     1       2.309   5.351  20.816  0.00  0.00    +0.000 C 
BRANCH  19  24
ATOM     20  O   UNL     1       2.128   2.094  17.233  0.00  0.00    +0.000 OA
ATOM     21  C   UNL     1       2.544   2.935  17.996  0.00  0.00    +0.000 C 
ATOM     22  C   UNL     1       1.810   3.521  19.216  0.00  0.00    +0.000 C 
ATOM     23  O   UNL     1       0.653   3.303  19.515  0.00  0.00    +0.000 OA
ATOM     24  N   UNL     1       2.705   4.413  19.787  0.00  0.00    +0.000 N 
ATOM     25  C   UNL     1       3.890   4.489  19.030  0.00  0.00    +0.000 A 
ATOM     26  C   UNL     1       5.000   5.291  19.216  0.00  0.00    +0.000 A 
ATOM     27  C   UNL     1       6.001   5.264  18.231  0.00  0.00    +0.000 A 
ATOM     28  C   UNL     1       5.877   4.435  17.098  0.00  0.00    +0.000 A 
ATOM     29 CL   UNL     1       7.079   4.497  15.869  0.00  0.00    +0.000 Cl
ATOM     30  C   UNL     1       4.783   3.590  16.939  0.00  0.00    +0.000 A 
ATOM     31  C   UNL     1       3.820   3.639  17.927  0.00  0.00    +0.000 A 
ENDBRANCH  19  24
ENDBRANCH   1  19
BRANCH   1  32
ATOM     32  C   UNL     1       0.942   7.492  21.332  0.00  0.00    +0.000 C 
BRANCH  32  33
ATOM     33  O   UNL     1       1.799   8.494  21.861  0.00  0.00    +0.000 OA
ATOM     34  H   UNL     1       1.643   8.534  22.827  0.00  0.00    +0.000 HD
ENDBRANCH  32  33
ENDBRANCH   1  32
TORSDOF 9
ENDMDL
MODEL 9
REMARK VINA RESULT:      -7.6      5.314      7.763
REMARK  Name = 
REMARK  9 active torsions:
REMARK  status: ('A' for Active; 'I' for Inactive)
REMARK    1  A    between atoms: N_5  and  C_6
REMARK    2  A    between atoms: C_6  and  CA_7
REMARK    3  A    between atoms: CA_7  and  C_8
REMARK    4  A    between atoms: CA_7  and  N_10
REMARK    5  A    between atoms: C_8  and  O_9
REMARK    6  A    between atoms: N_10  and  C_11
REMARK    7  A    between atoms: C_11  and  C_12
REMARK    8  A    between atoms: C_12  and  N_13
REMARK    9  A    between atoms: N_13  and  C_14
REMARK                            x       y       z     vdW  Elec       q    Type
REMARK                         _______ _______ _______ _____ _____    ______ ____
ROOT
ATOM      1  CA  UNL     1       6.280   6.282  17.451  0.00  0.00    +0.000 C 
ENDROOT
BRANCH   1   2
ATOM      2  N   UNL     1       6.885   7.553  16.994  0.00  0.00    +0.000 NA
ATOM      3  H   UNL     1       6.150   8.262  16.922  0.00  0.00    +0.000 HD
BRANCH   2   4
ATOM      4  C   UNL     1       8.015   8.037  17.790  0.00  0.00    +0.000 C 
BRANCH   4   5
ATOM      5  C   UNL     1       7.904   9.538  18.110  0.00  0.00    +0.000 C 
BRANCH   5   6
ATOM      6  N   UNL     1       9.100  10.278  17.713  0.00  0.00    +0.000 N 
ATOM      7  H   UNL     1       9.029  10.623  16.761  0.00  0.00    +0.000 HD
BRANCH   6   8
ATOM      8  C   UNL     1       9.523  11.299  18.607  0.00  0.00    +0.000 A 
ATOM      9  C   UNL     1      10.571  11.071  19.507  0.00  0.00    +0.000 A 
ATOM     10  C   UNL     1      11.011  12.100  20.314  0.00  0.00    +0.000 A 
ATOM     11  N   UNL     1      10.511  13.345  20.271  0.00  0.00    +0.000 NA
ATOM     12  C   UNL     1       9.547  13.603  19.380  0.00  0.00    +0.000 A 
ATOM     13  C   UNL     1       9.081  14.906  19.316  0.00  0.00    +0.000 A 
ATOM     14  C   UNL     1       8.081  15.275  18.426  0.00  0.00    +0.000 A 
ATOM     15 CL   UNL     1       7.545  16.908  18.363  0.00  0.00    +0.000 Cl
ATOM     16  C   UNL     1       7.512  14.333  17.582  0.00  0.00    +0.000 A 
ATOM     17  C   UNL     1       7.972  13.015  17.622  0.00  0.00    +0.000 A 
ATOM     18  C   UNL     1       8.999  12.620  18.516  0.00  0.00    +0.000 A 
ENDBRANCH   6   8
ENDBRANCH   5   6
ENDBRANCH   4   5
ENDBRANCH   2   4
ENDBRANCH   1   2
BRANCH   1  19
ATOM     19  C   UNL     1       4.834   6.085  16.918  0.00  0.00    +0.000 C 
BRANCH  19  24
ATOM     20  O   UNL     1       2.533   4.772  20.975  0.00  0.00    +0.000 OA
ATOM     21  C   UNL     1       2.847   5.395  19.987  0.00  0.00    +0.000 C 
ATOM     22  C   UNL     1       3.857   4.968  18.907  0.00  0.00    +0.000 C 
ATOM     23  O   UNL     1       4.574   3.989  18.959  0.00  0.00    +0.000 OA
ATOM     24  N   UNL     1       3.843   5.989  17.969  0.00  0.00    +0.000 N 
ATOM     25  C   UNL     1       2.981   7.028  18.371  0.00  0.00    +0.000 A 
ATOM     26  C   UNL     1       2.724   8.241  17.760  0.00  0.00    +0.000 A 
ATOM     27  C   UNL     1       1.912   9.160  18.444  0.00  0.00    +0.000 A 
ATOM     28  C   UNL     1       1.370   8.846  19.706  0.00  0.00    +0.000 A 
ATOM     29 CL   UNL     1       0.457  10.031  20.554  0.00  0.00    +0.000 Cl
ATOM     30  C   UNL     1       1.587   7.604  20.295  0.00  0.00    +0.000 A 
ATOM     31  C   UNL     1       2.387   6.723  19.595  0.00  0.00    +0.000 A 
ENDBRANCH  19  24
ENDBRANCH   1  19
BRANCH   1  32
ATOM     32  C   UNL     1       7.236   5.125  17.077  0.00  0.00    +0.000 C 
BRANCH  32  33
ATOM     33  O   UNL     1       7.373   4.189  18.137  0.00  0.00    +0.000 OA
ATOM     34  H   UNL     1       6.746   3.456  17.964  0.00  0.00    +0.000 HD
ENDBRANCH  32  33
ENDBRANCH   1  32
TORSDOF 9
ENDMDL
