MODEL 1
REMARK VINA RESULT:      -7.0      0.000      0.000
REMARK  Name = 
REMARK  5 active torsions:
REMARK  status: ('A' for Active; 'I' for Inactive)
REMARK    1  A    between atoms: N_1  and  C_2
REMARK    2  A    between atoms: C_5  and  C_6
REMARK    3  A    between atoms: C_6  and  C_8
REMARK    4  A    between atoms: C_9  and  C_10
REMARK    5  A    between atoms: C_15  and  O_16
REMARK                            x       y       z     vdW  Elec       q    Type
REMARK                         _______ _______ _______ _____ _____    ______ ____
ROOT
ATOM      1  C   UNL     1       5.861   4.322  16.536  0.00  0.00    +0.000 C 
ATOM      2  O   UNL     1       6.129   3.971  15.393  0.00  0.00    +0.000 OA
ENDROOT
BRANCH   1   6
ATOM      3  C   UNL     1       8.170   7.461  18.381  0.00  0.00    +0.000 A 
ATOM      4  C   UNL     1       7.410   7.693  17.233  0.00  0.00    +0.000 A 
ATOM      5  C   UNL     1       6.690   6.656  16.630  0.00  0.00    +0.000 A 
ATOM      6  C   UNL     1       6.675   5.379  17.203  0.00  0.00    +0.000 A 
ATOM      7  C   UNL     1       7.407   5.149  18.371  0.00  0.00    +0.000 A 
ATOM      8  C   UNL     1       8.125   6.193  18.966  0.00  0.00    +0.000 A 
BRANCH   3   9
ATOM      9  N   UNL     1       8.770   8.527  19.056  0.00  0.00    +0.000 N 
ATOM     10  H   UNL     1       8.976   8.334  20.031  0.00  0.00    +0.000 HD
ATOM     11  H   UNL     1       8.291   9.415  18.935  0.00  0.00    +0.000 HD
ENDBRANCH   3   9
ENDBRANCH   1   6
BRANCH   1  12
ATOM     12  C   UNL     1       4.689   3.775  17.274  0.00  0.00    +0.000 C 
ATOM     13  C   UNL     1       3.815   4.603  17.862  0.00  0.00    +0.000 C 
BRANCH  13  14
ATOM     14  C   UNL     1       2.681   4.083  18.632  0.00  0.00    +0.000 A 
ATOM     15  C   UNL     1       1.925   3.030  18.097  0.00  0.00    +0.000 A 
ATOM     16  C   UNL     1       0.829   2.519  18.797  0.00  0.00    +0.000 A 
ATOM     17  C   UNL     1       0.484   3.052  20.038  0.00  0.00    +0.000 A 
ATOM     18  C   UNL     1       1.227   4.101  20.581  0.00  0.00    +0.000 A 
ATOM     19  C   UNL     1       2.316   4.615  19.875  0.00  0.00    +0.000 A 
BRANCH  19  20
ATOM     20  O   UNL     1       3.034   5.657  20.396  0.00  0.00    +0.000 OA
ATOM     21  H   UNL     1       3.007   6.400  19.772  0.00  0.00    +0.000 HD
ENDBRANCH  19  20
ENDBRANCH  13  14
ENDBRANCH   1  12
TORSDOF 5
ENDMDL
MODEL 2
REMARK VINA RESULT:      -7.0      0.107      1.139
REMARK  Name = 
REMARK  5 active torsions:
REMARK  status: ('A' for Active; 'I' for Inactive)
REMARK    1  A    between atoms: N_1  and  C_2
REMARK    2  A    between atoms: C_5  and  C_6
REMARK    3  A    between atoms: C_6  and  C_8
REMARK    4  A    between atoms: C_9  and  C_10
REMARK    5  A    between atoms: C_15  and  O_16
REMARK                            x       y       z     vdW  Elec       q    Type
REMARK                         _______ _______ _______ _____ _____    ______ ____
ROOT
ATOM      1  C   UNL     1       5.894   4.270  16.506  0.00  0.00    +0.000 C 
ATOM      2  O   UNL     1       6.267   3.844  15.419  0.00  0.00    +0.000 OA
ENDROOT
BRANCH   1   6
ATOM      3  C   UNL     1       8.032   7.471  18.449  0.00  0.00    +0.000 A 
ATOM      4  C   UNL     1       8.086   6.160  18.929  0.00  0.00    +0.000 A 
ATOM      5  C   UNL     1       7.362   5.139  18.304  0.00  0.00    +0.000 A 
ATOM      6  C   UNL     1       6.616   5.405  17.150  0.00  0.00    +0.000 A 
ATOM      7  C   UNL     1       6.586   6.708  16.644  0.00  0.00    +0.000 A 
ATOM      8  C   UNL     1       7.312   7.724  17.277  0.00  0.00    +0.000 A 
BRANCH   3   9
ATOM      9  N   UNL     1       8.866   8.454  18.989  0.00  0.00    +0.000 N 
ATOM     10  H   UNL     1       9.029   9.241  18.370  0.00  0.00    +0.000 HD
ATOM     11  H   UNL     1       9.729   8.093  19.384  0.00  0.00    +0.000 HD
ENDBRANCH   3   9
ENDBRANCH   1   6
BRANCH   1  12
ATOM     12  C   UNL     1       4.683   3.737  17.188  0.00  0.00    +0.000 C 
ATOM     13  C   UNL     1       3.916   4.545  17.933  0.00  0.00    +0.000 C 
BRANCH  13  14
ATOM     14  C   UNL     1       2.746   4.028  18.649  0.00  0.00    +0.000 A 
ATOM     15  C   UNL     1       2.020   2.969  18.086  0.00  0.00    +0.000 A 
ATOM     16  C   UNL     1       0.892   2.462  18.735  0.00  0.00    +0.000 A 
ATOM     17  C   UNL     1       0.483   3.004  19.952  0.00  0.00    +0.000 A 
ATOM     18  C   UNL     1       1.196   4.060  20.522  0.00  0.00    +0.000 A 
ATOM     19  C   UNL     1       2.318   4.571  19.867  0.00  0.00    +0.000 A 
BRANCH  19  20
ATOM     20  O   UNL     1       3.006   5.620  20.414  0.00  0.00    +0.000 OA
ATOM     21  H   UNL     1       3.332   6.189  19.698  0.00  0.00    +0.000 HD
ENDBRANCH  19  20
ENDBRANCH  13  14
ENDBRANCH   1  12
TORSDOF 5
ENDMDL
MODEL 3
REMARK VINA RESULT:      -6.9      3.542      6.688
REMARK  Name = 
REMARK  5 active torsions:
REMARK  status: ('A' for Active; 'I' for Inactive)
REMARK    1  A    between atoms: N_1  and  C_2
REMARK    2  A    between atoms: C_5  and  C_6
REMARK    3  A    between atoms: C_6  and  C_8
REMARK    4  A    between atoms: C_9  and  C_10
REMARK    5  A    between atoms: C_15  and  O_16
REMARK                            x       y       z     vdW  Elec       q    Type
REMARK                         _______ _______ _______ _____ _____    ______ ____
ROOT
ATOM      1  C   UNL     1       4.943   5.597  17.559  0.00  0.00    +0.000 C 
ATOM      2  O   UNL     1       5.745   6.315  18.145  0.00  0.00    +0.000 OA
ENDROOT
BRANCH   1   6
ATOM      3  C   UNL     1       1.480   3.974  19.551  0.00  0.00    +0.000 A 
ATOM      4  C   UNL     1       1.734   3.715  18.202  0.00  0.00    +0.000 A 
ATOM      5  C   UNL     1       2.847   4.274  17.564  0.00  0.00    +0.000 A 
ATOM      6  C   UNL     1       3.756   5.058  18.283  0.00  0.00    +0.000 A 
ATOM      7  C   UNL     1       3.526   5.292  19.642  0.00  0.00    +0.000 A 
ATOM      8  C   UNL     1       2.409   4.730  20.272  0.00  0.00    +0.000 A 
BRANCH   3   9
ATOM      9  N   UNL     1       0.452   3.301  20.215  0.00  0.00    +0.000 N 
ATOM     10  H   UNL     1       0.635   3.138  21.200  0.00  0.00    +0.000 HD
ATOM     11  H   UNL     1       0.133   2.461  19.742  0.00  0.00    +0.000 HD
ENDBRANCH   3   9
ENDBRANCH   1   6
BRANCH   1  12
ATOM     12  C   UNL     1       5.070   5.295  16.107  0.00  0.00    +0.000 C 
ATOM     13  C   UNL     1       6.117   4.594  15.652  0.00  0.00    +0.000 C 
BRANCH  13  14
ATOM     14  C   UNL     1       6.283   4.326  14.220  0.00  0.00    +0.000 A 
ATOM     15  C   UNL     1       5.374   3.472  13.580  0.00  0.00    +0.000 A 
ATOM     16  C   UNL     1       5.511   3.184  12.220  0.00  0.00    +0.000 A 
ATOM     17  C   UNL     1       6.553   3.751  11.488  0.00  0.00    +0.000 A 
ATOM     18  C   UNL     1       7.466   4.601  12.114  0.00  0.00    +0.000 A 
ATOM     19  C   UNL     1       7.331   4.880  13.475  0.00  0.00    +0.000 A 
BRANCH  19  20
ATOM     20  O   UNL     1       8.237   5.698  14.095  0.00  0.00    +0.000 OA
ATOM     21  H   UNL     1       8.983   5.853  13.493  0.00  0.00    +0.000 HD
ENDBRANCH  19  20
ENDBRANCH  13  14
ENDBRANCH   1  12
TORSDOF 5
ENDMDL
MODEL 4
REMARK VINA RESULT:      -6.9      3.595      6.796
REMARK  Name = 
REMARK  5 active torsions:
REMARK  status: ('A' for Active; 'I' for Inactive)
REMARK    1  A    between atoms: N_1  and  C_2
REMARK    2  A    between atoms: C_5  and  C_6
REMARK    3  A    between atoms: C_6  and  C_8
REMARK    4  A    between atoms: C_9  and  C_10
REMARK    5  A    between atoms: C_15  and  O_16
REMARK                            x       y       z     vdW  Elec       q    Type
REMARK                         _______ _______ _______ _____ _____    ______ ____
ROOT
ATOM      1  C   UNL     1       5.371   4.510  17.899  0.00  0.00    +0.000 C 
ATOM      2  O   UNL     1       6.071   5.239  18.593  0.00  0.00    +0.000 OA
ENDROOT
BRANCH   1   6
ATOM      3  C   UNL     1       1.521   3.251  19.377  0.00  0.00    +0.000 A 
ATOM      4  C   UNL     1       2.709   2.824  19.976  0.00  0.00    +0.000 A 
ATOM      5  C   UNL     1       3.950   3.218  19.465  0.00  0.00    +0.000 A 
ATOM      6  C   UNL     1       4.021   4.095  18.377  0.00  0.00    +0.000 A 
ATOM      7  C   UNL     1       2.836   4.554  17.795  0.00  0.00    +0.000 A 
ATOM      8  C   UNL     1       1.598   4.153  18.312  0.00  0.00    +0.000 A 
BRANCH   3   9
ATOM      9  N   UNL     1       0.290   2.971  19.975  0.00  0.00    +0.000 N 
ATOM     10  H   UNL     1      -0.499   3.428  19.528  0.00  0.00    +0.000 HD
ATOM     11  H   UNL     1       0.282   3.094  20.983  0.00  0.00    +0.000 HD
ENDBRANCH   3   9
ENDBRANCH   1   6
BRANCH   1  12
ATOM     12  C   UNL     1       5.794   4.071  16.541  0.00  0.00    +0.000 C 
ATOM     13  C   UNL     1       5.687   4.906  15.497  0.00  0.00    +0.000 C 
BRANCH  13  14
ATOM     14  C   UNL     1       6.056   4.476  14.145  0.00  0.00    +0.000 A 
ATOM     15  C   UNL     1       5.186   3.632  13.441  0.00  0.00    +0.000 A 
ATOM     16  C   UNL     1       5.513   3.193  12.155  0.00  0.00    +0.000 A 
ATOM     17  C   UNL     1       6.708   3.597  11.562  0.00  0.00    +0.000 A 
ATOM     18  C   UNL     1       7.584   4.436  12.254  0.00  0.00    +0.000 A 
ATOM     19  C   UNL     1       7.258   4.866  13.541  0.00  0.00    +0.000 A 
BRANCH  19  20
ATOM     20  O   UNL     1       8.124   5.672  14.229  0.00  0.00    +0.000 OA
ATOM     21  H   UNL     1       8.902   5.151  14.486  0.00  0.00    +0.000 HD
ENDBRANCH  19  20
ENDBRANCH  13  14
ENDBRANCH   1  12
TORSDOF 5
ENDMDL
MODEL 5
REMARK VINA RESULT:      -6.8      3.265      4.212
REMARK  Name = 
REMARK  5 active torsions:
REMARK  status: ('A' for Active; 'I' for Inactive)
REMARK    1  A    between atoms: N_1  and  C_2
REMARK    2  A    between atoms: C_5  and  C_6
REMARK    3  A    between atoms: C_6  and  C_8
REMARK    4  A    between atoms: C_9  and  C_10
REMARK    5  A    between atoms: C_15  and  O_16
REMARK                            x       y       z     vdW  Elec       q    Type
REMARK                         _______ _______ _______ _____ _____    ______ ____
ROOT
ATOM      1  C   UNL     1       3.616   4.286  18.116  0.00  0.00    +0.000 C 
ATOM      2  O   UNL     1       3.425   3.188  18.628  0.00  0.00    +0.000 OA
ENDROOT
BRANCH   1   6
ATOM      3  C   UNL     1       6.876   4.874  15.355  0.00  0.00    +0.000 A 
ATOM      4  C   UNL     1       5.560   4.727  14.911  0.00  0.00    +0.000 A 
ATOM      5  C   UNL     1       4.518   4.507  15.818  0.00  0.00    +0.000 A 
ATOM      6  C   UNL     1       4.771   4.488  17.194  0.00  0.00    +0.000 A 
ATOM      7  C   UNL     1       6.081   4.669  17.648  0.00  0.00    +0.000 A 
ATOM      8  C   UNL     1       7.117   4.887  16.732  0.00  0.00    +0.000 A 
BRANCH   3   9
ATOM      9  N   UNL     1       7.886   5.234  14.460  0.00  0.00    +0.000 N 
ATOM     10  H   UNL     1       7.580   5.862  13.723  0.00  0.00    +0.000 HD
ATOM     11  H   UNL     1       8.416   4.447  14.096  0.00  0.00    +0.000 HD
ENDBRANCH   3   9
ENDBRANCH   1   6
BRANCH   1  12
ATOM     12  C   UNL     1       2.683   5.426  18.325  0.00  0.00    +0.000 C 
ATOM     13  C   UNL     1       3.161   6.647  18.605  0.00  0.00    +0.000 C 
BRANCH  13  14
ATOM     14  C   UNL     1       2.256   7.772  18.860  0.00  0.00    +0.000 A 
ATOM     15  C   UNL     1       1.975   8.666  17.817  0.00  0.00    +0.000 A 
ATOM     16  C   UNL     1       1.129   9.756  18.029  0.00  0.00    +0.000 A 
ATOM     17  C   UNL     1       0.552   9.960  19.281  0.00  0.00    +0.000 A 
ATOM     18  C   UNL     1       0.825   9.079  20.328  0.00  0.00    +0.000 A 
ATOM     19  C   UNL     1       1.678   7.994  20.116  0.00  0.00    +0.000 A 
BRANCH  19  20
ATOM     20  O   UNL     1       1.962   7.140  21.147  0.00  0.00    +0.000 OA
ATOM     21  H   UNL     1       2.530   7.599  21.787  0.00  0.00    +0.000 HD
ENDBRANCH  19  20
ENDBRANCH  13  14
ENDBRANCH   1  12
TORSDOF 5
ENDMDL
MODEL 6
REMARK VINA RESULT:      -6.8      3.259      6.308
REMARK  Name = 
REMARK  5 active torsions:
REMARK  status: ('A' for Active; 'I' for Inactive)
REMARK    1  A    between atoms: N_1  and  C_2
REMARK    2  A    between atoms: C_5  and  C_6
REMARK    3  A    between atoms: C_6  and  C_8
REMARK    4  A    between atoms: C_9  and  C_10
REMARK    5  A    between atoms: C_15  and  O_16
REMARK                            x       y       z     vdW  Elec       q    Type
REMARK                         _______ _______ _______ _____ _____    ______ ____
ROOT
ATOM      1  C   UNL     1       3.881   3.817  17.450  0.00  0.00    +0.000 C 
ATOM      2  O   UNL     1       3.915   2.659  17.849  0.00  0.00    +0.000 OA
ENDROOT
BRANCH   1   6
ATOM      3  C   UNL     1       2.105   6.810  19.996  0.00  0.00    +0.000 A 
ATOM      4  C   UNL     1       2.221   5.479  20.405  0.00  0.00    +0.000 A 
ATOM      5  C   UNL     1       2.773   4.515  19.554  0.00  0.00    +0.000 A 
ATOM      6  C   UNL     1       3.271   4.881  18.299  0.00  0.00    +0.000 A 
ATOM      7  C   UNL     1       3.189   6.217  17.897  0.00  0.00    +0.000 A 
ATOM      8  C   UNL     1       2.634   7.175  18.755  0.00  0.00    +0.000 A 
BRANCH   3   9
ATOM      9  N   UNL     1       1.686   7.790  20.899  0.00  0.00    +0.000 N 
ATOM     10  H   UNL     1       1.820   7.538  21.873  0.00  0.00    +0.000 HD
ATOM     11  H   UNL     1       0.751   8.144  20.721  0.00  0.00    +0.000 HD
ENDBRANCH   3   9
ENDBRANCH   1   6
BRANCH   1  12
ATOM     12  C   UNL     1       4.498   4.224  16.158  0.00  0.00    +0.000 C 
ATOM     13  C   UNL     1       5.583   3.586  15.697  0.00  0.00    +0.000 C 
BRANCH  13  14
ATOM     14  C   UNL     1       6.232   4.003  14.450  0.00  0.00    +0.000 A 
ATOM     15  C   UNL     1       5.877   3.363  13.255  0.00  0.00    +0.000 A 
ATOM     16  C   UNL     1       6.485   3.725  12.051  0.00  0.00    +0.000 A 
ATOM     17  C   UNL     1       7.448   4.732  12.030  0.00  0.00    +0.000 A 
ATOM     18  C   UNL     1       7.812   5.376  13.214  0.00  0.00    +0.000 A 
ATOM     19  C   UNL     1       7.209   5.006  14.417  0.00  0.00    +0.000 A 
BRANCH  19  20
ATOM     20  O   UNL     1       7.579   5.622  15.582  0.00  0.00    +0.000 OA
ATOM     21  H   UNL     1       7.162   5.160  16.327  0.00  0.00    +0.000 HD
ENDBRANCH  19  20
ENDBRANCH  13  14
ENDBRANCH   1  12
TORSDOF 5
ENDMDL
MODEL 7
REMARK VINA RESULT:      -6.7      3.212      4.266
REMARK  Name = 
REMARK  5 active torsions:
REMARK  status: ('A' for Active; 'I' for Inactive)
REMARK    1  A    between atoms: N_1  and  C_2
REMARK    2  A    between atoms: C_5  and  C_6
REMARK    3  A    between atoms: C_6  and  C_8
REMARK    4  A    between atoms: C_9  and  C_10
REMARK    5  A    between atoms: C_15  and  O_16
REMARK                            x       y       z     vdW  Elec       q    Type
REMARK                         _______ _______ _______ _____ _____    ______ ____
ROOT
ATOM      1  C   UNL     1       4.445   4.436  19.055  0.00  0.00    +0.000 C 
ATOM      2  O   UNL     1       4.420   3.315  19.552  0.00  0.00    +0.000 OA
ENDROOT
BRANCH   1   6
ATOM      3  C   UNL     1       6.768   5.205  15.505  0.00  0.00    +0.000 A 
ATOM      4  C   UNL     1       7.115   5.760  16.739  0.00  0.00    +0.000 A 
ATOM      5  C   UNL     1       6.333   5.524  17.875  0.00  0.00    +0.000 A 
ATOM      6  C   UNL     1       5.220   4.679  17.804  0.00  0.00    +0.000 A 
ATOM      7  C   UNL     1       4.886   4.094  16.579  0.00  0.00    +0.000 A 
ATOM      8  C   UNL     1       5.674   4.337  15.448  0.00  0.00    +0.000 A 
BRANCH   3   9
ATOM      9  N   UNL     1       7.627   5.328  14.410  0.00  0.00    +0.000 N 
ATOM     10  H   UNL     1       7.746   4.470  13.881  0.00  0.00    +0.000 HD
ATOM     11  H   UNL     1       8.516   5.768  14.629  0.00  0.00    +0.000 HD
ENDBRANCH   3   9
ENDBRANCH   1   6
BRANCH   1  12
ATOM     12  C   UNL     1       3.661   5.567  19.621  0.00  0.00    +0.000 C 
ATOM     13  C   UNL     1       2.895   6.324  18.824  0.00  0.00    +0.000 C 
BRANCH  13  14
ATOM     14  C   UNL     1       2.152   7.470  19.356  0.00  0.00    +0.000 A 
ATOM     15  C   UNL     1       1.661   7.410  20.667  0.00  0.00    +0.000 A 
ATOM     16  C   UNL     1       0.936   8.479  21.201  0.00  0.00    +0.000 A 
ATOM     17  C   UNL     1       0.702   9.617  20.432  0.00  0.00    +0.000 A 
ATOM     18  C   UNL     1       1.184   9.689  19.124  0.00  0.00    +0.000 A 
ATOM     19  C   UNL     1       1.900   8.616  18.590  0.00  0.00    +0.000 A 
BRANCH  19  20
ATOM     20  O   UNL     1       2.356   8.676  17.301  0.00  0.00    +0.000 OA
ATOM     21  H   UNL     1       3.135   8.102  17.217  0.00  0.00    +0.000 HD
ENDBRANCH  19  20
ENDBRANCH  13  14
ENDBRANCH   1  12
TORSDOF 5
ENDMDL
MODEL 8
REMARK VINA RESULT:      -6.7      4.526      6.947
REMARK  Name = 
REMARK  5 active torsions:
REMARK  status: ('A' for Active; 'I' for Inactive)
REMARK    1  A    between atoms: N_1  and  C_2
REMARK    2  A    between atoms: C_5  and  C_6
REMARK    3  A    between atoms: C_6  and  C_8
REMARK    4  A    between atoms: C_9  and  C_10
REMARK    5  A    between atoms: C_15  and  O_16
REMARK                            x       y       z     vdW  Elec       q    Type
REMARK                         _______ _______ _______ _____ _____    ______ ____
ROOT
ATOM      1  C   UNL     1       9.259  10.454  19.219  0.00  0.00    +0.000 C 
ATOM      2  O   UNL     1       9.392  10.434  20.438  0.00  0.00    +0.000 OA
ENDROOT
BRANCH   1   6
ATOM      3  C   UNL     1      10.795  13.777  16.941  0.00  0.00    +0.000 A 
ATOM      4  C   UNL     1       9.494  13.780  17.449  0.00  0.00    +0.000 A 
ATOM      5  C   UNL     1       9.002  12.680  18.161  0.00  0.00    +0.000 A 
ATOM      6  C   UNL     1       9.826  11.581  18.425  0.00  0.00    +0.000 A 
ATOM      7  C   UNL     1      11.141  11.587  17.949  0.00  0.00    +0.000 A 
ATOM      8  C   UNL     1      11.624  12.691  17.236  0.00  0.00    +0.000 A 
BRANCH   3   9
ATOM      9  N   UNL     1      11.326  14.930  16.357  0.00  0.00    +0.000 N 
ATOM     10  H   UNL     1      10.683  15.716  16.338  0.00  0.00    +0.000 HD
ATOM     11  H   UNL     1      11.764  14.773  15.455  0.00  0.00    +0.000 HD
ENDBRANCH   3   9
ENDBRANCH   1   6
BRANCH   1  12
ATOM     12  C   UNL     1       8.602   9.341  18.480  0.00  0.00    +0.000 C 
ATOM     13  C   UNL     1       8.542   8.116  19.019  0.00  0.00    +0.000 C 
BRANCH  13  14
ATOM     14  C   UNL     1       7.940   6.997  18.286  0.00  0.00    +0.000 A 
ATOM     15  C   UNL     1       7.390   7.234  17.019  0.00  0.00    +0.000 A 
ATOM     16  C   UNL     1       6.796   6.194  16.300  0.00  0.00    +0.000 A 
ATOM     17  C   UNL     1       6.752   4.909  16.838  0.00  0.00    +0.000 A 
ATOM     18  C   UNL     1       7.295   4.660  18.100  0.00  0.00    +0.000 A 
ATOM     19  C   UNL     1       7.881   5.703  18.820  0.00  0.00    +0.000 A 
BRANCH  19  20
ATOM     20  O   UNL     1       8.396   5.466  20.065  0.00  0.00    +0.000 OA
ATOM     21  H   UNL     1       9.346   5.288  19.983  0.00  0.00    +0.000 HD
ENDBRANCH  19  20
ENDBRANCH  13  14
ENDBRANCH   1  12
TORSDOF 5
ENDMDL
MODEL 9
REMARK VINA RESULT:      -6.7      1.364      1.499
REMARK  Name = 
REMARK  5 active torsions:
REMARK  status: ('A' for Active; 'I' for Inactive)
REMARK    1  A    between atoms: N_1  and  C_2
REMARK    2  A    between atoms: C_5  and  C_6
REMARK    3  A    between atoms: C_6  and  C_8
REMARK    4  A    between atoms: C_9  and  C_10
REMARK    5  A    between atoms: C_15  and  O_16
REMARK                            x       y       z     vdW  Elec       q    Type
REMARK                         _______ _______ _______ _____ _____    ______ ____
ROOT
ATOM      1  C   UNL     1       5.676   4.184  16.806  0.00  0.00    +0.000 C 
ATOM      2  O   UNL     1       5.919   3.698  15.707  0.00  0.00    +0.000 OA
ENDROOT
BRANCH   1   6
ATOM      3  C   UNL     1       8.042   7.485  18.254  0.00  0.00    +0.000 A 
ATOM      4  C   UNL     1       7.063   7.663  17.274  0.00  0.00    +0.000 A 
ATOM      5  C   UNL     1       6.325   6.576  16.794  0.00  0.00    +0.000 A 
ATOM      6  C   UNL     1       6.517   5.298  17.331  0.00  0.00    +0.000 A 
ATOM      7  C   UNL     1       7.471   5.119  18.336  0.00  0.00    +0.000 A 
ATOM      8  C   UNL     1       8.206   6.213  18.809  0.00  0.00    +0.000 A 
BRANCH   3   9
ATOM      9  N   UNL     1       8.674   8.591  18.828  0.00  0.00    +0.000 N 
ATOM     10  H   UNL     1       9.635   8.718  18.529  0.00  0.00    +0.000 HD
ATOM     11  H   UNL     1       8.578   8.644  19.838  0.00  0.00    +0.000 HD
ENDBRANCH   3   9
ENDBRANCH   1   6
BRANCH   1  12
ATOM     12  C   UNL     1       4.510   3.747  17.621  0.00  0.00    +0.000 C 
ATOM     13  C   UNL     1       4.404   4.121  18.904  0.00  0.00    +0.000 C 
BRANCH  13  14
ATOM     14  C   UNL     1       3.286   3.663  19.734  0.00  0.00    +0.000 A 
ATOM     15  C   UNL     1       2.019   4.227  19.537  0.00  0.00    +0.000 A 
ATOM     16  C   UNL     1       0.935   3.823  20.320  0.00  0.00    +0.000 A 
ATOM     17  C   UNL     1       1.107   2.850  21.303  0.00  0.00    +0.000 A 
ATOM     18  C   UNL     1       2.365   2.282  21.511  0.00  0.00    +0.000 A 
ATOM     19  C   UNL     1       3.448   2.693  20.732  0.00  0.00    +0.000 A 
BRANCH  19  20
ATOM     20  O   UNL     1       4.686   2.152  20.948  0.00  0.00    +0.000 OA
ATOM     21  H   UNL     1       5.002   2.430  21.823  0.00  0.00    +0.000 HD
ENDBRANCH  19  20
ENDBRANCH  13  14
ENDBRANCH   1  12
TORSDOF 5
ENDMDL
