MODEL 1
REMARK VINA RESULT:      -8.6      0.000      0.000
REMARK  Name = 
REMARK  8 active torsions:
REMARK  status: ('A' for Active; 'I' for Inactive)
REMARK    1  A    between atoms: C_1  and  C_2
REMARK    2  A    between atoms: C_2  and  C_3
REMARK    3  A    between atoms: C_3  and  C_4
REMARK    4  A    between atoms: C_3  and  N_5
REMARK    5  A    between atoms: C_6  and  C_8
REMARK    6  A    between atoms: C_12  and  C_14
REMARK    7  A    between atoms: N_21  and  C_22
REMARK    8  A    between atoms: C_22  and  C_23
REMARK                            x       y       z     vdW  Elec       q    Type
REMARK                         _______ _______ _______ _____ _____    ______ ____
ROOT
ATOM      1  C   UNL     1       3.283   4.208  18.724  0.00  0.00    +0.000 C 
ATOM      2  C   UNL     1       3.066   4.968  17.406  0.00  0.00    +0.000 C 
ATOM      3  C   UNL     1       3.221   6.487  17.524  0.00  0.00    +0.000 C 
ATOM      4  N   UNL     1       2.532   7.029  18.686  0.00  0.00    +0.000 N 
ATOM      5  C   UNL     1       1.976   8.321  18.586  0.00  0.00    +0.000 C 
ATOM      6  O   UNL     1       2.092   8.967  17.545  0.00  0.00    +0.000 OA
ATOM      7  C   UNL     1       2.922   6.393  19.947  0.00  0.00    +0.000 C 
ATOM      8  C   UNL     1       2.591   4.906  19.901  0.00  0.00    +0.000 C 
ENDROOT
BRANCH   5   9
ATOM      9  C   UNL     1       1.231   8.858  19.724  0.00  0.00    +0.000 A 
ATOM     10  C   UNL     1       1.060   8.279  20.978  0.00  0.00    +0.000 A 
ATOM     11  C   UNL     1       0.389   9.233  21.784  0.00  0.00    +0.000 A 
ATOM     12  S   UNL     1      -0.090   9.440  23.434  0.00  0.00    +0.000 S 
ATOM     13  C   UNL     1      -0.800  10.950  23.029  0.00  0.00    +0.000 A 
ATOM     14  C   UNL     1      -0.709  11.277  21.693  0.00  0.00    +0.000 A 
ATOM     15  C   UNL     1       0.024  10.277  20.994  0.00  0.00    +0.000 A 
ATOM     16  N   UNL     1       0.479  10.029  19.706  0.00  0.00    +0.000 N 
BRANCH  16  17
ATOM     17  C   UNL     1       0.168  10.903  18.581  0.00  0.00    +0.000 C 
BRANCH  17  18
ATOM     18  C   UNL     1      -1.313  10.933  18.282  0.00  0.00    +0.000 A 
ATOM     19  C   UNL     1      -2.101  12.011  18.706  0.00  0.00    +0.000 A 
ATOM     20  C   UNL     1      -3.485  11.998  18.514  0.00  0.00    +0.000 A 
ATOM     21  C   UNL     1      -4.089  10.909  17.894  0.00  0.00    +0.000 A 
ATOM     22 CL   UNL     1      -5.801  10.861  17.721  0.00  0.00    +0.000 Cl
ATOM     23  C   UNL     1      -3.317   9.850  17.424  0.00  0.00    +0.000 A 
ATOM     24  C   UNL     1      -1.934   9.867  17.609  0.00  0.00    +0.000 A 
ENDBRANCH  17  18
ENDBRANCH  16  17
ENDBRANCH   5   9
BRANCH   1  26
ATOM     25  N   UNL     1       5.608   4.750  18.287  0.00  0.00    +0.000 N 
ATOM     26  C   UNL     1       4.760   3.945  19.015  0.00  0.00    +0.000 C 
ATOM     27  O   UNL     1       5.153   3.072  19.779  0.00  0.00    +0.000 OA
ATOM     28  H   UNL     1       5.220   5.495  17.724  0.00  0.00    +0.000 HD
BRANCH  25  29
ATOM     29  C   UNL     1       7.058   4.633  18.358  0.00  0.00    +0.000 C 
ATOM     30  C   UNL     1       7.636   5.810  19.142  0.00  0.00    +0.000 C 
BRANCH  29  32
ATOM     31  C   UNL     1       6.603   4.289  15.875  0.00  0.00    +0.000 C 
ATOM     32  C   UNL     1       7.653   4.576  16.943  0.00  0.00    +0.000 C 
ENDBRANCH  29  32
ENDBRANCH  25  29
ENDBRANCH   1  26
TORSDOF 6
ENDMDL
MODEL 2
REMARK VINA RESULT:      -8.2      2.317      2.946
REMARK  Name = 
REMARK  8 active torsions:
REMARK  status: ('A' for Active; 'I' for Inactive)
REMARK    1  A    between atoms: C_1  and  C_2
REMARK    2  A    between atoms: C_2  and  C_3
REMARK    3  A    between atoms: C_3  and  C_4
REMARK    4  A    between atoms: C_3  and  N_5
REMARK    5  A    between atoms: C_6  and  C_8
REMARK    6  A    between atoms: C_12  and  C_14
REMARK    7  A    between atoms: N_21  and  C_22
REMARK    8  A    between atoms: C_22  and  C_23
REMARK                            x       y       z     vdW  Elec       q    Type
REMARK                         _______ _______ _______ _____ _____    ______ ____
ROOT
ATOM      1  C   UNL     1       3.174   4.334  18.682  0.00  0.00    +0.000 C 
ATOM      2  C   UNL     1       3.016   5.127  17.376  0.00  0.00    +0.000 C 
ATOM      3  C   UNL     1       3.190   6.640  17.533  0.00  0.00    +0.000 C 
ATOM      4  N   UNL     1       2.468   7.167  18.683  0.00  0.00    +0.000 N 
ATOM      5  C   UNL     1       1.935   8.469  18.593  0.00  0.00    +0.000 C 
ATOM      6  O   UNL     1       2.098   9.137  17.572  0.00  0.00    +0.000 OA
ATOM      7  C   UNL     1       2.803   6.497  19.942  0.00  0.00    +0.000 C 
ATOM      8  C   UNL     1       2.452   5.016  19.850  0.00  0.00    +0.000 C 
ENDROOT
BRANCH   5   9
ATOM      9  C   UNL     1       1.158   8.992  19.717  0.00  0.00    +0.000 A 
ATOM     10  C   UNL     1       0.989   8.419  20.974  0.00  0.00    +0.000 A 
ATOM     11  C   UNL     1       0.277   9.358  21.761  0.00  0.00    +0.000 A 
ATOM     12  S   UNL     1      -0.230   9.564  23.403  0.00  0.00    +0.000 S 
ATOM     13  C   UNL     1      -0.983  11.047  22.975  0.00  0.00    +0.000 A 
ATOM     14  C   UNL     1      -0.885  11.365  21.637  0.00  0.00    +0.000 A 
ATOM     15  C   UNL     1      -0.110  10.383  20.957  0.00  0.00    +0.000 A 
ATOM     16  N   UNL     1       0.369  10.138  19.678  0.00  0.00    +0.000 N 
BRANCH  16  17
ATOM     17  C   UNL     1       0.046  10.992  18.541  0.00  0.00    +0.000 C 
BRANCH  17  18
ATOM     18  C   UNL     1       0.702  12.349  18.649  0.00  0.00    +0.000 A 
ATOM     19  C   UNL     1      -0.078  13.507  18.769  0.00  0.00    +0.000 A 
ATOM     20  C   UNL     1       0.519  14.769  18.775  0.00  0.00    +0.000 A 
ATOM     21  C   UNL     1       1.902  14.882  18.665  0.00  0.00    +0.000 A 
ATOM     22 CL   UNL     1       2.633  16.439  18.601  0.00  0.00    +0.000 Cl
ATOM     23  C   UNL     1       2.697  13.742  18.592  0.00  0.00    +0.000 A 
ATOM     24  C   UNL     1       2.099  12.481  18.594  0.00  0.00    +0.000 A 
ENDBRANCH  17  18
ENDBRANCH  16  17
ENDBRANCH   5   9
BRANCH   1  26
ATOM     25  N   UNL     1       5.524   4.789  18.278  0.00  0.00    +0.000 N 
ATOM     26  C   UNL     1       4.636   4.041  19.019  0.00  0.00    +0.000 C 
ATOM     27  O   UNL     1       4.986   3.191  19.828  0.00  0.00    +0.000 OA
ATOM     28  H   UNL     1       5.171   5.521  17.676  0.00  0.00    +0.000 HD
BRANCH  25  29
ATOM     29  C   UNL     1       6.967   4.634  18.388  0.00  0.00    +0.000 C 
ATOM     30  C   UNL     1       7.546   5.755  19.250  0.00  0.00    +0.000 C 
BRANCH  29  32
ATOM     31  C   UNL     1       6.631   4.211  15.900  0.00  0.00    +0.000 C 
ATOM     32  C   UNL     1       7.607   4.634  16.992  0.00  0.00    +0.000 C 
ENDBRANCH  29  32
ENDBRANCH  25  29
ENDBRANCH   1  26
TORSDOF 6
ENDMDL
MODEL 3
REMARK VINA RESULT:      -8.0      2.483      3.143
REMARK  Name = 
REMARK  8 active torsions:
REMARK  status: ('A' for Active; 'I' for Inactive)
REMARK    1  A    between atoms: C_1  and  C_2
REMARK    2  A    between atoms: C_2  and  C_3
REMARK    3  A    between atoms: C_3  and  C_4
REMARK    4  A    between atoms: C_3  and  N_5
REMARK    5  A    between atoms: C_6  and  C_8
REMARK    6  A    between atoms: C_12  and  C_14
REMARK    7  A    between atoms: N_21  and  C_22
REMARK    8  A    between atoms: C_22  and  C_23
REMARK                            x       y       z     vdW  Elec       q    Type
REMARK                         _______ _______ _______ _____ _____    ______ ____
ROOT
ATOM      1  C   UNL     1       3.339   4.867  18.641  0.00  0.00    +0.000 C 
ATOM      2  C   UNL     1       3.147   5.647  17.331  0.00  0.00    +0.000 C 
ATOM      3  C   UNL     1       3.222   7.168  17.488  0.00  0.00    +0.000 C 
ATOM      4  N   UNL     1       2.452   7.649  18.627  0.00  0.00    +0.000 N 
ATOM      5  C   UNL     1       1.838   8.915  18.528  0.00  0.00    +0.000 C 
ATOM      6  O   UNL     1       1.972   9.590  17.507  0.00  0.00    +0.000 OA
ATOM      7  C   UNL     1       2.812   7.003  19.892  0.00  0.00    +0.000 C 
ATOM      8  C   UNL     1       2.558   5.503  19.797  0.00  0.00    +0.000 C 
ENDROOT
BRANCH   5   9
ATOM      9  C   UNL     1       1.014   9.387  19.640  0.00  0.00    +0.000 A 
ATOM     10  C   UNL     1       0.820   8.776  20.874  0.00  0.00    +0.000 A 
ATOM     11  C   UNL     1       0.061   9.675  21.665  0.00  0.00    +0.000 A 
ATOM     12  S   UNL     1      -0.502   9.824  23.295  0.00  0.00    +0.000 S 
ATOM     13  C   UNL     1      -1.277  11.300  22.883  0.00  0.00    +0.000 A 
ATOM     14  C   UNL     1      -1.144  11.657  21.558  0.00  0.00    +0.000 A 
ATOM     15  C   UNL     1      -0.325  10.713  20.876  0.00  0.00    +0.000 A 
ATOM     16  N   UNL     1       0.200  10.516  19.607  0.00  0.00    +0.000 N 
BRANCH  16  17
ATOM     17  C   UNL     1      -0.108  11.393  18.484  0.00  0.00    +0.000 C 
BRANCH  17  18
ATOM     18  C   UNL     1       0.579  12.733  18.609  0.00  0.00    +0.000 A 
ATOM     19  C   UNL     1       1.976  12.823  18.536  0.00  0.00    +0.000 A 
ATOM     20  C   UNL     1       2.622  14.044  18.745  0.00  0.00    +0.000 A 
ATOM     21  C   UNL     1       1.874  15.185  19.024  0.00  0.00    +0.000 A 
ATOM     22 CL   UNL     1       2.672  16.674  19.351  0.00  0.00    +0.000 Cl
ATOM     23  C   UNL     1       0.484  15.124  19.054  0.00  0.00    +0.000 A 
ATOM     24  C   UNL     1      -0.160  13.905  18.838  0.00  0.00    +0.000 A 
ENDBRANCH  17  18
ENDBRANCH  16  17
ENDBRANCH   5   9
BRANCH   1  26
ATOM     25  N   UNL     1       5.653   5.526  18.323  0.00  0.00    +0.000 N 
ATOM     26  C   UNL     1       4.812   4.669  18.997  0.00  0.00    +0.000 C 
ATOM     27  O   UNL     1       5.210   3.803  19.766  0.00  0.00    +0.000 OA
ATOM     28  H   UNL     1       5.256   6.261  17.754  0.00  0.00    +0.000 HD
BRANCH  25  29
ATOM     29  C   UNL     1       7.102   5.476  18.461  0.00  0.00    +0.000 C 
ATOM     30  C   UNL     1       7.691   6.871  18.256  0.00  0.00    +0.000 C 
BRANCH  29  32
ATOM     31  C   UNL     1       7.030   4.564  16.084  0.00  0.00    +0.000 C 
ATOM     32  C   UNL     1       7.694   4.480  17.454  0.00  0.00    +0.000 C 
ENDBRANCH  29  32
ENDBRANCH  25  29
ENDBRANCH   1  26
TORSDOF 6
ENDMDL
MODEL 4
REMARK VINA RESULT:      -7.7      0.775      1.092
REMARK  Name = 
REMARK  8 active torsions:
REMARK  status: ('A' for Active; 'I' for Inactive)
REMARK    1  A    between atoms: C_1  and  C_2
REMARK    2  A    between atoms: C_2  and  C_3
REMARK    3  A    between atoms: C_3  and  C_4
REMARK    4  A    between atoms: C_3  and  N_5
REMARK    5  A    between atoms: C_6  and  C_8
REMARK    6  A    between atoms: C_12  and  C_14
REMARK    7  A    between atoms: N_21  and  C_22
REMARK    8  A    between atoms: C_22  and  C_23
REMARK                            x       y       z     vdW  Elec       q    Type
REMARK                         _______ _______ _______ _____ _____    ______ ____
ROOT
ATOM      1  C   UNL     1       3.652   4.719  18.596  0.00  0.00    +0.000 C 
ATOM      2  C   UNL     1       3.235   5.420  17.293  0.00  0.00    +0.000 C 
ATOM      3  C   UNL     1       3.191   6.947  17.387  0.00  0.00    +0.000 C 
ATOM      4  N   UNL     1       2.524   7.412  18.595  0.00  0.00    +0.000 N 
ATOM      5  C   UNL     1       1.792   8.615  18.529  0.00  0.00    +0.000 C 
ATOM      6  O   UNL     1       1.741   9.253  17.477  0.00  0.00    +0.000 OA
ATOM      7  C   UNL     1       3.090   6.857  19.827  0.00  0.00    +0.000 C 
ATOM      8  C   UNL     1       2.962   5.338  19.817  0.00  0.00    +0.000 C 
ENDROOT
BRANCH   5   9
ATOM      9  C   UNL     1       1.069   9.067  19.717  0.00  0.00    +0.000 A 
ATOM     10  C   UNL     1       0.956   8.417  20.942  0.00  0.00    +0.000 A 
ATOM     11  C   UNL     1       0.284   9.304  21.819  0.00  0.00    +0.000 A 
ATOM     12  S   UNL     1      -0.147   9.409  23.492  0.00  0.00    +0.000 S 
ATOM     13  C   UNL     1      -0.916  10.914  23.191  0.00  0.00    +0.000 A 
ATOM     14  C   UNL     1      -0.879  11.314  21.873  0.00  0.00    +0.000 A 
ATOM     15  C   UNL     1      -0.138  10.377  21.098  0.00  0.00    +0.000 A 
ATOM     16  N   UNL     1       0.282  10.213  19.785  0.00  0.00    +0.000 N 
BRANCH  16  17
ATOM     17  C   UNL     1      -0.092  11.135  18.720  0.00  0.00    +0.000 C 
BRANCH  17  18
ATOM     18  C   UNL     1      -1.575  11.094  18.432  0.00  0.00    +0.000 A 
ATOM     19  C   UNL     1      -2.425  12.086  18.939  0.00  0.00    +0.000 A 
ATOM     20  C   UNL     1      -3.807  12.002  18.755  0.00  0.00    +0.000 A 
ATOM     21  C   UNL     1      -4.349  10.925  18.060  0.00  0.00    +0.000 A 
ATOM     22 CL   UNL     1      -6.056  10.783  17.894  0.00  0.00    +0.000 Cl
ATOM     23  C   UNL     1      -3.518   9.954  17.508  0.00  0.00    +0.000 A 
ATOM     24  C   UNL     1      -2.136  10.044  17.686  0.00  0.00    +0.000 A 
ENDBRANCH  17  18
ENDBRANCH  16  17
ENDBRANCH   5   9
BRANCH   1  26
ATOM     25  N   UNL     1       5.830   5.671  18.110  0.00  0.00    +0.000 N 
ATOM     26  C   UNL     1       5.169   4.663  18.774  0.00  0.00    +0.000 C 
ATOM     27  O   UNL     1       5.743   3.781  19.400  0.00  0.00    +0.000 OA
ATOM     28  H   UNL     1       5.295   6.405  17.667  0.00  0.00    +0.000 HD
BRANCH  25  29
ATOM     29  C   UNL     1       7.283   5.780  18.091  0.00  0.00    +0.000 C 
ATOM     30  C   UNL     1       7.822   5.792  19.520  0.00  0.00    +0.000 C 
BRANCH  29  32
ATOM     31  C   UNL     1       8.271   8.121  18.261  0.00  0.00    +0.000 C 
ATOM     32  C   UNL     1       7.707   7.048  17.336  0.00  0.00    +0.000 C 
ENDBRANCH  29  32
ENDBRANCH  25  29
ENDBRANCH   1  26
TORSDOF 6
ENDMDL
MODEL 5
REMARK VINA RESULT:      -7.7      2.658      4.771
REMARK  Name = 
REMARK  8 active torsions:
REMARK  status: ('A' for Active; 'I' for Inactive)
REMARK    1  A    between atoms: C_1  and  C_2
REMARK    2  A    between atoms: C_2  and  C_3
REMARK    3  A    between atoms: C_3  and  C_4
REMARK    4  A    between atoms: C_3  and  N_5
REMARK    5  A    between atoms: C_6  and  C_8
REMARK    6  A    between atoms: C_12  and  C_14
REMARK    7  A    between atoms: N_21  and  C_22
REMARK    8  A    between atoms: C_22  and  C_23
REMARK                            x       y       z     vdW  Elec       q    Type
REMARK                         _______ _______ _______ _____ _____    ______ ____
ROOT
ATOM      1  C   UNL     1       0.881   9.579  18.660  0.00  0.00    +0.000 C 
ATOM      2  C   UNL     1       1.613  10.926  18.763  0.00  0.00    +0.000 C 
ATOM      3  C   UNL     1       1.575  11.557  20.157  0.00  0.00    +0.000 C 
ATOM      4  N   UNL     1       0.247  11.515  20.752  0.00  0.00    +0.000 N 
ATOM      5  C   UNL     1      -0.137  12.576  21.597  0.00  0.00    +0.000 C 
ATOM      6  O   UNL     1       0.645  13.498  21.830  0.00  0.00    +0.000 OA
ATOM      7  C   UNL     1      -0.329  10.168  20.803  0.00  0.00    +0.000 C 
ATOM      8  C   UNL     1      -0.466   9.610  19.392  0.00  0.00    +0.000 C 
ENDROOT
BRANCH   5   9
ATOM      9  C   UNL     1      -1.488  12.578  22.157  0.00  0.00    +0.000 A 
ATOM     10  C   UNL     1      -1.922  11.978  23.335  0.00  0.00    +0.000 A 
ATOM     11  C   UNL     1      -3.270  12.372  23.526  0.00  0.00    +0.000 A 
ATOM     12  S   UNL     1      -4.509  12.241  24.727  0.00  0.00    +0.000 S 
ATOM     13  C   UNL     1      -5.584  13.098  23.698  0.00  0.00    +0.000 A 
ATOM     14  C   UNL     1      -5.043  13.446  22.480  0.00  0.00    +0.000 A 
ATOM     15  C   UNL     1      -3.678  13.046  22.419  0.00  0.00    +0.000 A 
ATOM     16  N   UNL     1      -2.609  13.124  21.537  0.00  0.00    +0.000 N 
BRANCH  16  17
ATOM     17  C   UNL     1      -2.733  13.694  20.201  0.00  0.00    +0.000 C 
BRANCH  17  18
ATOM     18  C   UNL     1      -2.843  12.626  19.139  0.00  0.00    +0.000 A 
ATOM     19  C   UNL     1      -1.816  12.446  18.202  0.00  0.00    +0.000 A 
ATOM     20  C   UNL     1      -1.954  11.525  17.162  0.00  0.00    +0.000 A 
ATOM     21  C   UNL     1      -3.119  10.771  17.054  0.00  0.00    +0.000 A 
ATOM     22 CL   UNL     1      -3.320   9.686  15.733  0.00  0.00    +0.000 Cl
ATOM     23  C   UNL     1      -4.131  10.901  18.001  0.00  0.00    +0.000 A 
ATOM     24  C   UNL     1      -3.988  11.817  19.044  0.00  0.00    +0.000 A 
ENDBRANCH  17  18
ENDBRANCH  16  17
ENDBRANCH   5   9
BRANCH   1  26
ATOM     25  N   UNL     1       2.404   7.778  18.086  0.00  0.00    +0.000 N 
ATOM     26  C   UNL     1       1.744   8.404  19.120  0.00  0.00    +0.000 C 
ATOM     27  O   UNL     1       1.803   8.024  20.283  0.00  0.00    +0.000 OA
ATOM     28  H   UNL     1       2.365   8.181  17.160  0.00  0.00    +0.000 HD
BRANCH  25  29
ATOM     29  C   UNL     1       3.234   6.598  18.283  0.00  0.00    +0.000 C 
ATOM     30  C   UNL     1       4.385   6.600  17.279  0.00  0.00    +0.000 C 
BRANCH  29  32
ATOM     31  C   UNL     1       2.731   4.269  19.182  0.00  0.00    +0.000 C 
ATOM     32  C   UNL     1       2.386   5.326  18.139  0.00  0.00    +0.000 C 
ENDBRANCH  29  32
ENDBRANCH  25  29
ENDBRANCH   1  26
TORSDOF 6
ENDMDL
MODEL 6
REMARK VINA RESULT:      -7.6      3.670      9.085
REMARK  Name = 
REMARK  8 active torsions:
REMARK  status: ('A' for Active; 'I' for Inactive)
REMARK    1  A    between atoms: C_1  and  C_2
REMARK    2  A    between atoms: C_2  and  C_3
REMARK    3  A    between atoms: C_3  and  C_4
REMARK    4  A    between atoms: C_3  and  N_5
REMARK    5  A    between atoms: C_6  and  C_8
REMARK    6  A    between atoms: C_12  and  C_14
REMARK    7  A    between atoms: N_21  and  C_22
REMARK    8  A    between atoms: C_22  and  C_23
REMARK                            x       y       z     vdW  Elec       q    Type
REMARK                         _______ _______ _______ _____ _____    ______ ____
ROOT
ATOM      1  C   UNL     1       0.980  10.559  21.946  0.00  0.00    +0.000 C 
ATOM      2  C   UNL     1       1.439  10.937  20.529  0.00  0.00    +0.000 C 
ATOM      3  C   UNL     1       1.150   9.872  19.469  0.00  0.00    +0.000 C 
ATOM      4  N   UNL     1       1.511   8.532  19.912  0.00  0.00    +0.000 N 
ATOM      5  C   UNL     1       1.980   7.616  18.948  0.00  0.00    +0.000 C 
ATOM      6  O   UNL     1       2.060   7.948  17.765  0.00  0.00    +0.000 OA
ATOM      7  C   UNL     1       0.889   8.148  21.182  0.00  0.00    +0.000 C 
ATOM      8  C   UNL     1       1.328   9.105  22.284  0.00  0.00    +0.000 C 
ENDROOT
BRANCH   5   9
ATOM      9  C   UNL     1       2.401   6.287  19.386  0.00  0.00    +0.000 A 
ATOM     10  C   UNL     1       1.639   5.325  20.042  0.00  0.00    +0.000 A 
ATOM     11  C   UNL     1       2.434   4.156  20.128  0.00  0.00    +0.000 A 
ATOM     12  S   UNL     1       2.277   2.504  20.621  0.00  0.00    +0.000 S 
ATOM     13  C   UNL     1       3.930   2.241  20.238  0.00  0.00    +0.000 A 
ATOM     14  C   UNL     1       4.589   3.362  19.782  0.00  0.00    +0.000 A 
ATOM     15  C   UNL     1       3.685   4.458  19.689  0.00  0.00    +0.000 A 
ATOM     16  N   UNL     1       3.697   5.787  19.290  0.00  0.00    +0.000 N 
BRANCH  16  17
ATOM     17  C   UNL     1       4.914   6.467  18.861  0.00  0.00    +0.000 C 
BRANCH  17  18
ATOM     18  C   UNL     1       5.433   5.922  17.552  0.00  0.00    +0.000 A 
ATOM     19  C   UNL     1       6.619   5.176  17.513  0.00  0.00    +0.000 A 
ATOM     20  C   UNL     1       7.153   4.750  16.295  0.00  0.00    +0.000 A 
ATOM     21  C   UNL     1       6.502   5.064  15.106  0.00  0.00    +0.000 A 
ATOM     22 CL   UNL     1       7.195   4.601  13.600  0.00  0.00    +0.000 Cl
ATOM     23  C   UNL     1       5.298   5.763  15.126  0.00  0.00    +0.000 A 
ATOM     24  C   UNL     1       4.762   6.181  16.345  0.00  0.00    +0.000 A 
ENDBRANCH  17  18
ENDBRANCH  16  17
ENDBRANCH   5   9
BRANCH   1  26
ATOM     25  N   UNL     1      -0.990  11.860  21.380  0.00  0.00    +0.000 N 
ATOM     26  C   UNL     1      -0.502  10.852  22.181  0.00  0.00    +0.000 C 
ATOM     27  O   UNL     1      -1.175  10.284  23.033  0.00  0.00    +0.000 OA
ATOM     28  H   UNL     1      -0.401  12.242  20.653  0.00  0.00    +0.000 HD
BRANCH  25  29
ATOM     29  C   UNL     1      -2.359  12.348  21.476  0.00  0.00    +0.000 C 
ATOM     30  C   UNL     1      -2.907  12.634  20.079  0.00  0.00    +0.000 C 
BRANCH  29  32
ATOM     31  C   UNL     1      -3.269  14.711  21.742  0.00  0.00    +0.000 C 
ATOM     32  C   UNL     1      -2.411  13.608  22.351  0.00  0.00    +0.000 C 
ENDBRANCH  29  32
ENDBRANCH  25  29
ENDBRANCH   1  26
TORSDOF 6
ENDMDL
MODEL 7
REMARK VINA RESULT:      -7.6      5.146      8.435
REMARK  Name = 
REMARK  8 active torsions:
REMARK  status: ('A' for Active; 'I' for Inactive)
REMARK    1  A    between atoms: C_1  and  C_2
REMARK    2  A    between atoms: C_2  and  C_3
REMARK    3  A    between atoms: C_3  and  C_4
REMARK    4  A    between atoms: C_3  and  N_5
REMARK    5  A    between atoms: C_6  and  C_8
REMARK    6  A    between atoms: C_12  and  C_14
REMARK    7  A    between atoms: N_21  and  C_22
REMARK    8  A    between atoms: C_22  and  C_23
REMARK                            x       y       z     vdW  Elec       q    Type
REMARK                         _______ _______ _______ _____ _____    ______ ____
ROOT
ATOM      1  C   UNL     1       2.535  16.155  19.385  0.00  0.00    +0.000 C 
ATOM      2  C   UNL     1       2.671  15.573  20.801  0.00  0.00    +0.000 C 
ATOM      3  C   UNL     1       2.685  14.043  20.854  0.00  0.00    +0.000 C 
ATOM      4  N   UNL     1       1.648  13.447  20.024  0.00  0.00    +0.000 N 
ATOM      5  C   UNL     1       1.063  12.239  20.456  0.00  0.00    +0.000 C 
ATOM      6  O   UNL     1       1.442  11.706  21.499  0.00  0.00    +0.000 OA
ATOM      7  C   UNL     1       1.685  13.894  18.629  0.00  0.00    +0.000 C 
ATOM      8  C   UNL     1       1.481  15.403  18.563  0.00  0.00    +0.000 C 
ENDROOT
BRANCH   5   9
ATOM      9  C   UNL     1      -0.020  11.657  19.664  0.00  0.00    +0.000 A 
ATOM     10  C   UNL     1      -1.390  11.802  19.861  0.00  0.00    +0.000 A 
ATOM     11  C   UNL     1      -2.032  11.175  18.763  0.00  0.00    +0.000 A 
ATOM     12  S   UNL     1      -3.627  10.992  18.117  0.00  0.00    +0.000 S 
ATOM     13  C   UNL     1      -2.991  10.027  16.846  0.00  0.00    +0.000 A 
ATOM     14  C   UNL     1      -1.630   9.822  16.919  0.00  0.00    +0.000 A 
ATOM     15  C   UNL     1      -1.087  10.536  18.025  0.00  0.00    +0.000 A 
ATOM     16  N   UNL     1       0.152  10.769  18.606  0.00  0.00    +0.000 N 
BRANCH  16  17
ATOM     17  C   UNL     1       1.377  10.141  18.124  0.00  0.00    +0.000 C 
BRANCH  17  18
ATOM     18  C   UNL     1       1.665   8.843  18.840  0.00  0.00    +0.000 A 
ATOM     19  C   UNL     1       2.294   7.786  18.169  0.00  0.00    +0.000 A 
ATOM     20  C   UNL     1       2.477   6.552  18.798  0.00  0.00    +0.000 A 
ATOM     21  C   UNL     1       2.036   6.368  20.105  0.00  0.00    +0.000 A 
ATOM     22 CL   UNL     1       2.198   4.828  20.856  0.00  0.00    +0.000 Cl
ATOM     23  C   UNL     1       1.451   7.420  20.804  0.00  0.00    +0.000 A 
ATOM     24  C   UNL     1       1.276   8.655  20.177  0.00  0.00    +0.000 A 
ENDBRANCH  17  18
ENDBRANCH  16  17
ENDBRANCH   5   9
BRANCH   1  26
ATOM     25  N   UNL     1       4.907  16.666  19.447  0.00  0.00    +0.000 N 
ATOM     26  C   UNL     1       3.873  16.230  18.650  0.00  0.00    +0.000 C 
ATOM     27  O   UNL     1       4.004  15.977  17.458  0.00  0.00    +0.000 OA
ATOM     28  H   UNL     1       4.747  16.793  20.438  0.00  0.00    +0.000 HD
BRANCH  25  29
ATOM     29  C   UNL     1       6.258  16.871  18.943  0.00  0.00    +0.000 C 
ATOM     30  C   UNL     1       6.949  15.523  18.746  0.00  0.00    +0.000 C 
BRANCH  29  32
ATOM     31  C   UNL     1       7.624  16.974  21.090  0.00  0.00    +0.000 C 
ATOM     32  C   UNL     1       7.055  17.756  19.912  0.00  0.00    +0.000 C 
ENDBRANCH  29  32
ENDBRANCH  25  29
ENDBRANCH   1  26
TORSDOF 6
ENDMDL
MODEL 8
REMARK VINA RESULT:      -7.5      6.457      8.077
REMARK  Name = 
REMARK  8 active torsions:
REMARK  status: ('A' for Active; 'I' for Inactive)
REMARK    1  A    between atoms: C_1  and  C_2
REMARK    2  A    between atoms: C_2  and  C_3
REMARK    3  A    between atoms: C_3  and  C_4
REMARK    4  A    between atoms: C_3  and  N_5
REMARK    5  A    between atoms: C_6  and  C_8
REMARK    6  A    between atoms: C_12  and  C_14
REMARK    7  A    between atoms: N_21  and  C_22
REMARK    8  A    between atoms: C_22  and  C_23
REMARK                            x       y       z     vdW  Elec       q    Type
REMARK                         _______ _______ _______ _____ _____    ______ ____
ROOT
ATOM      1  C   UNL     1       7.771  14.915  18.118  0.00  0.00    +0.000 C 
ATOM      2  C   UNL     1       8.016  15.371  19.565  0.00  0.00    +0.000 C 
ATOM      3  C   UNL     1       6.874  15.042  20.530  0.00  0.00    +0.000 C 
ATOM      4  N   UNL     1       5.566  15.369  19.978  0.00  0.00    +0.000 N 
ATOM      5  C   UNL     1       4.560  15.802  20.865  0.00  0.00    +0.000 C 
ATOM      6  O   UNL     1       4.789  15.881  22.072  0.00  0.00    +0.000 OA
ATOM      7  C   UNL     1       5.308  14.748  18.676  0.00  0.00    +0.000 C 
ATOM      8  C   UNL     1       6.341  15.224  17.661  0.00  0.00    +0.000 C 
ENDROOT
BRANCH   5   9
ATOM      9  C   UNL     1       3.259  16.189  20.320  0.00  0.00    +0.000 A 
ATOM     10  C   UNL     1       2.924  17.379  19.682  0.00  0.00    +0.000 A 
ATOM     11  C   UNL     1       1.596  17.234  19.209  0.00  0.00    +0.000 A 
ATOM     12  S   UNL     1       0.459  18.094  18.227  0.00  0.00    +0.000 S 
ATOM     13  C   UNL     1      -0.697  16.854  18.496  0.00  0.00    +0.000 A 
ATOM     14  C   UNL     1      -0.258  15.840  19.319  0.00  0.00    +0.000 A 
ATOM     15  C   UNL     1       1.098  16.065  19.691  0.00  0.00    +0.000 A 
ATOM     16  N   UNL     1       2.091  15.441  20.434  0.00  0.00    +0.000 N 
BRANCH  16  17
ATOM     17  C   UNL     1       1.858  14.210  21.180  0.00  0.00    +0.000 C 
BRANCH  17  18
ATOM     18  C   UNL     1       1.643  13.027  20.266  0.00  0.00    +0.000 A 
ATOM     19  C   UNL     1       0.787  11.983  20.643  0.00  0.00    +0.000 A 
ATOM     20  C   UNL     1       0.659  10.845  19.845  0.00  0.00    +0.000 A 
ATOM     21  C   UNL     1       1.382  10.744  18.660  0.00  0.00    +0.000 A 
ATOM     22 CL   UNL     1       1.278   9.312  17.711  0.00  0.00    +0.000 Cl
ATOM     23  C   UNL     1       2.200  11.790  18.244  0.00  0.00    +0.000 A 
ATOM     24  C   UNL     1       2.322  12.931  19.040  0.00  0.00    +0.000 A 
ENDBRANCH  17  18
ENDBRANCH  16  17
ENDBRANCH   5   9
BRANCH   1  26
ATOM     25  N   UNL     1       9.127  12.997  18.730  0.00  0.00    +0.000 N 
ATOM     26  C   UNL     1       8.126  13.444  17.898  0.00  0.00    +0.000 C 
ATOM     27  O   UNL     1       7.609  12.747  17.033  0.00  0.00    +0.000 OA
ATOM     28  H   UNL     1       9.464  13.602  19.466  0.00  0.00    +0.000 HD
BRANCH  25  29
ATOM     29  C   UNL     1       9.668  11.647  18.656  0.00  0.00    +0.000 C 
ATOM     30  C   UNL     1       9.524  10.954  20.010  0.00  0.00    +0.000 C 
BRANCH  29  32
ATOM     31  C   UNL     1      12.103  11.677  19.400  0.00  0.00    +0.000 C 
ATOM     32  C   UNL     1      11.139  11.691  18.219  0.00  0.00    +0.000 C 
ENDBRANCH  29  32
ENDBRANCH  25  29
ENDBRANCH   1  26
TORSDOF 6
ENDMDL
MODEL 9
REMARK VINA RESULT:      -7.5      2.907      4.054
REMARK  Name = 
REMARK  8 active torsions:
REMARK  status: ('A' for Active; 'I' for Inactive)
REMARK    1  A    between atoms: C_1  and  C_2
REMARK    2  A    between atoms: C_2  and  C_3
REMARK    3  A    between atoms: C_3  and  C_4
REMARK    4  A    between atoms: C_3  and  N_5
REMARK    5  A    between atoms: C_6  and  C_8
REMARK    6  A    between atoms: C_12  and  C_14
REMARK    7  A    between atoms: N_21  and  C_22
REMARK    8  A    between atoms: C_22  and  C_23
REMARK                            x       y       z     vdW  Elec       q    Type
REMARK                         _______ _______ _______ _____ _____    ______ ____
ROOT
ATOM      1  C   UNL     1       2.771   6.798  19.307  0.00  0.00    +0.000 C 
ATOM      2  C   UNL     1       2.305   6.729  20.770  0.00  0.00    +0.000 C 
ATOM      3  C   UNL     1       1.037   7.534  21.065  0.00  0.00    +0.000 C 
ATOM      4  N   UNL     1       1.073   8.866  20.478  0.00  0.00    +0.000 N 
ATOM      5  C   UNL     1       0.431   9.914  21.168  0.00  0.00    +0.000 C 
ATOM      6  O   UNL     1      -0.155   9.692  22.227  0.00  0.00    +0.000 OA
ATOM      7  C   UNL     1       1.333   8.863  19.036  0.00  0.00    +0.000 C 
ATOM      8  C   UNL     1       2.689   8.226  18.755  0.00  0.00    +0.000 C 
ENDROOT
BRANCH   5   9
ATOM      9  C   UNL     1       0.507  11.269  20.621  0.00  0.00    +0.000 A 
ATOM     10  C   UNL     1       1.601  12.129  20.629  0.00  0.00    +0.000 A 
ATOM     11  C   UNL     1       1.238  13.264  19.862  0.00  0.00    +0.000 A 
ATOM     12  S   UNL     1       1.969  14.702  19.235  0.00  0.00    +0.000 S 
ATOM     13  C   UNL     1       0.460  15.162  18.556  0.00  0.00    +0.000 A 
ATOM     14  C   UNL     1      -0.568  14.282  18.815  0.00  0.00    +0.000 A 
ATOM     15  C   UNL     1      -0.080  13.161  19.546  0.00  0.00    +0.000 A 
ATOM     16  N   UNL     1      -0.561  11.967  20.064  0.00  0.00    +0.000 N 
BRANCH  16  17
ATOM     17  C   UNL     1      -1.968  11.591  19.996  0.00  0.00    +0.000 C 
BRANCH  17  18
ATOM     18  C   UNL     1      -2.394  11.255  18.586  0.00  0.00    +0.000 A 
ATOM     19  C   UNL     1      -3.566  11.806  18.048  0.00  0.00    +0.000 A 
ATOM     20  C   UNL     1      -4.014  11.426  16.781  0.00  0.00    +0.000 A 
ATOM     21  C   UNL     1      -3.291  10.495  16.040  0.00  0.00    +0.000 A 
ATOM     22 CL   UNL     1      -3.878   9.974  14.510  0.00  0.00    +0.000 Cl
ATOM     23  C   UNL     1      -2.100   9.973  16.538  0.00  0.00    +0.000 A 
ATOM     24  C   UNL     1      -1.649  10.359  17.801  0.00  0.00    +0.000 A 
ENDBRANCH  17  18
ENDBRANCH  16  17
ENDBRANCH   5   9
BRANCH   1  26
ATOM     25  N   UNL     1       2.044   4.519  18.900  0.00  0.00    +0.000 N 
ATOM     26  C   UNL     1       2.036   5.804  18.408  0.00  0.00    +0.000 C 
ATOM     27  O   UNL     1       1.535   6.110  17.333  0.00  0.00    +0.000 OA
ATOM     28  H   UNL     1       2.416   4.346  19.824  0.00  0.00    +0.000 HD
BRANCH  25  29
ATOM     29  C   UNL     1       1.457   3.397  18.181  0.00  0.00    +0.000 C 
ATOM     30  C   UNL     1       0.700   2.495  19.154  0.00  0.00    +0.000 C 
BRANCH  29  32
ATOM     31  C   UNL     1       3.368   1.726  18.381  0.00  0.00    +0.000 C 
ATOM     32  C   UNL     1       2.551   2.610  17.445  0.00  0.00    +0.000 C 
ENDBRANCH  29  32
ENDBRANCH  25  29
ENDBRANCH   1  26
TORSDOF 6
ENDMDL
