MODEL 1
REMARK VINA RESULT:      -8.0      0.000      0.000
REMARK  Name = 
REMARK  11 active torsions:
REMARK  status: ('A' for Active; 'I' for Inactive)
REMARK    1  A    between atoms: C_1  and  O_2
REMARK    2  A    between atoms: O_2  and  C_3
REMARK    3  A    between atoms: C_6  and  C_7
REMARK    4  A    between atoms: C_9  and  O_10
REMARK    5  A    between atoms: O_10  and  C_11
REMARK    6  A    between atoms: C_11  and  C_12
REMARK    7  A    between atoms: C_12  and  N_13
REMARK    8  A    between atoms: C_20  and  C_21
REMARK    9  A    between atoms: C_26  and  N_27
REMARK   10  A    between atoms: C_32  and  O_33
REMARK   11  A    between atoms: O_33  and  C_34
REMARK                            x       y       z     vdW  Elec       q    Type
REMARK                         _______ _______ _______ _____ _____    ______ ____
ROOT
ATOM      1  C   UNL     1       2.967   7.110  18.512  0.00  0.00    +0.000 A 
ATOM      2  C   UNL     1       2.591   8.268  17.818  0.00  0.00    +0.000 A 
ATOM      3  C   UNL     1       1.762   9.273  18.346  0.00  0.00    +0.000 A 
ATOM      4  C   UNL     1       1.136   8.997  19.579  0.00  0.00    +0.000 A 
ATOM      5  C   UNL     1       0.126   9.595  20.396  0.00  0.00    +0.000 A 
ATOM      6  C   UNL     1       0.168   8.936  21.609  0.00  0.00    +0.000 A 
ATOM      7  O   UNL     1       1.004   7.867  21.534  0.00  0.00    +0.000 OA
ATOM      8  C   UNL     1       1.560   7.876  20.289  0.00  0.00    +0.000 A 
ATOM      9  C   UNL     1       2.459   6.919  19.804  0.00  0.00    +0.000 A 
ENDROOT
BRANCH   1  13
ATOM     10  C   UNL     1       5.586   4.518  16.276  0.00  0.00    +0.000 A 
ATOM     11  C   UNL     1       4.319   4.075  16.681  0.00  0.00    +0.000 A 
ATOM     12  C   UNL     1       3.471   4.896  17.435  0.00  0.00    +0.000 A 
ATOM     13  C   UNL     1       3.886   6.165  17.843  0.00  0.00    +0.000 A 
ATOM     14  C   UNL     1       5.202   6.548  17.513  0.00  0.00    +0.000 A 
ATOM     15  C   UNL     1       6.053   5.753  16.728  0.00  0.00    +0.000 A 
BRANCH  10  17
ATOM     16  C   UNL     1       6.200   3.927  14.067  0.00  0.00    +0.000 C 
ATOM     17  O   UNL     1       6.384   3.754  15.470  0.00  0.00    +0.000 OA
ENDBRANCH  10  17
BRANCH  15  18
ATOM     18  O   UNL     1       7.249   6.373  16.482  0.00  0.00    +0.000 OA
ATOM     19  C   UNL     1       7.678   7.402  17.360  0.00  0.00    +0.000 C 
ENDBRANCH  15  18
ENDBRANCH   1  13
BRANCH   5  20
ATOM     20  C   UNL     1      -0.777  10.717  20.002  0.00  0.00    +0.000 A 
ATOM     21  C   UNL     1      -1.610  10.664  18.901  0.00  0.00    +0.000 A 
ATOM     22  C   UNL     1      -2.199  11.922  18.606  0.00  0.00    +0.000 A 
ATOM     23  C   UNL     1      -1.874  12.866  19.554  0.00  0.00    +0.000 A 
ATOM     24  S   UNL     1      -0.938  12.201  20.826  0.00  0.00    +0.000 S 
ENDBRANCH   5  20
BRANCH   6  25
ATOM     25  N   UNL     1      -0.454   9.097  22.789  0.00  0.00    +0.000 N 
ATOM     26  H   UNL     1      -0.385   8.347  23.470  0.00  0.00    +0.000 HD
ATOM     27  H   UNL     1      -1.370   9.535  22.763  0.00  0.00    +0.000 HD
ENDBRANCH   6  25
BRANCH   3  28
ATOM     28  O   UNL     1       1.609  10.504  17.720  0.00  0.00    +0.000 OA
BRANCH  28  29
ATOM     29  C   UNL     1       2.482  11.518  18.244  0.00  0.00    +0.000 C 
BRANCH  29  30
ATOM     30  C   UNL     1       1.845  12.908  18.337  0.00  0.00    +0.000 C 
BRANCH  30  31
ATOM     31  N   UNL     1       2.599  13.814  19.241  0.00  0.00    +0.000 NA
ATOM     32  C   UNL     1       1.731  14.890  19.770  0.00  0.00    +0.000 C 
ATOM     33  C   UNL     1       1.367  15.948  18.714  0.00  0.00    +0.000 C 
ATOM     34  O   UNL     1       2.536  16.537  18.128  0.00  0.00    +0.000 OA
ATOM     35  C   UNL     1       3.403  15.539  17.574  0.00  0.00    +0.000 C 
ATOM     36  C   UNL     1       3.773  14.477  18.621  0.00  0.00    +0.000 C 
ENDBRANCH  30  31
ENDBRANCH  29  30
ENDBRANCH  28  29
ENDBRANCH   3  28
TORSDOF 9
ENDMDL
MODEL 2
REMARK VINA RESULT:      -7.9      0.979      1.812
REMARK  Name = 
REMARK  11 active torsions:
REMARK  status: ('A' for Active; 'I' for Inactive)
REMARK    1  A    between atoms: C_1  and  O_2
REMARK    2  A    between atoms: O_2  and  C_3
REMARK    3  A    between atoms: C_6  and  C_7
REMARK    4  A    between atoms: C_9  and  O_10
REMARK    5  A    between atoms: O_10  and  C_11
REMARK    6  A    between atoms: C_11  and  C_12
REMARK    7  A    between atoms: C_12  and  N_13
REMARK    8  A    between atoms: C_20  and  C_21
REMARK    9  A    between atoms: C_26  and  N_27
REMARK   10  A    between atoms: C_32  and  O_33
REMARK   11  A    between atoms: O_33  and  C_34
REMARK                            x       y       z     vdW  Elec       q    Type
REMARK                         _______ _______ _______ _____ _____    ______ ____
ROOT
ATOM      1  C   UNL     1       2.600   7.473  18.533  0.00  0.00    +0.000 A 
ATOM      2  C   UNL     1       2.203   8.677  17.934  0.00  0.00    +0.000 A 
ATOM      3  C   UNL     1       1.490   9.691  18.595  0.00  0.00    +0.000 A 
ATOM      4  C   UNL     1       0.998   9.388  19.881  0.00  0.00    +0.000 A 
ATOM      5  C   UNL     1       0.119   9.992  20.834  0.00  0.00    +0.000 A 
ATOM      6  C   UNL     1       0.270   9.278  22.007  0.00  0.00    +0.000 A 
ATOM      7  O   UNL     1       1.038   8.178  21.791  0.00  0.00    +0.000 OA
ATOM      8  C   UNL     1       1.447   8.219  20.492  0.00  0.00    +0.000 A 
ATOM      9  C   UNL     1       2.236   7.246  19.866  0.00  0.00    +0.000 A 
ENDROOT
BRANCH   1  13
ATOM     10  C   UNL     1       5.093   4.646  16.441  0.00  0.00    +0.000 A 
ATOM     11  C   UNL     1       5.211   6.021  16.194  0.00  0.00    +0.000 A 
ATOM     12  C   UNL     1       4.386   6.947  16.844  0.00  0.00    +0.000 A 
ATOM     13  C   UNL     1       3.389   6.520  17.723  0.00  0.00    +0.000 A 
ATOM     14  C   UNL     1       3.220   5.129  17.877  0.00  0.00    +0.000 A 
ATOM     15  C   UNL     1       4.061   4.187  17.261  0.00  0.00    +0.000 A 
BRANCH  10  17
ATOM     16  C   UNL     1       6.315   3.998  14.520  0.00  0.00    +0.000 C 
ATOM     17  O   UNL     1       5.950   3.744  15.874  0.00  0.00    +0.000 OA
ENDBRANCH  10  17
BRANCH  15  18
ATOM     18  O   UNL     1       3.742   2.905  17.623  0.00  0.00    +0.000 OA
ATOM     19  C   UNL     1       2.374   2.537  17.702  0.00  0.00    +0.000 C 
ENDBRANCH  15  18
ENDBRANCH   1  13
BRANCH   5  20
ATOM     20  C   UNL     1      -0.767  11.169  20.594  0.00  0.00    +0.000 A 
ATOM     21  C   UNL     1      -1.750  11.187  19.622  0.00  0.00    +0.000 A 
ATOM     22  C   UNL     1      -2.305  12.482  19.437  0.00  0.00    +0.000 A 
ATOM     23  C   UNL     1      -1.798  13.382  20.347  0.00  0.00    +0.000 A 
ATOM     24  S   UNL     1      -0.730  12.636  21.460  0.00  0.00    +0.000 S 
ENDBRANCH   5  20
BRANCH   6  25
ATOM     25  N   UNL     1      -0.203   9.412  23.257  0.00  0.00    +0.000 N 
ATOM     26  H   UNL     1       0.255  10.078  23.872  0.00  0.00    +0.000 HD
ATOM     27  H   UNL     1      -0.488   8.559  23.729  0.00  0.00    +0.000 HD
ENDBRANCH   6  25
BRANCH   3  28
ATOM     28  O   UNL     1       1.325  10.954  18.041  0.00  0.00    +0.000 OA
BRANCH  28  29
ATOM     29  C   UNL     1       2.466  11.808  18.227  0.00  0.00    +0.000 C 
BRANCH  29  30
ATOM     30  C   UNL     1       2.148  13.305  18.163  0.00  0.00    +0.000 C 
BRANCH  30  31
ATOM     31  N   UNL     1       3.115  14.121  18.942  0.00  0.00    +0.000 NA
ATOM     32  C   UNL     1       2.419  15.128  19.775  0.00  0.00    +0.000 C 
ATOM     33  C   UNL     1       1.825  16.285  18.953  0.00  0.00    +0.000 C 
ATOM     34  O   UNL     1       2.826  16.943  18.163  0.00  0.00    +0.000 OA
ATOM     35  C   UNL     1       3.515  16.015  17.315  0.00  0.00    +0.000 C 
ATOM     36  C   UNL     1       4.112  14.855  18.125  0.00  0.00    +0.000 C 
ENDBRANCH  30  31
ENDBRANCH  29  30
ENDBRANCH  28  29
ENDBRANCH   3  28
TORSDOF 9
ENDMDL
MODEL 3
REMARK VINA RESULT:      -7.9      1.258      2.011
REMARK  Name = 
REMARK  11 active torsions:
REMARK  status: ('A' for Active; 'I' for Inactive)
REMARK    1  A    between atoms: C_1  and  O_2
REMARK    2  A    between atoms: O_2  and  C_3
REMARK    3  A    between atoms: C_6  and  C_7
REMARK    4  A    between atoms: C_9  and  O_10
REMARK    5  A    between atoms: O_10  and  C_11
REMARK    6  A    between atoms: C_11  and  C_12
REMARK    7  A    between atoms: C_12  and  N_13
REMARK    8  A    between atoms: C_20  and  C_21
REMARK    9  A    between atoms: C_26  and  N_27
REMARK   10  A    between atoms: C_32  and  O_33
REMARK   11  A    between atoms: O_33  and  C_34
REMARK                            x       y       z     vdW  Elec       q    Type
REMARK                         _______ _______ _______ _____ _____    ______ ____
ROOT
ATOM      1  C   UNL     1       2.477   7.467  18.655  0.00  0.00    +0.000 A 
ATOM      2  C   UNL     1       2.090   8.684  18.075  0.00  0.00    +0.000 A 
ATOM      3  C   UNL     1       1.408   9.704  18.760  0.00  0.00    +0.000 A 
ATOM      4  C   UNL     1       0.935   9.396  20.052  0.00  0.00    +0.000 A 
ATOM      5  C   UNL     1       0.085  10.006  21.028  0.00  0.00    +0.000 A 
ATOM      6  C   UNL     1       0.245   9.278  22.191  0.00  0.00    +0.000 A 
ATOM      7  O   UNL     1       0.990   8.167  21.949  0.00  0.00    +0.000 OA
ATOM      8  C   UNL     1       1.374   8.214  20.642  0.00  0.00    +0.000 A 
ATOM      9  C   UNL     1       2.134   7.234  19.993  0.00  0.00    +0.000 A 
ENDROOT
BRANCH   1  13
ATOM     10  C   UNL     1       4.849   4.586  16.499  0.00  0.00    +0.000 A 
ATOM     11  C   UNL     1       5.110   5.957  16.379  0.00  0.00    +0.000 A 
ATOM     12  C   UNL     1       4.326   6.905  17.049  0.00  0.00    +0.000 A 
ATOM     13  C   UNL     1       3.233   6.509  17.821  0.00  0.00    +0.000 A 
ATOM     14  C   UNL     1       2.928   5.133  17.844  0.00  0.00    +0.000 A 
ATOM     15  C   UNL     1       3.722   4.165  17.208  0.00  0.00    +0.000 A 
BRANCH  10  17
ATOM     16  C   UNL     1       6.197   4.002  14.643  0.00  0.00    +0.000 C 
ATOM     17  O   UNL     1       5.660   3.652  15.916  0.00  0.00    +0.000 OA
ENDBRANCH  10  17
BRANCH  15  18
ATOM     18  O   UNL     1       3.263   2.895  17.438  0.00  0.00    +0.000 OA
ATOM     19  C   UNL     1       3.501   2.300  18.704  0.00  0.00    +0.000 C 
ENDBRANCH  15  18
ENDBRANCH   1  13
BRANCH   5  20
ATOM     20  C   UNL     1      -0.785  11.201  20.816  0.00  0.00    +0.000 A 
ATOM     21  C   UNL     1      -1.640  11.330  19.738  0.00  0.00    +0.000 A 
ATOM     22  C   UNL     1      -2.190  12.636  19.636  0.00  0.00    +0.000 A 
ATOM     23  C   UNL     1      -1.815  13.425  20.698  0.00  0.00    +0.000 A 
ATOM     24  S   UNL     1      -0.879  12.558  21.843  0.00  0.00    +0.000 S 
ENDBRANCH   5  20
BRANCH   6  25
ATOM     25  N   UNL     1      -0.202   9.408  23.450  0.00  0.00    +0.000 N 
ATOM     26  H   UNL     1      -0.838  10.173  23.655  0.00  0.00    +0.000 HD
ATOM     27  H   UNL     1       0.472   9.235  24.191  0.00  0.00    +0.000 HD
ENDBRANCH   6  25
BRANCH   3  28
ATOM     28  O   UNL     1       1.255  10.976  18.222  0.00  0.00    +0.000 OA
BRANCH  28  29
ATOM     29  C   UNL     1       2.504  11.650  17.999  0.00  0.00    +0.000 C 
BRANCH  29  30
ATOM     30  C   UNL     1       2.428  13.175  18.131  0.00  0.00    +0.000 C 
BRANCH  30  31
ATOM     31  N   UNL     1       1.731  13.598  19.373  0.00  0.00    +0.000 NA
ATOM     32  C   UNL     1       1.190  14.970  19.244  0.00  0.00    +0.000 C 
ATOM     33  C   UNL     1       2.280  16.055  19.267  0.00  0.00    +0.000 C 
ATOM     34  O   UNL     1       3.079  15.978  20.456  0.00  0.00    +0.000 OA
ATOM     35  C   UNL     1       3.652  14.675  20.618  0.00  0.00    +0.000 C 
ATOM     36  C   UNL     1       2.572  13.583  20.596  0.00  0.00    +0.000 C 
ENDBRANCH  30  31
ENDBRANCH  29  30
ENDBRANCH  28  29
ENDBRANCH   3  28
TORSDOF 9
ENDMDL
MODEL 4
REMARK VINA RESULT:      -7.8      0.851      1.126
REMARK  Name = 
REMARK  11 active torsions:
REMARK  status: ('A' for Active; 'I' for Inactive)
REMARK    1  A    between atoms: C_1  and  O_2
REMARK    2  A    between atoms: O_2  and  C_3
REMARK    3  A    between atoms: C_6  and  C_7
REMARK    4  A    between atoms: C_9  and  O_10
REMARK    5  A    between atoms: O_10  and  C_11
REMARK    6  A    between atoms: C_11  and  C_12
REMARK    7  A    between atoms: C_12  and  N_13
REMARK    8  A    between atoms: C_20  and  C_21
REMARK    9  A    between atoms: C_26  and  N_27
REMARK   10  A    between atoms: C_32  and  O_33
REMARK   11  A    between atoms: O_33  and  C_34
REMARK                            x       y       z     vdW  Elec       q    Type
REMARK                         _______ _______ _______ _____ _____    ______ ____
ROOT
ATOM      1  C   UNL     1       2.969   7.136  18.508  0.00  0.00    +0.000 A 
ATOM      2  C   UNL     1       2.567   8.275  17.795  0.00  0.00    +0.000 A 
ATOM      3  C   UNL     1       1.721   9.272  18.310  0.00  0.00    +0.000 A 
ATOM      4  C   UNL     1       1.105   9.006  19.550  0.00  0.00    +0.000 A 
ATOM      5  C   UNL     1       0.087   9.598  20.361  0.00  0.00    +0.000 A 
ATOM      6  C   UNL     1       0.148   8.961  21.586  0.00  0.00    +0.000 A 
ATOM      7  O   UNL     1       1.004   7.907  21.525  0.00  0.00    +0.000 OA
ATOM      8  C   UNL     1       1.555   7.906  20.278  0.00  0.00    +0.000 A 
ATOM      9  C   UNL     1       2.470   6.958  19.804  0.00  0.00    +0.000 A 
ENDROOT
BRANCH   1  13
ATOM     10  C   UNL     1       5.634   4.563  16.306  0.00  0.00    +0.000 A 
ATOM     11  C   UNL     1       4.365   4.112  16.693  0.00  0.00    +0.000 A 
ATOM     12  C   UNL     1       3.502   4.927  17.436  0.00  0.00    +0.000 A 
ATOM     13  C   UNL     1       3.903   6.198  17.851  0.00  0.00    +0.000 A 
ATOM     14  C   UNL     1       5.220   6.590  17.539  0.00  0.00    +0.000 A 
ATOM     15  C   UNL     1       6.088   5.801  16.765  0.00  0.00    +0.000 A 
BRANCH  10  17
ATOM     16  C   UNL     1       6.318   4.014  14.106  0.00  0.00    +0.000 C 
ATOM     17  O   UNL     1       6.448   3.805  15.510  0.00  0.00    +0.000 OA
ENDBRANCH  10  17
BRANCH  15  18
ATOM     18  O   UNL     1       7.283   6.430  16.536  0.00  0.00    +0.000 OA
ATOM     19  C   UNL     1       7.658   7.511  17.374  0.00  0.00    +0.000 C 
ENDBRANCH  15  18
ENDBRANCH   1  13
BRANCH   5  20
ATOM     20  C   UNL     1      -0.838  10.695  19.952  0.00  0.00    +0.000 A 
ATOM     21  C   UNL     1      -0.989  11.864  20.674  0.00  0.00    +0.000 A 
ATOM     22  C   UNL     1      -2.078  12.650  20.213  0.00  0.00    +0.000 A 
ATOM     23  C   UNL     1      -2.656  12.101  19.091  0.00  0.00    +0.000 A 
ATOM     24  S   UNL     1      -1.825  10.699  18.562  0.00  0.00    +0.000 S 
ENDBRANCH   5  20
BRANCH   6  25
ATOM     25  N   UNL     1      -0.472   9.130  22.765  0.00  0.00    +0.000 N 
ATOM     26  H   UNL     1      -1.393   8.720  22.883  0.00  0.00    +0.000 HD
ATOM     27  H   UNL     1      -0.379  10.043  23.201  0.00  0.00    +0.000 HD
ENDBRANCH   6  25
BRANCH   3  28
ATOM     28  O   UNL     1       1.541  10.489  17.664  0.00  0.00    +0.000 OA
BRANCH  28  29
ATOM     29  C   UNL     1       2.484  11.492  18.073  0.00  0.00    +0.000 C 
BRANCH  29  30
ATOM     30  C   UNL     1       1.847  12.827  18.475  0.00  0.00    +0.000 C 
BRANCH  30  31
ATOM     31  N   UNL     1       2.845  13.792  19.001  0.00  0.00    +0.000 NA
ATOM     32  C   UNL     1       2.808  13.851  20.480  0.00  0.00    +0.000 C 
ATOM     33  C   UNL     1       1.559  14.565  21.026  0.00  0.00    +0.000 C 
ATOM     34  O   UNL     1       1.438  15.895  20.501  0.00  0.00    +0.000 OA
ATOM     35  C   UNL     1       1.442  15.895  19.068  0.00  0.00    +0.000 C 
ATOM     36  C   UNL     1       2.685  15.184  18.513  0.00  0.00    +0.000 C 
ENDBRANCH  30  31
ENDBRANCH  29  30
ENDBRANCH  28  29
ENDBRANCH   3  28
TORSDOF 9
ENDMDL
MODEL 5
REMARK VINA RESULT:      -7.7      1.371      2.133
REMARK  Name = 
REMARK  11 active torsions:
REMARK  status: ('A' for Active; 'I' for Inactive)
REMARK    1  A    between atoms: C_1  and  O_2
REMARK    2  A    between atoms: O_2  and  C_3
REMARK    3  A    between atoms: C_6  and  C_7
REMARK    4  A    between atoms: C_9  and  O_10
REMARK    5  A    between atoms: O_10  and  C_11
REMARK    6  A    between atoms: C_11  and  C_12
REMARK    7  A    between atoms: C_12  and  N_13
REMARK    8  A    between atoms: C_20  and  C_21
REMARK    9  A    between atoms: C_26  and  N_27
REMARK   10  A    between atoms: C_32  and  O_33
REMARK   11  A    between atoms: O_33  and  C_34
REMARK                            x       y       z     vdW  Elec       q    Type
REMARK                         _______ _______ _______ _____ _____    ______ ____
ROOT
ATOM      1  C   UNL     1       2.310   7.837  18.761  0.00  0.00    +0.000 A 
ATOM      2  C   UNL     1       1.982   9.078  18.197  0.00  0.00    +0.000 A 
ATOM      3  C   UNL     1       1.287  10.095  18.874  0.00  0.00    +0.000 A 
ATOM      4  C   UNL     1       0.736   9.762  20.129  0.00  0.00    +0.000 A 
ATOM      5  C   UNL     1      -0.152  10.363  21.075  0.00  0.00    +0.000 A 
ATOM      6  C   UNL     1      -0.072   9.598  22.223  0.00  0.00    +0.000 A 
ATOM      7  O   UNL     1       0.660   8.477  21.989  0.00  0.00    +0.000 OA
ATOM      8  C   UNL     1       1.117   8.552  20.707  0.00  0.00    +0.000 A 
ATOM      9  C   UNL     1       1.888   7.574  20.070  0.00  0.00    +0.000 A 
ENDROOT
BRANCH   1  13
ATOM     10  C   UNL     1       4.750   4.980  16.648  0.00  0.00    +0.000 A 
ATOM     11  C   UNL     1       4.983   6.356  16.513  0.00  0.00    +0.000 A 
ATOM     12  C   UNL     1       4.177   7.295  17.169  0.00  0.00    +0.000 A 
ATOM     13  C   UNL     1       3.089   6.885  17.941  0.00  0.00    +0.000 A 
ATOM     14  C   UNL     1       2.811   5.504  17.978  0.00  0.00    +0.000 A 
ATOM     15  C   UNL     1       3.628   4.545  17.356  0.00  0.00    +0.000 A 
BRANCH  10  17
ATOM     16  C   UNL     1       6.968   4.392  16.064  0.00  0.00    +0.000 C 
ATOM     17  O   UNL     1       5.582   4.057  16.078  0.00  0.00    +0.000 OA
ENDBRANCH  10  17
BRANCH  15  18
ATOM     18  O   UNL     1       3.193   3.269  17.598  0.00  0.00    +0.000 OA
ATOM     19  C   UNL     1       3.612   2.618  18.787  0.00  0.00    +0.000 C 
ENDBRANCH  15  18
ENDBRANCH   1  13
BRANCH   5  20
ATOM     20  C   UNL     1      -0.982  11.584  20.852  0.00  0.00    +0.000 A 
ATOM     21  C   UNL     1      -0.907  12.705  21.657  0.00  0.00    +0.000 A 
ATOM     22  C   UNL     1      -1.942  13.638  21.383  0.00  0.00    +0.000 A 
ATOM     23  C   UNL     1      -2.707  13.243  20.310  0.00  0.00    +0.000 A 
ATOM     24  S   UNL     1      -2.115  11.801  19.597  0.00  0.00    +0.000 S 
ENDBRANCH   5  20
BRANCH   6  25
ATOM     25  N   UNL     1      -0.584   9.703  23.460  0.00  0.00    +0.000 N 
ATOM     26  H   UNL     1      -1.585   9.845  23.551  0.00  0.00    +0.000 HD
ATOM     27  H   UNL     1      -0.039  10.233  24.134  0.00  0.00    +0.000 HD
ENDBRANCH   6  25
BRANCH   3  28
ATOM     28  O   UNL     1       1.192  11.384  18.366  0.00  0.00    +0.000 OA
BRANCH  28  29
ATOM     29  C   UNL     1       2.138  12.294  18.950  0.00  0.00    +0.000 C 
BRANCH  29  30
ATOM     30  C   UNL     1       2.289  13.617  18.192  0.00  0.00    +0.000 C 
BRANCH  30  31
ATOM     31  N   UNL     1       3.479  14.388  18.635  0.00  0.00    +0.000 NA
ATOM     32  C   UNL     1       3.181  15.183  19.849  0.00  0.00    +0.000 C 
ATOM     33  C   UNL     1       2.273  16.393  19.572  0.00  0.00    +0.000 C 
ATOM     34  O   UNL     1       2.831  17.257  18.572  0.00  0.00    +0.000 OA
ATOM     35  C   UNL     1       3.114  16.543  17.362  0.00  0.00    +0.000 C 
ATOM     36  C   UNL     1       4.021  15.332  17.627  0.00  0.00    +0.000 C 
ENDBRANCH  30  31
ENDBRANCH  29  30
ENDBRANCH  28  29
ENDBRANCH   3  28
TORSDOF 9
ENDMDL
MODEL 6
REMARK VINA RESULT:      -7.6      0.738      1.131
REMARK  Name = 
REMARK  11 active torsions:
REMARK  status: ('A' for Active; 'I' for Inactive)
REMARK    1  A    between atoms: C_1  and  O_2
REMARK    2  A    between atoms: O_2  and  C_3
REMARK    3  A    between atoms: C_6  and  C_7
REMARK    4  A    between atoms: C_9  and  O_10
REMARK    5  A    between atoms: O_10  and  C_11
REMARK    6  A    between atoms: C_11  and  C_12
REMARK    7  A    between atoms: C_12  and  N_13
REMARK    8  A    between atoms: C_20  and  C_21
REMARK    9  A    between atoms: C_26  and  N_27
REMARK   10  A    between atoms: C_32  and  O_33
REMARK   11  A    between atoms: O_33  and  C_34
REMARK                            x       y       z     vdW  Elec       q    Type
REMARK                         _______ _______ _______ _____ _____    ______ ____
ROOT
ATOM      1  C   UNL     1       2.854   7.208  18.614  0.00  0.00    +0.000 A 
ATOM      2  C   UNL     1       2.494   8.388  17.948  0.00  0.00    +0.000 A 
ATOM      3  C   UNL     1       1.663   9.381  18.493  0.00  0.00    +0.000 A 
ATOM      4  C   UNL     1       1.017   9.073  19.708  0.00  0.00    +0.000 A 
ATOM      5  C   UNL     1      -0.002   9.654  20.527  0.00  0.00    +0.000 A 
ATOM      6  C   UNL     1       0.020   8.960  21.722  0.00  0.00    +0.000 A 
ATOM      7  O   UNL     1       0.851   7.889  21.627  0.00  0.00    +0.000 OA
ATOM      8  C   UNL     1       1.426   7.930  20.392  0.00  0.00    +0.000 A 
ATOM      9  C   UNL     1       2.326   6.983  19.892  0.00  0.00    +0.000 A 
ENDROOT
BRANCH   1  13
ATOM     10  C   UNL     1       5.474   4.652  16.338  0.00  0.00    +0.000 A 
ATOM     11  C   UNL     1       4.231   4.183  16.783  0.00  0.00    +0.000 A 
ATOM     12  C   UNL     1       3.384   4.993  17.551  0.00  0.00    +0.000 A 
ATOM     13  C   UNL     1       3.778   6.277  17.932  0.00  0.00    +0.000 A 
ATOM     14  C   UNL     1       5.074   6.689  17.560  0.00  0.00    +0.000 A 
ATOM     15  C   UNL     1       5.923   5.905  16.761  0.00  0.00    +0.000 A 
BRANCH  10  17
ATOM     16  C   UNL     1       6.004   4.004  14.123  0.00  0.00    +0.000 C 
ATOM     17  O   UNL     1       6.269   3.898  15.519  0.00  0.00    +0.000 OA
ENDBRANCH  10  17
BRANCH  15  18
ATOM     18  O   UNL     1       7.096   6.551  16.475  0.00  0.00    +0.000 OA
ATOM     19  C   UNL     1       7.643   7.435  17.442  0.00  0.00    +0.000 C 
ENDBRANCH  15  18
ENDBRANCH   1  13
BRANCH   5  20
ATOM     20  C   UNL     1      -0.893  10.791  20.153  0.00  0.00    +0.000 A 
ATOM     21  C   UNL     1      -1.711  10.774  19.039  0.00  0.00    +0.000 A 
ATOM     22  C   UNL     1      -2.289  12.044  18.772  0.00  0.00    +0.000 A 
ATOM     23  C   UNL     1      -1.972  12.958  19.750  0.00  0.00    +0.000 A 
ATOM     24  S   UNL     1      -1.058  12.252  21.016  0.00  0.00    +0.000 S 
ENDBRANCH   5  20
BRANCH   6  25
ATOM     25  N   UNL     1      -0.618   9.090  22.896  0.00  0.00    +0.000 N 
ATOM     26  H   UNL     1      -0.314   8.509  23.672  0.00  0.00    +0.000 HD
ATOM     27  H   UNL     1      -1.626   9.210  22.855  0.00  0.00    +0.000 HD
ENDBRANCH   6  25
BRANCH   3  28
ATOM     28  O   UNL     1       1.525  10.630  17.901  0.00  0.00    +0.000 OA
BRANCH  28  29
ATOM     29  C   UNL     1       2.036  11.701  18.711  0.00  0.00    +0.000 C 
BRANCH  29  30
ATOM     30  C   UNL     1       2.784  12.782  17.925  0.00  0.00    +0.000 C 
BRANCH  30  31
ATOM     31  N   UNL     1       2.371  14.153  18.320  0.00  0.00    +0.000 NA
ATOM     32  C   UNL     1       3.305  15.170  17.786  0.00  0.00    +0.000 C 
ATOM     33  C   UNL     1       4.667  15.177  18.501  0.00  0.00    +0.000 C 
ATOM     34  O   UNL     1       4.522  15.373  19.915  0.00  0.00    +0.000 OA
ATOM     35  C   UNL     1       3.646  14.395  20.492  0.00  0.00    +0.000 C 
ATOM     36  C   UNL     1       2.283  14.380  19.784  0.00  0.00    +0.000 C 
ENDBRANCH  30  31
ENDBRANCH  29  30
ENDBRANCH  28  29
ENDBRANCH   3  28
TORSDOF 9
ENDMDL
MODEL 7
REMARK VINA RESULT:      -7.1      1.515      2.534
REMARK  Name = 
REMARK  11 active torsions:
REMARK  status: ('A' for Active; 'I' for Inactive)
REMARK    1  A    between atoms: C_1  and  O_2
REMARK    2  A    between atoms: O_2  and  C_3
REMARK    3  A    between atoms: C_6  and  C_7
REMARK    4  A    between atoms: C_9  and  O_10
REMARK    5  A    between atoms: O_10  and  C_11
REMARK    6  A    between atoms: C_11  and  C_12
REMARK    7  A    between atoms: C_12  and  N_13
REMARK    8  A    between atoms: C_20  and  C_21
REMARK    9  A    between atoms: C_26  and  N_27
REMARK   10  A    between atoms: C_32  and  O_33
REMARK   11  A    between atoms: O_33  and  C_34
REMARK                            x       y       z     vdW  Elec       q    Type
REMARK                         _______ _______ _______ _____ _____    ______ ____
ROOT
ATOM      1  C   UNL     1       2.129   8.204  18.827  0.00  0.00    +0.000 A 
ATOM      2  C   UNL     1       1.916   9.464  18.250  0.00  0.00    +0.000 A 
ATOM      3  C   UNL     1       1.244  10.522  18.886  0.00  0.00    +0.000 A 
ATOM      4  C   UNL     1       0.594  10.223  20.101  0.00  0.00    +0.000 A 
ATOM      5  C   UNL     1      -0.313  10.879  20.991  0.00  0.00    +0.000 A 
ATOM      6  C   UNL     1      -0.356  10.109  22.138  0.00  0.00    +0.000 A 
ATOM      7  O   UNL     1       0.318   8.945  21.946  0.00  0.00    +0.000 OA
ATOM      8  C   UNL     1       0.860   8.992  20.697  0.00  0.00    +0.000 A 
ATOM      9  C   UNL     1       1.609   7.967  20.106  0.00  0.00    +0.000 A 
ENDROOT
BRANCH   1  13
ATOM     10  C   UNL     1       4.541   5.227  16.855  0.00  0.00    +0.000 A 
ATOM     11  C   UNL     1       4.780   6.592  16.646  0.00  0.00    +0.000 A 
ATOM     12  C   UNL     1       3.984   7.569  17.256  0.00  0.00    +0.000 A 
ATOM     13  C   UNL     1       2.898   7.206  18.055  0.00  0.00    +0.000 A 
ATOM     14  C   UNL     1       2.614   5.830  18.167  0.00  0.00    +0.000 A 
ATOM     15  C   UNL     1       3.422   4.835  17.592  0.00  0.00    +0.000 A 
BRANCH  10  17
ATOM     16  C   UNL     1       6.733   4.641  16.179  0.00  0.00    +0.000 C 
ATOM     17  O   UNL     1       5.365   4.270  16.330  0.00  0.00    +0.000 OA
ENDBRANCH  10  17
BRANCH  15  18
ATOM     18  O   UNL     1       2.982   3.576  17.904  0.00  0.00    +0.000 OA
ATOM     19  C   UNL     1       1.592   3.366  18.096  0.00  0.00    +0.000 C 
ENDBRANCH  15  18
ENDBRANCH   1  13
BRANCH   5  20
ATOM     20  C   UNL     1      -1.050  12.149  20.721  0.00  0.00    +0.000 A 
ATOM     21  C   UNL     1      -0.601  13.386  21.144  0.00  0.00    +0.000 A 
ATOM     22  C   UNL     1      -1.573  14.406  20.964  0.00  0.00    +0.000 A 
ATOM     23  C   UNL     1      -2.690  13.929  20.317  0.00  0.00    +0.000 A 
ATOM     24  S   UNL     1      -2.514  12.287  19.860  0.00  0.00    +0.000 S 
ENDBRANCH   5  20
BRANCH   6  25
ATOM     25  N   UNL     1      -0.939  10.245  23.340  0.00  0.00    +0.000 N 
ATOM     26  H   UNL     1      -1.088   9.408  23.895  0.00  0.00    +0.000 HD
ATOM     27  H   UNL     1      -1.704  10.910  23.401  0.00  0.00    +0.000 HD
ENDBRANCH   6  25
BRANCH   3  28
ATOM     28  O   UNL     1       1.262  11.815  18.379  0.00  0.00    +0.000 OA
BRANCH  28  29
ATOM     29  C   UNL     1       2.590  12.329  18.188  0.00  0.00    +0.000 C 
BRANCH  29  30
ATOM     30  C   UNL     1       2.856  13.663  18.893  0.00  0.00    +0.000 C 
BRANCH  30  31
ATOM     31  N   UNL     1       2.248  14.812  18.174  0.00  0.00    +0.000 NA
ATOM     32  C   UNL     1       3.287  15.688  17.587  0.00  0.00    +0.000 C 
ATOM     33  C   UNL     1       4.047  16.514  18.639  0.00  0.00    +0.000 C 
ATOM     34  O   UNL     1       3.156  17.312  19.432  0.00  0.00    +0.000 OA
ATOM     35  C   UNL     1       2.142  16.508  20.048  0.00  0.00    +0.000 C 
ATOM     36  C   UNL     1       1.377  15.678  19.006  0.00  0.00    +0.000 C 
ENDBRANCH  30  31
ENDBRANCH  29  30
ENDBRANCH  28  29
ENDBRANCH   3  28
TORSDOF 9
ENDMDL
MODEL 8
REMARK VINA RESULT:      -7.0      1.356      1.687
REMARK  Name = 
REMARK  11 active torsions:
REMARK  status: ('A' for Active; 'I' for Inactive)
REMARK    1  A    between atoms: C_1  and  O_2
REMARK    2  A    between atoms: O_2  and  C_3
REMARK    3  A    between atoms: C_6  and  C_7
REMARK    4  A    between atoms: C_9  and  O_10
REMARK    5  A    between atoms: O_10  and  C_11
REMARK    6  A    between atoms: C_11  and  C_12
REMARK    7  A    between atoms: C_12  and  N_13
REMARK    8  A    between atoms: C_20  and  C_21
REMARK    9  A    between atoms: C_26  and  N_27
REMARK   10  A    between atoms: C_32  and  O_33
REMARK   11  A    between atoms: O_33  and  C_34
REMARK                            x       y       z     vdW  Elec       q    Type
REMARK                         _______ _______ _______ _____ _____    ______ ____
ROOT
ATOM      1  C   UNL     1       3.124   7.490  18.339  0.00  0.00    +0.000 A 
ATOM      2  C   UNL     1       2.673   8.659  17.709  0.00  0.00    +0.000 A 
ATOM      3  C   UNL     1       1.750   9.556  18.274  0.00  0.00    +0.000 A 
ATOM      4  C   UNL     1       1.115   9.148  19.465  0.00  0.00    +0.000 A 
ATOM      5  C   UNL     1       0.038   9.607  20.286  0.00  0.00    +0.000 A 
ATOM      6  C   UNL     1       0.101   8.873  21.455  0.00  0.00    +0.000 A 
ATOM      7  O   UNL     1       1.024   7.882  21.337  0.00  0.00    +0.000 OA
ATOM      8  C   UNL     1       1.612   8.020  20.115  0.00  0.00    +0.000 A 
ATOM      9  C   UNL     1       2.598   7.173  19.598  0.00  0.00    +0.000 A 
ENDROOT
BRANCH   1  13
ATOM     10  C   UNL     1       6.296   5.338  16.367  0.00  0.00    +0.000 A 
ATOM     11  C   UNL     1       5.310   5.998  15.621  0.00  0.00    +0.000 A 
ATOM     12  C   UNL     1       4.257   6.675  16.249  0.00  0.00    +0.000 A 
ATOM     13  C   UNL     1       4.135   6.670  17.640  0.00  0.00    +0.000 A 
ATOM     14  C   UNL     1       5.079   5.914  18.365  0.00  0.00    +0.000 A 
ATOM     15  C   UNL     1       6.162   5.259  17.755  0.00  0.00    +0.000 A 
BRANCH  10  17
ATOM     16  C   UNL     1       7.339   4.702  14.339  0.00  0.00    +0.000 C 
ATOM     17  O   UNL     1       7.371   4.748  15.763  0.00  0.00    +0.000 OA
ENDBRANCH  10  17
BRANCH  15  18
ATOM     18  O   UNL     1       6.978   4.656  18.674  0.00  0.00    +0.000 OA
ATOM     19  C   UNL     1       7.819   5.468  19.478  0.00  0.00    +0.000 C 
ENDBRANCH  15  18
ENDBRANCH   1  13
BRANCH   5  20
ATOM     20  C   UNL     1      -0.943  10.677  19.937  0.00  0.00    +0.000 A 
ATOM     21  C   UNL     1      -1.170  11.782  20.734  0.00  0.00    +0.000 A 
ATOM     22  C   UNL     1      -2.296  12.536  20.308  0.00  0.00    +0.000 A 
ATOM     23  C   UNL     1      -2.825  12.036  19.141  0.00  0.00    +0.000 A 
ATOM     24  S   UNL     1      -1.908  10.722  18.532  0.00  0.00    +0.000 S 
ENDBRANCH   5  20
BRANCH   6  25
ATOM     25  N   UNL     1      -0.563   8.904  22.622  0.00  0.00    +0.000 N 
ATOM     26  H   UNL     1      -0.020   8.945  23.479  0.00  0.00    +0.000 HD
ATOM     27  H   UNL     1      -1.383   8.309  22.693  0.00  0.00    +0.000 HD
ENDBRANCH   6  25
BRANCH   3  28
ATOM     28  O   UNL     1       1.513  10.810  17.725  0.00  0.00    +0.000 OA
BRANCH  28  29
ATOM     29  C   UNL     1       2.285  11.853  18.341  0.00  0.00    +0.000 C 
BRANCH  29  30
ATOM     30  C   UNL     1       1.536  13.180  18.497  0.00  0.00    +0.000 C 
BRANCH  30  31
ATOM     31  N   UNL     1       2.409  14.261  19.023  0.00  0.00    +0.000 NA
ATOM     32  C   UNL     1       2.701  14.064  20.461  0.00  0.00    +0.000 C 
ATOM     33  C   UNL     1       1.492  14.349  21.368  0.00  0.00    +0.000 C 
ATOM     34  O   UNL     1       0.983  15.676  21.173  0.00  0.00    +0.000 OA
ATOM     35  C   UNL     1       0.657  15.914  19.797  0.00  0.00    +0.000 C 
ATOM     36  C   UNL     1       1.858  15.632  18.882  0.00  0.00    +0.000 C 
ENDBRANCH  30  31
ENDBRANCH  29  30
ENDBRANCH  28  29
ENDBRANCH   3  28
TORSDOF 9
ENDMDL
MODEL 9
REMARK VINA RESULT:      -7.0      2.877      6.123
REMARK  Name = 
REMARK  11 active torsions:
REMARK  status: ('A' for Active; 'I' for Inactive)
REMARK    1  A    between atoms: C_1  and  O_2
REMARK    2  A    between atoms: O_2  and  C_3
REMARK    3  A    between atoms: C_6  and  C_7
REMARK    4  A    between atoms: C_9  and  O_10
REMARK    5  A    between atoms: O_10  and  C_11
REMARK    6  A    between atoms: C_11  and  C_12
REMARK    7  A    between atoms: C_12  and  N_13
REMARK    8  A    between atoms: C_20  and  C_21
REMARK    9  A    between atoms: C_26  and  N_27
REMARK   10  A    between atoms: C_32  and  O_33
REMARK   11  A    between atoms: O_33  and  C_34
REMARK                            x       y       z     vdW  Elec       q    Type
REMARK                         _______ _______ _______ _____ _____    ______ ____
ROOT
ATOM      1  C   UNL     1       3.392   7.244  17.912  0.00  0.00    +0.000 A 
ATOM      2  C   UNL     1       2.949   6.863  19.187  0.00  0.00    +0.000 A 
ATOM      3  C   UNL     1       1.880   7.473  19.867  0.00  0.00    +0.000 A 
ATOM      4  C   UNL     1       1.352   8.649  19.296  0.00  0.00    +0.000 A 
ATOM      5  C   UNL     1       0.426   9.671  19.676  0.00  0.00    +0.000 A 
ATOM      6  C   UNL     1       0.173  10.408  18.535  0.00  0.00    +0.000 A 
ATOM      7  O   UNL     1       1.007  10.023  17.533  0.00  0.00    +0.000 OA
ATOM      8  C   UNL     1       1.753   8.984  18.005  0.00  0.00    +0.000 A 
ATOM      9  C   UNL     1       2.755   8.322  17.286  0.00  0.00    +0.000 A 
ENDROOT
BRANCH   1  13
ATOM     10  C   UNL     1       6.595   5.206  15.871  0.00  0.00    +0.000 A 
ATOM     11  C   UNL     1       5.321   4.628  15.954  0.00  0.00    +0.000 A 
ATOM     12  C   UNL     1       4.280   5.266  16.642  0.00  0.00    +0.000 A 
ATOM     13  C   UNL     1       4.498   6.476  17.303  0.00  0.00    +0.000 A 
ATOM     14  C   UNL     1       5.812   6.986  17.292  0.00  0.00    +0.000 A 
ATOM     15  C   UNL     1       6.860   6.380  16.579  0.00  0.00    +0.000 A 
BRANCH  10  17
ATOM     16  C   UNL     1       7.516   4.832  13.722  0.00  0.00    +0.000 C 
ATOM     17  O   UNL     1       7.591   4.631  15.131  0.00  0.00    +0.000 OA
ENDBRANCH  10  17
BRANCH  15  18
ATOM     18  O   UNL     1       8.020   7.103  16.662  0.00  0.00    +0.000 OA
ATOM     19  C   UNL     1       8.100   8.160  17.606  0.00  0.00    +0.000 C 
ENDBRANCH  15  18
ENDBRANCH   1  13
BRANCH   5  20
ATOM     20  C   UNL     1      -0.151   9.877  21.037  0.00  0.00    +0.000 A 
ATOM     21  C   UNL     1      -0.479  11.123  21.537  0.00  0.00    +0.000 A 
ATOM     22  C   UNL     1      -0.797  11.085  22.921  0.00  0.00    +0.000 A 
ATOM     23  C   UNL     1      -0.800   9.796  23.402  0.00  0.00    +0.000 A 
ATOM     24  S   UNL     1      -0.504   8.648  22.164  0.00  0.00    +0.000 S 
ENDBRANCH   5  20
BRANCH   6  25
ATOM     25  N   UNL     1      -0.661  11.416  18.232  0.00  0.00    +0.000 N 
ATOM     26  H   UNL     1      -0.325  12.142  17.606  0.00  0.00    +0.000 HD
ATOM     27  H   UNL     1      -1.236  11.773  18.990  0.00  0.00    +0.000 HD
ENDBRANCH   6  25
BRANCH   3  28
ATOM     28  O   UNL     1       1.325   6.917  21.013  0.00  0.00    +0.000 OA
BRANCH  28  29
ATOM     29  C   UNL     1       1.640   5.525  21.177  0.00  0.00    +0.000 C 
BRANCH  29  30
ATOM     30  C   UNL     1       1.060   4.617  20.088  0.00  0.00    +0.000 C 
BRANCH  30  31
ATOM     31  N   UNL     1       1.345   3.181  20.340  0.00  0.00    +0.000 NA
ATOM     32  C   UNL     1       2.753   2.977  20.749  0.00  0.00    +0.000 C 
ATOM     33  C   UNL     1       3.751   3.159  19.593  0.00  0.00    +0.000 C 
ATOM     34  O   UNL     1       3.452   2.289  18.492  0.00  0.00    +0.000 OA
ATOM     35  C   UNL     1       2.105   2.464  18.037  0.00  0.00    +0.000 C 
ATOM     36  C   UNL     1       1.099   2.284  19.184  0.00  0.00    +0.000 C 
ENDBRANCH  30  31
ENDBRANCH  29  30
ENDBRANCH  28  29
ENDBRANCH   3  28
TORSDOF 9
ENDMDL
