MODEL 1
REMARK VINA RESULT:      -8.4      0.000      0.000
REMARK  Name = 
REMARK  6 active torsions:
REMARK  status: ('A' for Active; 'I' for Inactive)
REMARK    1  A    between atoms: C_1  and  C_2
REMARK    2  A    between atoms: C_2  and  C_3
REMARK    3  A    between atoms: C_11  and  C_12
REMARK    4  A    between atoms: N_14  and  C_15
REMARK    5  A    between atoms: C_15  and  C_16
REMARK    6  A    between atoms: C_25  and  C_26
REMARK                            x       y       z     vdW  Elec       q    Type
REMARK                         _______ _______ _______ _____ _____    ______ ____
ROOT
ATOM      1  C   UNL     1       1.366   7.832  20.836  0.00  0.00    +0.000 C 
ATOM      2  C   UNL     1       1.429   7.891  19.301  0.00  0.00    +0.000 C 
ATOM      3  N   UNL     1       2.385   6.889  18.804  0.00  0.00    +0.000 N 
ATOM      4  C   UNL     1       3.382   7.334  17.928  0.00  0.00    +0.000 C 
ATOM      5  O   UNL     1       3.185   8.343  17.236  0.00  0.00    +0.000 OA
ATOM      6  N   UNL     1       4.670   6.763  17.952  0.00  0.00    +0.000 N 
ATOM      7  C   UNL     1       5.057   5.577  18.693  0.00  0.00    +0.000 C 
ATOM      8  C   UNL     1       6.482   5.498  19.192  0.00  0.00    +0.000 C 
ATOM      9  C   UNL     1       7.470   5.812  18.088  0.00  0.00    +0.000 C 
ATOM     10  C   UNL     1       7.087   7.166  17.473  0.00  0.00    +0.000 C 
ATOM     11  C   UNL     1       5.648   7.188  16.939  0.00  0.00    +0.000 C 
ATOM     12  C   UNL     1       2.132   5.595  19.349  0.00  0.00    +0.000 A 
ATOM     13  C   UNL     1       2.541   4.412  18.720  0.00  0.00    +0.000 A 
ATOM     14  C   UNL     1       2.747   3.248  19.481  0.00  0.00    +0.000 A 
ATOM     15  C   UNL     1       3.656   2.158  18.984  0.00  0.00    +0.000 C 
ATOM     16  C   UNL     1       2.209   3.173  20.768  0.00  0.00    +0.000 A 
ATOM     17  C   UNL     1       1.544   4.272  21.305  0.00  0.00    +0.000 A 
ATOM     18  C   UNL     1       1.541   5.488  20.619  0.00  0.00    +0.000 A 
ATOM     19  O   UNL     1       0.974   6.532  21.301  0.00  0.00    +0.000 OA
ENDROOT
BRANCH   9  20
ATOM     20  C   UNL     1       7.552   4.670  17.074  0.00  0.00    +0.000 C 
ATOM     21  O   UNL     1       8.478   3.864  17.021  0.00  0.00    +0.000 OA
ATOM     22  N   UNL     1       6.515   4.656  16.183  0.00  0.00    +0.000 N 
ATOM     23  H   UNL     1       5.767   5.333  16.254  0.00  0.00    +0.000 HD
BRANCH  22  24
ATOM     24  C   UNL     1       6.394   3.662  15.142  0.00  0.00    +0.000 C 
BRANCH  24  25
ATOM     25  C   UNL     1       6.888   4.272  13.883  0.00  0.00    +0.000 A 
ATOM     26  C   UNL     1       6.692   3.989  12.549  0.00  0.00    +0.000 A 
ATOM     27  C   UNL     1       7.466   4.920  11.821  0.00  0.00    +0.000 A 
ATOM     28  C   UNL     1       8.086   5.711  12.759  0.00  0.00    +0.000 A 
ATOM     29  O   UNL     1       7.748   5.328  14.009  0.00  0.00    +0.000 OA
ENDBRANCH  24  25
ENDBRANCH  22  24
ENDBRANCH   9  20
BRANCH   1  31
ATOM     30  C   UNL     1       0.736   9.403  22.749  0.00  0.00    +0.000 C 
ATOM     31  C   UNL     1       0.346   8.843  21.384  0.00  0.00    +0.000 C 
ENDBRANCH   1  31
TORSDOF 4
ENDMDL
MODEL 2
REMARK VINA RESULT:      -7.8      4.589      8.007
REMARK  Name = 
REMARK  6 active torsions:
REMARK  status: ('A' for Active; 'I' for Inactive)
REMARK    1  A    between atoms: C_1  and  C_2
REMARK    2  A    between atoms: C_2  and  C_3
REMARK    3  A    between atoms: C_11  and  C_12
REMARK    4  A    between atoms: N_14  and  C_15
REMARK    5  A    between atoms: C_15  and  C_16
REMARK    6  A    between atoms: C_25  and  C_26
REMARK                            x       y       z     vdW  Elec       q    Type
REMARK                         _______ _______ _______ _____ _____    ______ ____
ROOT
ATOM      1  C   UNL     1      -3.681  13.611  21.866  0.00  0.00    +0.000 C 
ATOM      2  C   UNL     1      -2.234  14.009  21.533  0.00  0.00    +0.000 C 
ATOM      3  N   UNL     1      -1.564  12.904  20.828  0.00  0.00    +0.000 N 
ATOM      4  C   UNL     1      -0.336  12.471  21.338  0.00  0.00    +0.000 C 
ATOM      5  O   UNL     1       0.367  13.253  21.994  0.00  0.00    +0.000 OA
ATOM      6  N   UNL     1       0.032  11.111  21.275  0.00  0.00    +0.000 N 
ATOM      7  C   UNL     1      -0.671  10.078  20.538  0.00  0.00    +0.000 C 
ATOM      8  C   UNL     1      -0.626   8.672  21.092  0.00  0.00    +0.000 C 
ATOM      9  C   UNL     1       0.792   8.255  21.421  0.00  0.00    +0.000 C 
ATOM     10  C   UNL     1       1.403   9.319  22.344  0.00  0.00    +0.000 C 
ATOM     11  C   UNL     1       1.378  10.724  21.725  0.00  0.00    +0.000 C 
ATOM     12  C   UNL     1      -2.332  12.435  19.721  0.00  0.00    +0.000 A 
ATOM     13  C   UNL     1      -1.763  11.767  18.630  0.00  0.00    +0.000 A 
ATOM     14  C   UNL     1      -2.547  10.893  17.856  0.00  0.00    +0.000 A 
ATOM     15  C   UNL     1      -1.906   9.793  17.056  0.00  0.00    +0.000 C 
ATOM     16  C   UNL     1      -3.939  10.967  17.946  0.00  0.00    +0.000 A 
ATOM     17  C   UNL     1      -4.528  11.850  18.848  0.00  0.00    +0.000 A 
ATOM     18  C   UNL     1      -3.732  12.548  19.759  0.00  0.00    +0.000 A 
ATOM     19  O   UNL     1      -4.426  13.281  20.685  0.00  0.00    +0.000 OA
ENDROOT
BRANCH   9  20
ATOM     20  C   UNL     1       1.604   7.993  20.151  0.00  0.00    +0.000 C 
ATOM     21  O   UNL     1       1.629   8.749  19.184  0.00  0.00    +0.000 OA
ATOM     22  N   UNL     1       2.268   6.797  20.166  0.00  0.00    +0.000 N 
ATOM     23  H   UNL     1       2.229   6.197  20.980  0.00  0.00    +0.000 HD
BRANCH  22  24
ATOM     24  C   UNL     1       3.096   6.351  19.070  0.00  0.00    +0.000 C 
BRANCH  24  25
ATOM     25  C   UNL     1       2.710   4.952  18.761  0.00  0.00    +0.000 A 
ATOM     26  C   UNL     1       1.948   4.375  17.770  0.00  0.00    +0.000 A 
ATOM     27  C   UNL     1       1.926   2.987  18.034  0.00  0.00    +0.000 A 
ATOM     28  C   UNL     1       2.677   2.808  19.171  0.00  0.00    +0.000 A 
ATOM     29  O   UNL     1       3.154   3.988  19.622  0.00  0.00    +0.000 OA
ENDBRANCH  24  25
ENDBRANCH  22  24
ENDBRANCH   9  20
BRANCH   1  31
ATOM     30  C   UNL     1      -3.718  15.232  23.840  0.00  0.00    +0.000 C 
ATOM     31  C   UNL     1      -4.420  14.760  22.570  0.00  0.00    +0.000 C 
ENDBRANCH   1  31
TORSDOF 4
ENDMDL
MODEL 3
REMARK VINA RESULT:      -7.5      8.495     11.970
REMARK  Name = 
REMARK  6 active torsions:
REMARK  status: ('A' for Active; 'I' for Inactive)
REMARK    1  A    between atoms: C_1  and  C_2
REMARK    2  A    between atoms: C_2  and  C_3
REMARK    3  A    between atoms: C_11  and  C_12
REMARK    4  A    between atoms: N_14  and  C_15
REMARK    5  A    between atoms: C_15  and  C_16
REMARK    6  A    between atoms: C_25  and  C_26
REMARK                            x       y       z     vdW  Elec       q    Type
REMARK                         _______ _______ _______ _____ _____    ______ ____
ROOT
ATOM      1  C   UNL     1      -2.806  10.715  15.701  0.00  0.00    +0.000 C 
ATOM      2  C   UNL     1      -2.116  10.009  16.879  0.00  0.00    +0.000 C 
ATOM      3  N   UNL     1      -2.115  10.891  18.057  0.00  0.00    +0.000 N 
ATOM      4  C   UNL     1      -0.887  11.116  18.689  0.00  0.00    +0.000 C 
ATOM      5  O   UNL     1       0.014  10.271  18.596  0.00  0.00    +0.000 OA
ATOM      6  N   UNL     1      -0.595  12.363  19.276  0.00  0.00    +0.000 N 
ATOM      7  C   UNL     1      -1.540  13.447  19.475  0.00  0.00    +0.000 C 
ATOM      8  C   UNL     1      -1.004  14.859  19.430  0.00  0.00    +0.000 C 
ATOM      9  C   UNL     1       0.215  15.013  20.315  0.00  0.00    +0.000 C 
ATOM     10  C   UNL     1       1.234  13.935  19.920  0.00  0.00    +0.000 C 
ATOM     11  C   UNL     1       0.662  12.514  20.023  0.00  0.00    +0.000 C 
ATOM     12  C   UNL     1      -3.417  11.404  18.339  0.00  0.00    +0.000 A 
ATOM     13  C   UNL     1      -3.800  11.846  19.611  0.00  0.00    +0.000 A 
ATOM     14  C   UNL     1      -4.838  12.786  19.744  0.00  0.00    +0.000 A 
ATOM     15  C   UNL     1      -4.928  13.661  20.963  0.00  0.00    +0.000 C 
ATOM     16  C   UNL     1      -5.705  12.998  18.670  0.00  0.00    +0.000 A 
ATOM     17  C   UNL     1      -5.489  12.334  17.464  0.00  0.00    +0.000 A 
ATOM     18  C   UNL     1      -4.330  11.576  17.285  0.00  0.00    +0.000 A 
ATOM     19  O   UNL     1      -4.157  11.080  16.020  0.00  0.00    +0.000 OA
ENDROOT
BRANCH   9  20
ATOM     20  C   UNL     1      -0.167  14.995  21.796  0.00  0.00    +0.000 C 
ATOM     21  O   UNL     1       0.607  14.693  22.701  0.00  0.00    +0.000 OA
ATOM     22  N   UNL     1      -1.481  15.297  22.024  0.00  0.00    +0.000 N 
ATOM     23  H   UNL     1      -2.093  15.542  21.256  0.00  0.00    +0.000 HD
BRANCH  22  24
ATOM     24  C   UNL     1      -2.054  15.339  23.349  0.00  0.00    +0.000 C 
BRANCH  24  25
ATOM     25  C   UNL     1      -2.654  14.009  23.618  0.00  0.00    +0.000 A 
ATOM     26  C   UNL     1      -2.353  12.730  23.205  0.00  0.00    +0.000 A 
ATOM     27  C   UNL     1      -3.321  11.879  23.784  0.00  0.00    +0.000 A 
ATOM     28  C   UNL     1      -4.152  12.696  24.513  0.00  0.00    +0.000 A 
ATOM     29  O   UNL     1      -3.762  13.986  24.419  0.00  0.00    +0.000 OA
ENDBRANCH  24  25
ENDBRANCH  22  24
ENDBRANCH   9  20
BRANCH   1  31
ATOM     30  C   UNL     1      -4.113  10.005  13.625  0.00  0.00    +0.000 C 
ATOM     31  C   UNL     1      -2.856   9.803  14.465  0.00  0.00    +0.000 C 
ENDBRANCH   1  31
TORSDOF 4
ENDMDL
MODEL 4
REMARK VINA RESULT:      -7.3      6.507     10.289
REMARK  Name = 
REMARK  6 active torsions:
REMARK  status: ('A' for Active; 'I' for Inactive)
REMARK    1  A    between atoms: C_1  and  C_2
REMARK    2  A    between atoms: C_2  and  C_3
REMARK    3  A    between atoms: C_11  and  C_12
REMARK    4  A    between atoms: N_14  and  C_15
REMARK    5  A    between atoms: C_15  and  C_16
REMARK    6  A    between atoms: C_25  and  C_26
REMARK                            x       y       z     vdW  Elec       q    Type
REMARK                         _______ _______ _______ _____ _____    ______ ____
ROOT
ATOM      1  C   UNL     1      -6.237  14.889  18.489  0.00  0.00    +0.000 C 
ATOM      2  C   UNL     1      -6.377  13.361  18.405  0.00  0.00    +0.000 C 
ATOM      3  N   UNL     1      -5.299  12.720  19.176  0.00  0.00    +0.000 N 
ATOM      4  C   UNL     1      -4.534  11.748  18.521  0.00  0.00    +0.000 C 
ATOM      5  O   UNL     1      -5.023  11.119  17.572  0.00  0.00    +0.000 OA
ATOM      6  N   UNL     1      -3.161  11.600  18.803  0.00  0.00    +0.000 N 
ATOM      7  C   UNL     1      -2.445  12.249  19.886  0.00  0.00    +0.000 C 
ATOM      8  C   UNL     1      -0.985  12.574  19.662  0.00  0.00    +0.000 C 
ATOM      9  C   UNL     1      -0.229  11.372  19.135  0.00  0.00    +0.000 C 
ATOM     10  C   UNL     1      -0.962  10.853  17.889  0.00  0.00    +0.000 C 
ATOM     11  C   UNL     1      -2.428  10.493  18.172  0.00  0.00    +0.000 C 
ATOM     12  C   UNL     1      -5.204  13.247  20.498  0.00  0.00    +0.000 A 
ATOM     13  C   UNL     1      -4.636  12.534  21.561  0.00  0.00    +0.000 A 
ATOM     14  C   UNL     1      -4.097  13.225  22.661  0.00  0.00    +0.000 A 
ATOM     15  C   UNL     1      -3.046  12.588  23.527  0.00  0.00    +0.000 C 
ATOM     16  C   UNL     1      -4.444  14.563  22.859  0.00  0.00    +0.000 A 
ATOM     17  C   UNL     1      -5.255  15.213  21.932  0.00  0.00    +0.000 A 
ATOM     18  C   UNL     1      -5.599  14.574  20.739  0.00  0.00    +0.000 A 
ATOM     19  O   UNL     1      -6.285  15.352  19.846  0.00  0.00    +0.000 OA
ENDROOT
BRANCH   9  20
ATOM     20  C   UNL     1      -0.032  10.317  20.225  0.00  0.00    +0.000 C 
ATOM     21  O   UNL     1      -0.680  10.278  21.268  0.00  0.00    +0.000 OA
ATOM     22  N   UNL     1       0.981   9.438  19.956  0.00  0.00    +0.000 N 
ATOM     23  H   UNL     1       1.495   9.496  19.087  0.00  0.00    +0.000 HD
BRANCH  22  24
ATOM     24  C   UNL     1       1.337   8.361  20.850  0.00  0.00    +0.000 C 
BRANCH  24  25
ATOM     25  C   UNL     1       1.875   7.253  20.022  0.00  0.00    +0.000 A 
ATOM     26  C   UNL     1       1.954   5.889  20.197  0.00  0.00    +0.000 A 
ATOM     27  C   UNL     1       2.609   5.373  19.056  0.00  0.00    +0.000 A 
ATOM     28  C   UNL     1       2.888   6.459  18.259  0.00  0.00    +0.000 A 
ATOM     29  O   UNL     1       2.453   7.601  18.833  0.00  0.00    +0.000 OA
ENDBRANCH  24  25
ENDBRANCH  22  24
ENDBRANCH   9  20
BRANCH   1  31
ATOM     30  C   UNL     1      -7.397  15.237  16.240  0.00  0.00    +0.000 C 
ATOM     31  C   UNL     1      -7.372  15.588  17.724  0.00  0.00    +0.000 C 
ENDBRANCH   1  31
TORSDOF 4
ENDMDL
MODEL 5
REMARK VINA RESULT:      -7.2      5.209      9.095
REMARK  Name = 
REMARK  6 active torsions:
REMARK  status: ('A' for Active; 'I' for Inactive)
REMARK    1  A    between atoms: C_1  and  C_2
REMARK    2  A    between atoms: C_2  and  C_3
REMARK    3  A    between atoms: C_11  and  C_12
REMARK    4  A    between atoms: N_14  and  C_15
REMARK    5  A    between atoms: C_15  and  C_16
REMARK    6  A    between atoms: C_25  and  C_26
REMARK                            x       y       z     vdW  Elec       q    Type
REMARK                         _______ _______ _______ _____ _____    ______ ____
ROOT
ATOM      1  C   UNL     1      -2.223  15.291  22.918  0.00  0.00    +0.000 C 
ATOM      2  C   UNL     1      -1.427  14.125  23.525  0.00  0.00    +0.000 C 
ATOM      3  N   UNL     1      -0.517  13.565  22.513  0.00  0.00    +0.000 N 
ATOM      4  C   UNL     1      -0.573  12.183  22.297  0.00  0.00    +0.000 C 
ATOM      5  O   UNL     1      -0.966  11.435  23.203  0.00  0.00    +0.000 OA
ATOM      6  N   UNL     1      -0.365  11.646  21.011  0.00  0.00    +0.000 N 
ATOM      7  C   UNL     1       0.109  12.381  19.853  0.00  0.00    +0.000 C 
ATOM      8  C   UNL     1      -0.371  11.929  18.493  0.00  0.00    +0.000 C 
ATOM      9  C   UNL     1      -0.193  10.435  18.316  0.00  0.00    +0.000 C 
ATOM     10  C   UNL     1      -0.874   9.727  19.496  0.00  0.00    +0.000 C 
ATOM     11  C   UNL     1      -0.325  10.184  20.856  0.00  0.00    +0.000 C 
ATOM     12  C   UNL     1       0.273  14.575  21.888  0.00  0.00    +0.000 A 
ATOM     13  C   UNL     1       1.504  14.308  21.277  0.00  0.00    +0.000 A 
ATOM     14  C   UNL     1       1.983  15.157  20.263  0.00  0.00    +0.000 A 
ATOM     15  C   UNL     1       2.972  14.656  19.248  0.00  0.00    +0.000 C 
ATOM     16  C   UNL     1       1.426  16.429  20.122  0.00  0.00    +0.000 A 
ATOM     17  C   UNL     1       0.361  16.813  20.934  0.00  0.00    +0.000 A 
ATOM     18  C   UNL     1      -0.239  15.879  21.782  0.00  0.00    +0.000 A 
ATOM     19  O   UNL     1      -1.358  16.328  22.432  0.00  0.00    +0.000 OA
ENDROOT
BRANCH   9  20
ATOM     20  C   UNL     1       1.281  10.068  18.137  0.00  0.00    +0.000 C 
ATOM     21  O   UNL     1       2.192  10.890  18.082  0.00  0.00    +0.000 OA
ATOM     22  N   UNL     1       1.494   8.725  17.987  0.00  0.00    +0.000 N 
ATOM     23  H   UNL     1       0.722   8.073  18.038  0.00  0.00    +0.000 HD
BRANCH  22  24
ATOM     24  C   UNL     1       2.811   8.159  17.807  0.00  0.00    +0.000 C 
BRANCH  24  25
ATOM     25  C   UNL     1       2.868   6.903  18.594  0.00  0.00    +0.000 A 
ATOM     26  C   UNL     1       2.358   6.524  19.816  0.00  0.00    +0.000 A 
ATOM     27  C   UNL     1       2.784   5.195  20.037  0.00  0.00    +0.000 A 
ATOM     28  C   UNL     1       3.528   4.850  18.933  0.00  0.00    +0.000 A 
ATOM     29  O   UNL     1       3.589   5.874  18.055  0.00  0.00    +0.000 OA
ENDBRANCH  24  25
ENDBRANCH  22  24
ENDBRANCH   9  20
BRANCH   1  31
ATOM     30  C   UNL     1      -2.911  15.403  25.375  0.00  0.00    +0.000 C 
ATOM     31  C   UNL     1      -3.156  15.924  23.963  0.00  0.00    +0.000 C 
ENDBRANCH   1  31
TORSDOF 4
ENDMDL
MODEL 6
REMARK VINA RESULT:      -7.2      8.528     12.692
REMARK  Name = 
REMARK  6 active torsions:
REMARK  status: ('A' for Active; 'I' for Inactive)
REMARK    1  A    between atoms: C_1  and  C_2
REMARK    2  A    between atoms: C_2  and  C_3
REMARK    3  A    between atoms: C_11  and  C_12
REMARK    4  A    between atoms: N_14  and  C_15
REMARK    5  A    between atoms: C_15  and  C_16
REMARK    6  A    between atoms: C_25  and  C_26
REMARK                            x       y       z     vdW  Elec       q    Type
REMARK                         _______ _______ _______ _____ _____    ______ ____
ROOT
ATOM      1  C   UNL     1      -2.838  10.785  15.685  0.00  0.00    +0.000 C 
ATOM      2  C   UNL     1      -2.400   9.905  16.866  0.00  0.00    +0.000 C 
ATOM      3  N   UNL     1      -2.519  10.662  18.122  0.00  0.00    +0.000 N 
ATOM      4  C   UNL     1      -1.394  10.708  18.952  0.00  0.00    +0.000 C 
ATOM      5  O   UNL     1      -0.556   9.796  18.901  0.00  0.00    +0.000 OA
ATOM      6  N   UNL     1      -1.104  11.859  19.712  0.00  0.00    +0.000 N 
ATOM      7  C   UNL     1      -1.983  13.001  19.887  0.00  0.00    +0.000 C 
ATOM      8  C   UNL     1      -1.340  14.354  20.082  0.00  0.00    +0.000 C 
ATOM      9  C   UNL     1      -0.268  14.306  21.151  0.00  0.00    +0.000 C 
ATOM     10  C   UNL     1       0.715  13.182  20.795  0.00  0.00    +0.000 C 
ATOM     11  C   UNL     1       0.027  11.817  20.651  0.00  0.00    +0.000 C 
ATOM     12  C   UNL     1      -3.806  11.264  18.261  0.00  0.00    +0.000 A 
ATOM     13  C   UNL     1      -4.352  11.612  19.503  0.00  0.00    +0.000 A 
ATOM     14  C   UNL     1      -5.322  12.626  19.583  0.00  0.00    +0.000 A 
ATOM     15  C   UNL     1      -5.538  13.381  20.866  0.00  0.00    +0.000 C 
ATOM     16  C   UNL     1      -5.989  13.023  18.422  0.00  0.00    +0.000 A 
ATOM     17  C   UNL     1      -5.635  12.465  17.196  0.00  0.00    +0.000 A 
ATOM     18  C   UNL     1      -4.524  11.623  17.108  0.00  0.00    +0.000 A 
ATOM     19  O   UNL     1      -4.190  11.241  15.836  0.00  0.00    +0.000 OA
ENDROOT
BRANCH   9  20
ATOM     20  C   UNL     1      -0.881  14.177  22.547  0.00  0.00    +0.000 C 
ATOM     21  O   UNL     1      -0.541  13.331  23.370  0.00  0.00    +0.000 OA
ATOM     22  N   UNL     1      -1.894  15.066  22.782  0.00  0.00    +0.000 N 
ATOM     23  H   UNL     1      -2.148  15.752  22.083  0.00  0.00    +0.000 HD
BRANCH  22  24
ATOM     24  C   UNL     1      -2.609  15.120  24.035  0.00  0.00    +0.000 C 
BRANCH  24  25
ATOM     25  C   UNL     1      -3.975  15.624  23.748  0.00  0.00    +0.000 A 
ATOM     26  C   UNL     1      -4.459  16.772  23.162  0.00  0.00    +0.000 A 
ATOM     27  C   UNL     1      -5.869  16.685  23.205  0.00  0.00    +0.000 A 
ATOM     28  C   UNL     1      -6.152  15.487  23.816  0.00  0.00    +0.000 A 
ATOM     29  O   UNL     1      -5.017  14.838  24.152  0.00  0.00    +0.000 OA
ENDBRANCH  24  25
ENDBRANCH  22  24
ENDBRANCH   9  20
BRANCH   1  31
ATOM     30  C   UNL     1      -4.099   9.935  13.632  0.00  0.00    +0.000 C 
ATOM     31  C   UNL     1      -2.761  10.009  14.361  0.00  0.00    +0.000 C 
ENDBRANCH   1  31
TORSDOF 4
ENDMDL
MODEL 7
REMARK VINA RESULT:      -7.2      7.697     13.288
REMARK  Name = 
REMARK  6 active torsions:
REMARK  status: ('A' for Active; 'I' for Inactive)
REMARK    1  A    between atoms: C_1  and  C_2
REMARK    2  A    between atoms: C_2  and  C_3
REMARK    3  A    between atoms: C_11  and  C_12
REMARK    4  A    between atoms: N_14  and  C_15
REMARK    5  A    between atoms: C_15  and  C_16
REMARK    6  A    between atoms: C_25  and  C_26
REMARK                            x       y       z     vdW  Elec       q    Type
REMARK                         _______ _______ _______ _____ _____    ______ ____
ROOT
ATOM      1  C   UNL     1      -0.505  10.305  22.099  0.00  0.00    +0.000 C 
ATOM      2  C   UNL     1      -0.282  10.674  20.623  0.00  0.00    +0.000 C 
ATOM      3  N   UNL     1      -1.305  11.641  20.193  0.00  0.00    +0.000 N 
ATOM      4  C   UNL     1      -2.028  11.335  19.035  0.00  0.00    +0.000 C 
ATOM      5  O   UNL     1      -1.525  10.599  18.174  0.00  0.00    +0.000 OA
ATOM      6  N   UNL     1      -3.384  11.700  18.913  0.00  0.00    +0.000 N 
ATOM      7  C   UNL     1      -4.111  12.567  19.822  0.00  0.00    +0.000 C 
ATOM      8  C   UNL     1      -5.591  12.312  19.996  0.00  0.00    +0.000 C 
ATOM      9  C   UNL     1      -6.290  12.196  18.657  0.00  0.00    +0.000 C 
ATOM     10  C   UNL     1      -5.557  11.134  17.824  0.00  0.00    +0.000 C 
ATOM     11  C   UNL     1      -4.068  11.455  17.635  0.00  0.00    +0.000 C 
ATOM     12  C   UNL     1      -1.400  12.749  21.086  0.00  0.00    +0.000 A 
ATOM     13  C   UNL     1      -1.904  13.997  20.698  0.00  0.00    +0.000 A 
ATOM     14  C   UNL     1      -2.456  14.861  21.661  0.00  0.00    +0.000 A 
ATOM     15  C   UNL     1      -3.450  15.917  21.263  0.00  0.00    +0.000 C 
ATOM     16  C   UNL     1      -2.181  14.639  23.012  0.00  0.00    +0.000 A 
ATOM     17  C   UNL     1      -1.427  13.530  23.392  0.00  0.00    +0.000 A 
ATOM     18  C   UNL     1      -1.075  12.570  22.441  0.00  0.00    +0.000 A 
ATOM     19  O   UNL     1      -0.453  11.459  22.948  0.00  0.00    +0.000 OA
ENDROOT
BRANCH   9  20
ATOM     20  C   UNL     1      -6.404  13.557  17.969  0.00  0.00    +0.000 C 
ATOM     21  O   UNL     1      -6.436  13.710  16.751  0.00  0.00    +0.000 OA
ATOM     22  N   UNL     1      -6.413  14.610  18.842  0.00  0.00    +0.000 N 
ATOM     23  H   UNL     1      -6.387  14.450  19.840  0.00  0.00    +0.000 HD
BRANCH  22  24
ATOM     24  C   UNL     1      -6.515  15.984  18.407  0.00  0.00    +0.000 C 
BRANCH  24  25
ATOM     25  C   UNL     1      -6.621  16.830  19.621  0.00  0.00    +0.000 A 
ATOM     26  C   UNL     1      -7.303  16.702  20.810  0.00  0.00    +0.000 A 
ATOM     27  C   UNL     1      -7.024  17.865  21.563  0.00  0.00    +0.000 A 
ATOM     28  C   UNL     1      -6.189  18.628  20.781  0.00  0.00    +0.000 A 
ATOM     29  O   UNL     1      -5.941  18.015  19.604  0.00  0.00    +0.000 OA
ENDBRANCH  24  25
ENDBRANCH  22  24
ENDBRANCH   9  20
BRANCH   1  31
ATOM     30  C   UNL     1       1.335   8.657  21.450  0.00  0.00    +0.000 C 
ATOM     31  C   UNL     1       0.572   9.324  22.589  0.00  0.00    +0.000 C 
ENDBRANCH   1  31
TORSDOF 4
ENDMDL
MODEL 8
REMARK VINA RESULT:      -7.2      8.482     13.270
REMARK  Name = 
REMARK  6 active torsions:
REMARK  status: ('A' for Active; 'I' for Inactive)
REMARK    1  A    between atoms: C_1  and  C_2
REMARK    2  A    between atoms: C_2  and  C_3
REMARK    3  A    between atoms: C_11  and  C_12
REMARK    4  A    between atoms: N_14  and  C_15
REMARK    5  A    between atoms: C_15  and  C_16
REMARK    6  A    between atoms: C_25  and  C_26
REMARK                            x       y       z     vdW  Elec       q    Type
REMARK                         _______ _______ _______ _____ _____    ______ ____
ROOT
ATOM      1  C   UNL     1      -2.585  10.173  17.842  0.00  0.00    +0.000 C 
ATOM      2  C   UNL     1      -3.372  11.493  17.839  0.00  0.00    +0.000 C 
ATOM      3  N   UNL     1      -3.019  12.285  19.027  0.00  0.00    +0.000 N 
ATOM      4  C   UNL     1      -4.072  12.746  19.826  0.00  0.00    +0.000 C 
ATOM      5  O   UNL     1      -5.192  12.917  19.325  0.00  0.00    +0.000 OA
ATOM      6  N   UNL     1      -3.926  12.845  21.224  0.00  0.00    +0.000 N 
ATOM      7  C   UNL     1      -2.684  12.691  21.959  0.00  0.00    +0.000 C 
ATOM      8  C   UNL     1      -2.766  12.131  23.361  0.00  0.00    +0.000 C 
ATOM      9  C   UNL     1      -3.814  12.853  24.182  0.00  0.00    +0.000 C 
ATOM     10  C   UNL     1      -5.139  12.818  23.407  0.00  0.00    +0.000 C 
ATOM     11  C   UNL     1      -5.021  13.438  22.006  0.00  0.00    +0.000 C 
ATOM     12  C   UNL     1      -1.607  12.424  19.175  0.00  0.00    +0.000 A 
ATOM     13  C   UNL     1      -1.017  13.476  19.887  0.00  0.00    +0.000 A 
ATOM     14  C   UNL     1       0.265  13.315  20.443  0.00  0.00    +0.000 A 
ATOM     15  C   UNL     1       0.704  14.152  21.612  0.00  0.00    +0.000 C 
ATOM     16  C   UNL     1       1.076  12.272  19.990  0.00  0.00    +0.000 A 
ATOM     17  C   UNL     1       0.583  11.368  19.053  0.00  0.00    +0.000 A 
ATOM     18  C   UNL     1      -0.762  11.417  18.679  0.00  0.00    +0.000 A 
ATOM     19  O   UNL     1      -1.168  10.400  17.856  0.00  0.00    +0.000 OA
ENDROOT
BRANCH   9  20
ATOM     20  C   UNL     1      -3.351  14.262  24.559  0.00  0.00    +0.000 C 
ATOM     21  O   UNL     1      -2.180  14.567  24.767  0.00  0.00    +0.000 OA
ATOM     22  N   UNL     1      -4.379  15.154  24.699  0.00  0.00    +0.000 N 
ATOM     23  H   UNL     1      -5.333  14.871  24.518  0.00  0.00    +0.000 HD
BRANCH  22  24
ATOM     24  C   UNL     1      -4.167  16.539  25.049  0.00  0.00    +0.000 C 
BRANCH  24  25
ATOM     25  C   UNL     1      -4.056  17.307  23.784  0.00  0.00    +0.000 A 
ATOM     26  C   UNL     1      -3.123  18.192  23.290  0.00  0.00    +0.000 A 
ATOM     27  C   UNL     1      -3.597  18.615  22.028  0.00  0.00    +0.000 A 
ATOM     28  C   UNL     1      -4.790  17.961  21.835  0.00  0.00    +0.000 A 
ATOM     29  O   UNL     1      -5.081  17.170  22.890  0.00  0.00    +0.000 OA
ENDBRANCH  24  25
ENDBRANCH  22  24
ENDBRANCH   9  20
BRANCH   1  31
ATOM     30  C   UNL     1      -2.839  10.148  15.301  0.00  0.00    +0.000 C 
ATOM     31  C   UNL     1      -2.903   9.338  16.592  0.00  0.00    +0.000 C 
ENDBRANCH   1  31
TORSDOF 4
ENDMDL
MODEL 9
REMARK VINA RESULT:      -7.1      9.769     14.222
REMARK  Name = 
REMARK  6 active torsions:
REMARK  status: ('A' for Active; 'I' for Inactive)
REMARK    1  A    between atoms: C_1  and  C_2
REMARK    2  A    between atoms: C_2  and  C_3
REMARK    3  A    between atoms: C_11  and  C_12
REMARK    4  A    between atoms: N_14  and  C_15
REMARK    5  A    between atoms: C_15  and  C_16
REMARK    6  A    between atoms: C_25  and  C_26
REMARK                            x       y       z     vdW  Elec       q    Type
REMARK                         _______ _______ _______ _____ _____    ______ ____
ROOT
ATOM      1  C   UNL     1      -3.216  11.529  16.863  0.00  0.00    +0.000 C 
ATOM      2  C   UNL     1      -2.872  11.061  18.286  0.00  0.00    +0.000 C 
ATOM      3  N   UNL     1      -3.498  11.959  19.270  0.00  0.00    +0.000 N 
ATOM      4  C   UNL     1      -2.669  12.505  20.257  0.00  0.00    +0.000 C 
ATOM      5  O   UNL     1      -1.636  11.907  20.590  0.00  0.00    +0.000 OA
ATOM      6  N   UNL     1      -2.893  13.807  20.747  0.00  0.00    +0.000 N 
ATOM      7  C   UNL     1      -4.056  14.628  20.467  0.00  0.00    +0.000 C 
ATOM      8  C   UNL     1      -3.862  16.127  20.435  0.00  0.00    +0.000 C 
ATOM      9  C   UNL     1      -3.119  16.612  21.663  0.00  0.00    +0.000 C 
ATOM     10  C   UNL     1      -1.818  15.806  21.786  0.00  0.00    +0.000 C 
ATOM     11  C   UNL     1      -2.064  14.292  21.861  0.00  0.00    +0.000 C 
ATOM     12  C   UNL     1      -4.889  12.143  19.014  0.00  0.00    +0.000 A 
ATOM     13  C   UNL     1      -5.801  12.523  20.007  0.00  0.00    +0.000 A 
ATOM     14  C   UNL     1      -6.992  13.180  19.651  0.00  0.00    +0.000 A 
ATOM     15  C   UNL     1      -7.713  14.051  20.642  0.00  0.00    +0.000 C 
ATOM     16  C   UNL     1      -7.426  13.130  18.324  0.00  0.00    +0.000 A 
ATOM     17  C   UNL     1      -6.642  12.496  17.363  0.00  0.00    +0.000 A 
ATOM     18  C   UNL     1      -5.364  12.043  17.695  0.00  0.00    +0.000 A 
ATOM     19  O   UNL     1      -4.633  11.559  16.643  0.00  0.00    +0.000 OA
ENDROOT
BRANCH   9  20
ATOM     20  C   UNL     1      -4.006  16.555  22.908  0.00  0.00    +0.000 C 
ATOM     21  O   UNL     1      -3.576  16.549  24.058  0.00  0.00    +0.000 OA
ATOM     22  N   UNL     1      -5.341  16.455  22.623  0.00  0.00    +0.000 N 
ATOM     23  H   UNL     1      -5.663  16.464  21.664  0.00  0.00    +0.000 HD
BRANCH  22  24
ATOM     24  C   UNL     1      -6.355  16.389  23.649  0.00  0.00    +0.000 C 
BRANCH  24  25
ATOM     25  C   UNL     1      -6.723  14.962  23.822  0.00  0.00    +0.000 A 
ATOM     26  C   UNL     1      -7.887  14.319  24.180  0.00  0.00    +0.000 A 
ATOM     27  C   UNL     1      -7.595  12.936  24.198  0.00  0.00    +0.000 A 
ATOM     28  C   UNL     1      -6.269  12.827  23.851  0.00  0.00    +0.000 A 
ATOM     29  O   UNL     1      -5.730  14.044  23.624  0.00  0.00    +0.000 OA
ENDBRANCH  24  25
ENDBRANCH  22  24
ENDBRANCH   9  20
BRANCH   1  31
ATOM     30  C   UNL     1      -3.596  10.195  14.718  0.00  0.00    +0.000 C 
ATOM     31  C   UNL     1      -2.607  10.588  15.812  0.00  0.00    +0.000 C 
ENDBRANCH   1  31
TORSDOF 4
ENDMDL
