MODEL 1
REMARK VINA RESULT:      -7.8      0.000      0.000
REMARK  Name = 
REMARK  9 active torsions:
REMARK  status: ('A' for Active; 'I' for Inactive)
REMARK    1  A    between atoms: C_1  and  C_2
REMARK    2  A    between atoms: C_4  and  C_5
REMARK    3  A    between atoms: C_13  and  C_14
REMARK    4  A    between atoms: C_14  and  S_15
REMARK    5  A    between atoms: S_15  and  C_17
REMARK    6  A    between atoms: C_17  and  C_18
REMARK    7  A    between atoms: N_20  and  C_21
REMARK    8  A    between atoms: C_21  and  C_22
REMARK    9  A    between atoms: C_22  and  N_23
REMARK                            x       y       z     vdW  Elec       q    Type
REMARK                         _______ _______ _______ _____ _____    ______ ____
ROOT
ATOM      1  S   UNL     1       6.344   4.255  16.919  0.00  0.00    +0.000 S 
ATOM      2  O   UNL     1       7.733   4.732  16.345  0.00  0.00    +0.000 OA
ENDROOT
BRANCH   1   3
ATOM      3  C   UNL     1       5.027   5.200  16.080  0.00  0.00    +0.000 C 
BRANCH   3   9
ATOM      4  C   UNL     1       2.789   3.282  17.729  0.00  0.00    +0.000 C 
ATOM      5  C   UNL     1       3.060   4.731  17.704  0.00  0.00    +0.000 A 
ATOM      6  O   UNL     1       2.272   5.513  18.491  0.00  0.00    +0.000 OA
ATOM      7  C   UNL     1       2.728   6.787  18.284  0.00  0.00    +0.000 A 
ATOM      8  N   UNL     1       3.724   6.865  17.421  0.00  0.00    +0.000 NA
ATOM      9  C   UNL     1       3.956   5.550  17.050  0.00  0.00    +0.000 A 
BRANCH   7  10
ATOM     10  C   UNL     1       2.046   7.842  19.031  0.00  0.00    +0.000 A 
ATOM     11  C   UNL     1       1.724   9.070  18.428  0.00  0.00    +0.000 A 
ATOM     12  C   UNL     1       1.080  10.080  19.152  0.00  0.00    +0.000 A 
ATOM     13  C   UNL     1       0.751   9.869  20.488  0.00  0.00    +0.000 A 
ATOM     14 CL   UNL     1      -0.033  11.112  21.380  0.00  0.00    +0.000 Cl
ATOM     15  C   UNL     1       1.058   8.657  21.103  0.00  0.00    +0.000 A 
ATOM     16  C   UNL     1       1.702   7.648  20.377  0.00  0.00    +0.000 A 
ENDBRANCH   7  10
ENDBRANCH   3   9
ENDBRANCH   1   3
BRANCH   1  17
ATOM     17  C   UNL     1       6.183   4.996  18.567  0.00  0.00    +0.000 C 
BRANCH  17  18
ATOM     18  C   UNL     1       7.383   5.826  18.934  0.00  0.00    +0.000 C 
ATOM     19  O   UNL     1       8.224   5.407  19.729  0.00  0.00    +0.000 OA
ATOM     20  N   UNL     1       7.504   7.046  18.301  0.00  0.00    +0.000 N 
ATOM     21  H   UNL     1       6.714   7.474  17.829  0.00  0.00    +0.000 HD
BRANCH  20  22
ATOM     22  C   UNL     1       8.644   7.888  18.609  0.00  0.00    +0.000 C 
BRANCH  22  23
ATOM     23  C   UNL     1       8.391   9.397  18.425  0.00  0.00    +0.000 C 
BRANCH  23  24
ATOM     24  N   UNL     1       9.516  10.303  18.767  0.00  0.00    +0.000 NA
ATOM     25  C   UNL     1       9.564  11.482  17.893  0.00  0.00    +0.000 C 
ATOM     26  C   UNL     1      11.002  11.985  17.719  0.00  0.00    +0.000 C 
ATOM     27  C   UNL     1      11.543  12.825  18.867  0.00  0.00    +0.000 C 
ATOM     28  C   UNL     1      11.514  12.134  20.226  0.00  0.00    +0.000 C 
ATOM     29  C   UNL     1      10.093  11.916  20.725  0.00  0.00    +0.000 C 
ATOM     30  C   UNL     1       9.411  10.645  20.202  0.00  0.00    +0.000 C 
ENDBRANCH  23  24
ENDBRANCH  22  23
ENDBRANCH  20  22
ENDBRANCH  17  18
ENDBRANCH   1  17
TORSDOF 8
ENDMDL
MODEL 2
REMARK VINA RESULT:      -7.7      0.519      1.035
REMARK  Name = 
REMARK  9 active torsions:
REMARK  status: ('A' for Active; 'I' for Inactive)
REMARK    1  A    between atoms: C_1  and  C_2
REMARK    2  A    between atoms: C_4  and  C_5
REMARK    3  A    between atoms: C_13  and  C_14
REMARK    4  A    between atoms: C_14  and  S_15
REMARK    5  A    between atoms: S_15  and  C_17
REMARK    6  A    between atoms: C_17  and  C_18
REMARK    7  A    between atoms: N_20  and  C_21
REMARK    8  A    between atoms: C_21  and  C_22
REMARK    9  A    between atoms: C_22  and  N_23
REMARK                            x       y       z     vdW  Elec       q    Type
REMARK                         _______ _______ _______ _____ _____    ______ ____
ROOT
ATOM      1  S   UNL     1       6.259   4.461  17.198  0.00  0.00    +0.000 S 
ATOM      2  O   UNL     1       7.558   4.726  16.346  0.00  0.00    +0.000 OA
ENDROOT
BRANCH   1   3
ATOM      3  C   UNL     1       4.861   5.309  16.385  0.00  0.00    +0.000 C 
BRANCH   3   9
ATOM      4  C   UNL     1       2.826   3.404  18.291  0.00  0.00    +0.000 C 
ATOM      5  C   UNL     1       3.018   4.859  18.154  0.00  0.00    +0.000 A 
ATOM      6  O   UNL     1       2.238   5.655  18.933  0.00  0.00    +0.000 OA
ATOM      7  C   UNL     1       2.615   6.931  18.616  0.00  0.00    +0.000 A 
ATOM      8  N   UNL     1       3.553   6.998  17.690  0.00  0.00    +0.000 NA
ATOM      9  C   UNL     1       3.832   5.673  17.393  0.00  0.00    +0.000 A 
BRANCH   7  10
ATOM     10  C   UNL     1       1.922   8.002  19.331  0.00  0.00    +0.000 A 
ATOM     11  C   UNL     1       1.548   7.857  20.677  0.00  0.00    +0.000 A 
ATOM     12  C   UNL     1       0.876   8.882  21.352  0.00  0.00    +0.000 A 
ATOM     13  C   UNL     1       0.573  10.064  20.684  0.00  0.00    +0.000 A 
ATOM     14 CL   UNL     1      -0.260  11.322  21.510  0.00  0.00    +0.000 Cl
ATOM     15  C   UNL     1       0.939  10.231  19.350  0.00  0.00    +0.000 A 
ATOM     16  C   UNL     1       1.611   9.204  18.677  0.00  0.00    +0.000 A 
ENDBRANCH   7  10
ENDBRANCH   3   9
ENDBRANCH   1   3
BRANCH   1  17
ATOM     17  C   UNL     1       6.379   5.516  18.669  0.00  0.00    +0.000 C 
BRANCH  17  18
ATOM     18  C   UNL     1       7.488   6.528  18.550  0.00  0.00    +0.000 C 
ATOM     19  O   UNL     1       8.518   6.419  19.212  0.00  0.00    +0.000 OA
ATOM     20  N   UNL     1       7.298   7.542  17.635  0.00  0.00    +0.000 N 
ATOM     21  H   UNL     1       6.376   7.751  17.263  0.00  0.00    +0.000 HD
BRANCH  20  22
ATOM     22  C   UNL     1       8.334   8.544  17.470  0.00  0.00    +0.000 C 
BRANCH  22  23
ATOM     23  C   UNL     1       8.202   9.759  18.408  0.00  0.00    +0.000 C 
BRANCH  23  24
ATOM     24  N   UNL     1       9.449  10.512  18.694  0.00  0.00    +0.000 NA
ATOM     25  C   UNL     1       9.541  11.752  17.911  0.00  0.00    +0.000 C 
ATOM     26  C   UNL     1      11.001  12.117  17.623  0.00  0.00    +0.000 C 
ATOM     27  C   UNL     1      11.743  12.795  18.766  0.00  0.00    +0.000 C 
ATOM     28  C   UNL     1      11.771  11.997  20.064  0.00  0.00    +0.000 C 
ATOM     29  C   UNL     1      10.391  11.883  20.695  0.00  0.00    +0.000 C 
ATOM     30  C   UNL     1       9.524  10.739  20.154  0.00  0.00    +0.000 C 
ENDBRANCH  23  24
ENDBRANCH  22  23
ENDBRANCH  20  22
ENDBRANCH  17  18
ENDBRANCH   1  17
TORSDOF 8
ENDMDL
MODEL 3
REMARK VINA RESULT:      -7.5      1.613      2.002
REMARK  Name = 
REMARK  9 active torsions:
REMARK  status: ('A' for Active; 'I' for Inactive)
REMARK    1  A    between atoms: C_1  and  C_2
REMARK    2  A    between atoms: C_4  and  C_5
REMARK    3  A    between atoms: C_13  and  C_14
REMARK    4  A    between atoms: C_14  and  S_15
REMARK    5  A    between atoms: S_15  and  C_17
REMARK    6  A    between atoms: C_17  and  C_18
REMARK    7  A    between atoms: N_20  and  C_21
REMARK    8  A    between atoms: C_21  and  C_22
REMARK    9  A    between atoms: C_22  and  N_23
REMARK                            x       y       z     vdW  Elec       q    Type
REMARK                         _______ _______ _______ _____ _____    ______ ____
ROOT
ATOM      1  S   UNL     1       4.328   5.740  17.208  0.00  0.00    +0.000 S 
ATOM      2  O   UNL     1       4.292   7.313  17.115  0.00  0.00    +0.000 OA
ENDROOT
BRANCH   1   3
ATOM      3  C   UNL     1       4.364   5.274  18.973  0.00  0.00    +0.000 C 
BRANCH   3   9
ATOM      4  C   UNL     1       1.851   3.748  20.635  0.00  0.00    +0.000 C 
ATOM      5  C   UNL     1       2.160   5.158  20.337  0.00  0.00    +0.000 A 
ATOM      6  O   UNL     1       1.283   6.087  20.803  0.00  0.00    +0.000 OA
ATOM      7  C   UNL     1       1.800   7.288  20.397  0.00  0.00    +0.000 A 
ATOM      8  N   UNL     1       2.916   7.183  19.702  0.00  0.00    +0.000 NA
ATOM      9  C   UNL     1       3.168   5.820  19.666  0.00  0.00    +0.000 A 
BRANCH   7  10
ATOM     10  C   UNL     1       1.040   8.477  20.781  0.00  0.00    +0.000 A 
ATOM     11  C   UNL     1       0.784   9.507  19.862  0.00  0.00    +0.000 A 
ATOM     12  C   UNL     1       0.065  10.647  20.239  0.00  0.00    +0.000 A 
ATOM     13  C   UNL     1      -0.406  10.765  21.543  0.00  0.00    +0.000 A 
ATOM     14 CL   UNL     1      -1.282  12.168  22.010  0.00  0.00    +0.000 Cl
ATOM     15  C   UNL     1      -0.167   9.753  22.470  0.00  0.00    +0.000 A 
ATOM     16  C   UNL     1       0.553   8.613  22.090  0.00  0.00    +0.000 A 
ENDBRANCH   7  10
ENDBRANCH   3   9
ENDBRANCH   1   3
BRANCH   1  17
ATOM     17  C   UNL     1       6.016   5.235  16.774  0.00  0.00    +0.000 C 
BRANCH  17  18
ATOM     18  C   UNL     1       7.052   5.995  17.557  0.00  0.00    +0.000 C 
ATOM     19  O   UNL     1       7.753   5.429  18.395  0.00  0.00    +0.000 OA
ATOM     20  N   UNL     1       7.196   7.332  17.251  0.00  0.00    +0.000 N 
ATOM     21  H   UNL     1       6.481   7.833  16.732  0.00  0.00    +0.000 HD
BRANCH  20  22
ATOM     22  C   UNL     1       8.183   8.116  17.967  0.00  0.00    +0.000 C 
BRANCH  22  23
ATOM     23  C   UNL     1       8.001   9.640  17.844  0.00  0.00    +0.000 C 
BRANCH  23  24
ATOM     24  N   UNL     1       9.149  10.481  18.267  0.00  0.00    +0.000 NA
ATOM     25  C   UNL     1       9.001  11.878  17.839  0.00  0.00    +0.000 C 
ATOM     26  C   UNL     1      10.366  12.531  17.595  0.00  0.00    +0.000 C 
ATOM     27  C   UNL     1      11.098  13.000  18.845  0.00  0.00    +0.000 C 
ATOM     28  C   UNL     1      11.346  11.910  19.881  0.00  0.00    +0.000 C 
ATOM     29  C   UNL     1      10.052  11.423  20.518  0.00  0.00    +0.000 C 
ATOM     30  C   UNL     1       9.312  10.335  19.730  0.00  0.00    +0.000 C 
ENDBRANCH  23  24
ENDBRANCH  22  23
ENDBRANCH  20  22
ENDBRANCH  17  18
ENDBRANCH   1  17
TORSDOF 8
ENDMDL
MODEL 4
REMARK VINA RESULT:      -7.5      1.369      1.869
REMARK  Name = 
REMARK  9 active torsions:
REMARK  status: ('A' for Active; 'I' for Inactive)
REMARK    1  A    between atoms: C_1  and  C_2
REMARK    2  A    between atoms: C_4  and  C_5
REMARK    3  A    between atoms: C_13  and  C_14
REMARK    4  A    between atoms: C_14  and  S_15
REMARK    5  A    between atoms: S_15  and  C_17
REMARK    6  A    between atoms: C_17  and  C_18
REMARK    7  A    between atoms: N_20  and  C_21
REMARK    8  A    between atoms: C_21  and  C_22
REMARK    9  A    between atoms: C_22  and  N_23
REMARK                            x       y       z     vdW  Elec       q    Type
REMARK                         _______ _______ _______ _____ _____    ______ ____
ROOT
ATOM      1  S   UNL     1       6.854   4.682  16.175  0.00  0.00    +0.000 S 
ATOM      2  O   UNL     1       6.678   5.763  15.042  0.00  0.00    +0.000 OA
ENDROOT
BRANCH   1   3
ATOM      3  C   UNL     1       5.254   3.835  16.407  0.00  0.00    +0.000 C 
BRANCH   3   9
ATOM      4  C   UNL     1       4.454   2.944  19.565  0.00  0.00    +0.000 C 
ATOM      5  C   UNL     1       4.155   4.127  18.739  0.00  0.00    +0.000 A 
ATOM      6  O   UNL     1       3.400   5.100  19.316  0.00  0.00    +0.000 OA
ATOM      7  C   UNL     1       3.278   6.064  18.353  0.00  0.00    +0.000 A 
ATOM      8  N   UNL     1       3.880   5.765  17.217  0.00  0.00    +0.000 NA
ATOM      9  C   UNL     1       4.459   4.529  17.455  0.00  0.00    +0.000 A 
BRANCH   7  10
ATOM     10  C   UNL     1       2.504   7.248  18.723  0.00  0.00    +0.000 A 
ATOM     11  C   UNL     1       2.229   8.261  17.790  0.00  0.00    +0.000 A 
ATOM     12  C   UNL     1       1.497   9.396  18.154  0.00  0.00    +0.000 A 
ATOM     13  C   UNL     1       1.031   9.528  19.458  0.00  0.00    +0.000 A 
ATOM     14 CL   UNL     1       0.137  10.926  19.909  0.00  0.00    +0.000 Cl
ATOM     15  C   UNL     1       1.288   8.533  20.399  0.00  0.00    +0.000 A 
ATOM     16  C   UNL     1       2.022   7.397  20.032  0.00  0.00    +0.000 A 
ENDBRANCH   7  10
ENDBRANCH   3   9
ENDBRANCH   1   3
BRANCH   1  17
ATOM     17  C   UNL     1       6.899   5.583  17.749  0.00  0.00    +0.000 C 
BRANCH  17  18
ATOM     18  C   UNL     1       7.083   7.064  17.547  0.00  0.00    +0.000 C 
ATOM     19  O   UNL     1       6.305   7.709  16.846  0.00  0.00    +0.000 OA
ATOM     20  N   UNL     1       8.134   7.650  18.221  0.00  0.00    +0.000 N 
ATOM     21  H   UNL     1       8.888   7.091  18.609  0.00  0.00    +0.000 HD
BRANCH  20  22
ATOM     22  C   UNL     1       8.358   9.075  18.072  0.00  0.00    +0.000 C 
BRANCH  22  23
ATOM     23  C   UNL     1       9.142   9.723  19.228  0.00  0.00    +0.000 C 
BRANCH  23  24
ATOM     24  N   UNL     1       9.531  11.145  19.050  0.00  0.00    +0.000 NA
ATOM     25  C   UNL     1      10.285  11.662  20.199  0.00  0.00    +0.000 C 
ATOM     26  C   UNL     1      10.052  13.165  20.384  0.00  0.00    +0.000 C 
ATOM     27  C   UNL     1      10.856  14.070  19.460  0.00  0.00    +0.000 C 
ATOM     28  C   UNL     1      10.646  13.804  17.974  0.00  0.00    +0.000 C 
ATOM     29  C   UNL     1      11.206  12.454  17.551  0.00  0.00    +0.000 C 
ATOM     30  C   UNL     1      10.264  11.264  17.771  0.00  0.00    +0.000 C 
ENDBRANCH  23  24
ENDBRANCH  22  23
ENDBRANCH  20  22
ENDBRANCH  17  18
ENDBRANCH   1  17
TORSDOF 8
ENDMDL
MODEL 5
REMARK VINA RESULT:      -7.3      1.779      2.620
REMARK  Name = 
REMARK  9 active torsions:
REMARK  status: ('A' for Active; 'I' for Inactive)
REMARK    1  A    between atoms: C_1  and  C_2
REMARK    2  A    between atoms: C_4  and  C_5
REMARK    3  A    between atoms: C_13  and  C_14
REMARK    4  A    between atoms: C_14  and  S_15
REMARK    5  A    between atoms: S_15  and  C_17
REMARK    6  A    between atoms: C_17  and  C_18
REMARK    7  A    between atoms: N_20  and  C_21
REMARK    8  A    between atoms: C_21  and  C_22
REMARK    9  A    between atoms: C_22  and  N_23
REMARK                            x       y       z     vdW  Elec       q    Type
REMARK                         _______ _______ _______ _____ _____    ______ ____
ROOT
ATOM      1  S   UNL     1       5.673   5.384  18.892  0.00  0.00    +0.000 S 
ATOM      2  O   UNL     1       5.695   3.842  19.215  0.00  0.00    +0.000 OA
ENDROOT
BRANCH   1   3
ATOM      3  C   UNL     1       4.298   5.705  17.734  0.00  0.00    +0.000 C 
BRANCH   3   9
ATOM      4  C   UNL     1       2.255   5.313  20.395  0.00  0.00    +0.000 C 
ATOM      5  C   UNL     1       2.492   6.421  19.453  0.00  0.00    +0.000 A 
ATOM      6  O   UNL     1       1.761   7.553  19.644  0.00  0.00    +0.000 OA
ATOM      7  C   UNL     1       2.172   8.404  18.655  0.00  0.00    +0.000 A 
ATOM      8  N   UNL     1       3.085   7.891  17.852  0.00  0.00    +0.000 NA
ATOM      9  C   UNL     1       3.311   6.622  18.361  0.00  0.00    +0.000 A 
BRANCH   7  10
ATOM     10  C   UNL     1       1.536   9.721  18.637  0.00  0.00    +0.000 A 
ATOM     11  C   UNL     1       0.182   9.882  18.971  0.00  0.00    +0.000 A 
ATOM     12  C   UNL     1      -0.422  11.144  18.941  0.00  0.00    +0.000 A 
ATOM     13  C   UNL     1       0.326  12.258  18.575  0.00  0.00    +0.000 A 
ATOM     14 CL   UNL     1      -0.417  13.808  18.530  0.00  0.00    +0.000 Cl
ATOM     15  C   UNL     1       1.672  12.122  18.244  0.00  0.00    +0.000 A 
ATOM     16  C   UNL     1       2.275  10.858  18.275  0.00  0.00    +0.000 A 
ENDBRANCH   7  10
ENDBRANCH   3   9
ENDBRANCH   1   3
BRANCH   1  17
ATOM     17  C   UNL     1       7.048   5.694  17.750  0.00  0.00    +0.000 C 
BRANCH  17  18
ATOM     18  C   UNL     1       7.273   7.165  17.521  0.00  0.00    +0.000 C 
ATOM     19  O   UNL     1       6.640   7.776  16.662  0.00  0.00    +0.000 OA
ATOM     20  N   UNL     1       8.185   7.783  18.351  0.00  0.00    +0.000 N 
ATOM     21  H   UNL     1       8.852   7.245  18.895  0.00  0.00    +0.000 HD
BRANCH  20  22
ATOM     22  C   UNL     1       8.440   9.201  18.184  0.00  0.00    +0.000 C 
BRANCH  22  23
ATOM     23  C   UNL     1       9.131   9.873  19.385  0.00  0.00    +0.000 C 
BRANCH  23  24
ATOM     24  N   UNL     1       9.603  11.266  19.184  0.00  0.00    +0.000 NA
ATOM     25  C   UNL     1      10.496  11.711  20.262  0.00  0.00    +0.000 C 
ATOM     26  C   UNL     1      10.390  13.223  20.481  0.00  0.00    +0.000 C 
ATOM     27  C   UNL     1      11.168  14.083  19.494  0.00  0.00    +0.000 C 
ATOM     28  C   UNL     1      10.803  13.856  18.032  0.00  0.00    +0.000 C 
ATOM     29  C   UNL     1      11.223  12.476  17.546  0.00  0.00    +0.000 C 
ATOM     30  C   UNL     1      10.222  11.352  17.843  0.00  0.00    +0.000 C 
ENDBRANCH  23  24
ENDBRANCH  22  23
ENDBRANCH  20  22
ENDBRANCH  17  18
ENDBRANCH   1  17
TORSDOF 8
ENDMDL
MODEL 6
REMARK VINA RESULT:      -7.2      2.765      7.489
REMARK  Name = 
REMARK  9 active torsions:
REMARK  status: ('A' for Active; 'I' for Inactive)
REMARK    1  A    between atoms: C_1  and  C_2
REMARK    2  A    between atoms: C_4  and  C_5
REMARK    3  A    between atoms: C_13  and  C_14
REMARK    4  A    between atoms: C_14  and  S_15
REMARK    5  A    between atoms: S_15  and  C_17
REMARK    6  A    between atoms: C_17  and  C_18
REMARK    7  A    between atoms: N_20  and  C_21
REMARK    8  A    between atoms: C_21  and  C_22
REMARK    9  A    between atoms: C_22  and  N_23
REMARK                            x       y       z     vdW  Elec       q    Type
REMARK                         _______ _______ _______ _____ _____    ______ ____
ROOT
ATOM      1  S   UNL     1       6.482   5.572  15.264  0.00  0.00    +0.000 S 
ATOM      2  O   UNL     1       8.030   5.860  15.189  0.00  0.00    +0.000 OA
ENDROOT
BRANCH   1   3
ATOM      3  C   UNL     1       5.773   6.611  16.588  0.00  0.00    +0.000 C 
BRANCH   3   9
ATOM      4  C   UNL     1       7.845   5.226  18.867  0.00  0.00    +0.000 C 
ATOM      5  C   UNL     1       7.689   6.592  18.336  0.00  0.00    +0.000 A 
ATOM      6  O   UNL     1       8.530   7.540  18.832  0.00  0.00    +0.000 OA
ATOM      7  C   UNL     1       8.180   8.691  18.181  0.00  0.00    +0.000 A 
ATOM      8  N   UNL     1       7.179   8.543  17.333  0.00  0.00    +0.000 NA
ATOM      9  C   UNL     1       6.863   7.197  17.412  0.00  0.00    +0.000 A 
BRANCH   7  10
ATOM     10  C   UNL     1       8.948   9.885  18.530  0.00  0.00    +0.000 A 
ATOM     11  C   UNL     1       9.273  10.179  19.864  0.00  0.00    +0.000 A 
ATOM     12  C   UNL     1       9.999  11.330  20.192  0.00  0.00    +0.000 A 
ATOM     13  C   UNL     1      10.409  12.197  19.184  0.00  0.00    +0.000 A 
ATOM     14 CL   UNL     1      11.294  13.615  19.586  0.00  0.00    +0.000 Cl
ATOM     15  C   UNL     1      10.101  11.922  17.853  0.00  0.00    +0.000 A 
ATOM     16  C   UNL     1       9.374  10.770  17.528  0.00  0.00    +0.000 A 
ENDBRANCH   7  10
ENDBRANCH   3   9
ENDBRANCH   1   3
BRANCH   1  17
ATOM     17  C   UNL     1       6.294   3.960  16.074  0.00  0.00    +0.000 C 
BRANCH  17  18
ATOM     18  C   UNL     1       4.909   3.765  16.631  0.00  0.00    +0.000 C 
ATOM     19  O   UNL     1       3.914   3.928  15.926  0.00  0.00    +0.000 OA
ATOM     20  N   UNL     1       4.828   3.357  17.946  0.00  0.00    +0.000 N 
ATOM     21  H   UNL     1       5.622   3.439  18.574  0.00  0.00    +0.000 HD
BRANCH  20  22
ATOM     22  C   UNL     1       3.520   3.146  18.538  0.00  0.00    +0.000 C 
BRANCH  22  23
ATOM     23  C   UNL     1       3.305   3.863  19.884  0.00  0.00    +0.000 C 
BRANCH  23  24
ATOM     24  N   UNL     1       2.955   5.305  19.818  0.00  0.00    +0.000 NA
ATOM     25  C   UNL     1       2.408   5.684  18.509  0.00  0.00    +0.000 C 
ATOM     26  C   UNL     1       2.733   7.144  18.174  0.00  0.00    +0.000 C 
ATOM     27  C   UNL     1       1.838   8.180  18.838  0.00  0.00    +0.000 C 
ATOM     28  C   UNL     1       1.807   8.108  20.360  0.00  0.00    +0.000 C 
ATOM     29  C   UNL     1       1.130   6.839  20.858  0.00  0.00    +0.000 C 
ATOM     30  C   UNL     1       2.042   5.609  20.941  0.00  0.00    +0.000 C 
ENDBRANCH  23  24
ENDBRANCH  22  23
ENDBRANCH  20  22
ENDBRANCH  17  18
ENDBRANCH   1  17
TORSDOF 8
ENDMDL
MODEL 7
REMARK VINA RESULT:      -7.1      1.642      2.037
REMARK  Name = 
REMARK  9 active torsions:
REMARK  status: ('A' for Active; 'I' for Inactive)
REMARK    1  A    between atoms: C_1  and  C_2
REMARK    2  A    between atoms: C_4  and  C_5
REMARK    3  A    between atoms: C_13  and  C_14
REMARK    4  A    between atoms: C_14  and  S_15
REMARK    5  A    between atoms: S_15  and  C_17
REMARK    6  A    between atoms: C_17  and  C_18
REMARK    7  A    between atoms: N_20  and  C_21
REMARK    8  A    between atoms: C_21  and  C_22
REMARK    9  A    between atoms: C_22  and  N_23
REMARK                            x       y       z     vdW  Elec       q    Type
REMARK                         _______ _______ _______ _____ _____    ______ ____
ROOT
ATOM      1  S   UNL     1       7.236   5.580  19.059  0.00  0.00    +0.000 S 
ATOM      2  O   UNL     1       8.542   4.742  19.337  0.00  0.00    +0.000 OA
ENDROOT
BRANCH   1   3
ATOM      3  C   UNL     1       5.882   4.415  18.681  0.00  0.00    +0.000 C 
BRANCH   3   9
ATOM      4  C   UNL     1       3.249   3.144  20.371  0.00  0.00    +0.000 C 
ATOM      5  C   UNL     1       3.522   4.456  19.758  0.00  0.00    +0.000 A 
ATOM      6  O   UNL     1       2.544   5.395  19.862  0.00  0.00    +0.000 OA
ATOM      7  C   UNL     1       3.048   6.496  19.225  0.00  0.00    +0.000 A 
ATOM      8  N   UNL     1       4.253   6.316  18.717  0.00  0.00    +0.000 NA
ATOM      9  C   UNL     1       4.576   5.013  19.064  0.00  0.00    +0.000 A 
BRANCH   7  10
ATOM     10  C   UNL     1       2.182   7.674  19.197  0.00  0.00    +0.000 A 
ATOM     11  C   UNL     1       2.002   8.419  18.020  0.00  0.00    +0.000 A 
ATOM     12  C   UNL     1       1.181   9.552  18.003  0.00  0.00    +0.000 A 
ATOM     13  C   UNL     1       0.531   9.949  19.167  0.00  0.00    +0.000 A 
ATOM     14 CL   UNL     1      -0.472  11.346  19.150  0.00  0.00    +0.000 Cl
ATOM     15  C   UNL     1       0.692   9.222  20.345  0.00  0.00    +0.000 A 
ATOM     16  C   UNL     1       1.515   8.089  20.359  0.00  0.00    +0.000 A 
ENDBRANCH   7  10
ENDBRANCH   3   9
ENDBRANCH   1   3
BRANCH   1  17
ATOM     17  C   UNL     1       7.425   6.301  17.406  0.00  0.00    +0.000 C 
BRANCH  17  18
ATOM     18  C   UNL     1       7.446   7.806  17.445  0.00  0.00    +0.000 C 
ATOM     19  O   UNL     1       6.560   8.466  16.904  0.00  0.00    +0.000 OA
ATOM     20  N   UNL     1       8.478   8.388  18.150  0.00  0.00    +0.000 N 
ATOM     21  H   UNL     1       9.310   7.860  18.398  0.00  0.00    +0.000 HD
BRANCH  20  22
ATOM     22  C   UNL     1       8.549   9.835  18.229  0.00  0.00    +0.000 C 
BRANCH  22  23
ATOM     23  C   UNL     1       9.268  10.372  19.481  0.00  0.00    +0.000 C 
BRANCH  23  24
ATOM     24  N   UNL     1       9.998  11.655  19.325  0.00  0.00    +0.000 NA
ATOM     25  C   UNL     1       9.269  12.610  18.480  0.00  0.00    +0.000 C 
ATOM     26  C   UNL     1      10.234  13.539  17.735  0.00  0.00    +0.000 C 
ATOM     27  C   UNL     1      10.785  14.699  18.553  0.00  0.00    +0.000 C 
ATOM     28  C   UNL     1      11.517  14.285  19.825  0.00  0.00    +0.000 C 
ATOM     29  C   UNL     1      10.574  13.679  20.855  0.00  0.00    +0.000 C 
ATOM     30  C   UNL     1      10.295  12.182  20.675  0.00  0.00    +0.000 C 
ENDBRANCH  23  24
ENDBRANCH  22  23
ENDBRANCH  20  22
ENDBRANCH  17  18
ENDBRANCH   1  17
TORSDOF 8
ENDMDL
MODEL 8
REMARK VINA RESULT:      -7.1      1.325      1.760
REMARK  Name = 
REMARK  9 active torsions:
REMARK  status: ('A' for Active; 'I' for Inactive)
REMARK    1  A    between atoms: C_1  and  C_2
REMARK    2  A    between atoms: C_4  and  C_5
REMARK    3  A    between atoms: C_13  and  C_14
REMARK    4  A    between atoms: C_14  and  S_15
REMARK    5  A    between atoms: S_15  and  C_17
REMARK    6  A    between atoms: C_17  and  C_18
REMARK    7  A    between atoms: N_20  and  C_21
REMARK    8  A    between atoms: C_21  and  C_22
REMARK    9  A    between atoms: C_22  and  N_23
REMARK                            x       y       z     vdW  Elec       q    Type
REMARK                         _______ _______ _______ _____ _____    ______ ____
ROOT
ATOM      1  S   UNL     1       5.228   5.412  16.210  0.00  0.00    +0.000 S 
ATOM      2  O   UNL     1       4.772   6.872  16.590  0.00  0.00    +0.000 OA
ENDROOT
BRANCH   1   3
ATOM      3  C   UNL     1       4.735   4.290  17.563  0.00  0.00    +0.000 C 
BRANCH   3   9
ATOM      4  C   UNL     1       3.041   3.200  20.274  0.00  0.00    +0.000 C 
ATOM      5  C   UNL     1       3.115   4.497  19.579  0.00  0.00    +0.000 A 
ATOM      6  O   UNL     1       2.361   5.508  20.090  0.00  0.00    +0.000 OA
ATOM      7  C   UNL     1       2.613   6.577  19.274  0.00  0.00    +0.000 A 
ATOM      8  N   UNL     1       3.446   6.312  18.286  0.00  0.00    +0.000 NA
ATOM      9  C   UNL     1       3.788   4.982  18.477  0.00  0.00    +0.000 A 
BRANCH   7  10
ATOM     10  C   UNL     1       1.921   7.820  19.612  0.00  0.00    +0.000 A 
ATOM     11  C   UNL     1       1.711   8.823  18.651  0.00  0.00    +0.000 A 
ATOM     12  C   UNL     1       1.058  10.014  18.985  0.00  0.00    +0.000 A 
ATOM     13  C   UNL     1       0.606  10.212  20.286  0.00  0.00    +0.000 A 
ATOM     14 CL   UNL     1      -0.190  11.679  20.699  0.00  0.00    +0.000 Cl
ATOM     15  C   UNL     1       0.800   9.229  21.254  0.00  0.00    +0.000 A 
ATOM     16  C   UNL     1       1.455   8.037  20.917  0.00  0.00    +0.000 A 
ENDBRANCH   7  10
ENDBRANCH   3   9
ENDBRANCH   1   3
BRANCH   1  17
ATOM     17  C   UNL     1       7.023   5.347  16.462  0.00  0.00    +0.000 C 
BRANCH  17  18
ATOM     18  C   UNL     1       7.475   6.282  17.552  0.00  0.00    +0.000 C 
ATOM     19  O   UNL     1       7.604   5.889  18.710  0.00  0.00    +0.000 OA
ATOM     20  N   UNL     1       7.773   7.573  17.169  0.00  0.00    +0.000 N 
ATOM     21  H   UNL     1       7.458   7.944  16.277  0.00  0.00    +0.000 HD
BRANCH  20  22
ATOM     22  C   UNL     1       8.220   8.520  18.173  0.00  0.00    +0.000 C 
BRANCH  22  23
ATOM     23  C   UNL     1       8.237   9.987  17.705  0.00  0.00    +0.000 C 
BRANCH  23  24
ATOM     24  N   UNL     1       9.062  10.927  18.504  0.00  0.00    +0.000 NA
ATOM     25  C   UNL     1       9.356  10.406  19.845  0.00  0.00    +0.000 C 
ATOM     26  C   UNL     1       9.516  11.543  20.860  0.00  0.00    +0.000 C 
ATOM     27  C   UNL     1      10.868  12.244  20.846  0.00  0.00    +0.000 C 
ATOM     28  C   UNL     1      11.259  12.840  19.498  0.00  0.00    +0.000 C 
ATOM     29  C   UNL     1      11.524  11.765  18.454  0.00  0.00    +0.000 C 
ATOM     30  C   UNL     1      10.278  11.248  17.725  0.00  0.00    +0.000 C 
ENDBRANCH  23  24
ENDBRANCH  22  23
ENDBRANCH  20  22
ENDBRANCH  17  18
ENDBRANCH   1  17
TORSDOF 8
ENDMDL
MODEL 9
REMARK VINA RESULT:      -6.9      4.381      6.157
REMARK  Name = 
REMARK  9 active torsions:
REMARK  status: ('A' for Active; 'I' for Inactive)
REMARK    1  A    between atoms: C_1  and  C_2
REMARK    2  A    between atoms: C_4  and  C_5
REMARK    3  A    between atoms: C_13  and  C_14
REMARK    4  A    between atoms: C_14  and  S_15
REMARK    5  A    between atoms: S_15  and  C_17
REMARK    6  A    between atoms: C_17  and  C_18
REMARK    7  A    between atoms: N_20  and  C_21
REMARK    8  A    between atoms: C_21  and  C_22
REMARK    9  A    between atoms: C_22  and  N_23
REMARK                            x       y       z     vdW  Elec       q    Type
REMARK                         _______ _______ _______ _____ _____    ______ ____
ROOT
ATOM      1  S   UNL     1       1.342   4.841  20.310  0.00  0.00    +0.000 S 
ATOM      2  O   UNL     1       1.168   4.458  18.791  0.00  0.00    +0.000 OA
ENDROOT
BRANCH   1   3
ATOM      3  C   UNL     1       2.550   6.206  20.418  0.00  0.00    +0.000 C 
BRANCH   3   9
ATOM      4  C   UNL     1       2.279   8.289  17.774  0.00  0.00    +0.000 C 
ATOM      5  C   UNL     1       1.771   8.334  19.157  0.00  0.00    +0.000 A 
ATOM      6  O   UNL     1       1.030   9.422  19.501  0.00  0.00    +0.000 OA
ATOM      7  C   UNL     1       0.689   9.212  20.809  0.00  0.00    +0.000 A 
ATOM      8  N   UNL     1       1.172   8.093  21.315  0.00  0.00    +0.000 NA
ATOM      9  C   UNL     1       1.857   7.511  20.261  0.00  0.00    +0.000 A 
BRANCH   7  10
ATOM     10  C   UNL     1      -0.131  10.250  21.434  0.00  0.00    +0.000 A 
ATOM     11  C   UNL     1      -0.663  10.081  22.723  0.00  0.00    +0.000 A 
ATOM     12  C   UNL     1      -1.456  11.073  23.310  0.00  0.00    +0.000 A 
ATOM     13  C   UNL     1      -1.723  12.246  22.610  0.00  0.00    +0.000 A 
ATOM     14 CL   UNL     1      -2.704  13.463  23.328  0.00  0.00    +0.000 Cl
ATOM     15  C   UNL     1      -1.201  12.436  21.333  0.00  0.00    +0.000 A 
ATOM     16  C   UNL     1      -0.408  11.441  20.747  0.00  0.00    +0.000 A 
ENDBRANCH   7  10
ENDBRANCH   3   9
ENDBRANCH   1   3
BRANCH   1  17
ATOM     17  C   UNL     1       2.358   3.538  21.060  0.00  0.00    +0.000 C 
BRANCH  17  18
ATOM     18  C   UNL     1       3.367   2.980  20.092  0.00  0.00    +0.000 C 
ATOM     19  O   UNL     1       4.574   3.101  20.296  0.00  0.00    +0.000 OA
ATOM     20  N   UNL     1       2.863   2.299  19.004  0.00  0.00    +0.000 N 
ATOM     21  H   UNL     1       1.890   2.393  18.728  0.00  0.00    +0.000 HD
BRANCH  20  22
ATOM     22  C   UNL     1       3.786   1.733  18.040  0.00  0.00    +0.000 C 
BRANCH  22  23
ATOM     23  C   UNL     1       4.067   2.631  16.820  0.00  0.00    +0.000 C 
BRANCH  23  24
ATOM     24  N   UNL     1       4.952   3.801  17.050  0.00  0.00    +0.000 NA
ATOM     25  C   UNL     1       6.066   3.850  16.093  0.00  0.00    +0.000 C 
ATOM     26  C   UNL     1       7.299   4.516  16.713  0.00  0.00    +0.000 C 
ATOM     27  C   UNL     1       7.272   6.038  16.745  0.00  0.00    +0.000 C 
ATOM     28  C   UNL     1       6.075   6.635  17.477  0.00  0.00    +0.000 C 
ATOM     29  C   UNL     1       4.768   6.377  16.739  0.00  0.00    +0.000 C 
ATOM     30  C   UNL     1       4.116   5.021  17.032  0.00  0.00    +0.000 C 
ENDBRANCH  23  24
ENDBRANCH  22  23
ENDBRANCH  20  22
ENDBRANCH  17  18
ENDBRANCH   1  17
TORSDOF 8
ENDMDL
