MODEL 1
REMARK VINA RESULT:      -7.5      0.000      0.000
REMARK  Name = 
REMARK  11 active torsions:
REMARK  status: ('A' for Active; 'I' for Inactive)
REMARK    1  A    between atoms: C_1  and  N_2
REMARK    2  A    between atoms: N_2  and  C_3
REMARK    3  A    between atoms: C_3  and  C_4
REMARK    4  A    between atoms: C_4  and  N_5
REMARK    5  A    between atoms: C_10  and  N_11
REMARK    6  A    between atoms: N_11  and  C_12
REMARK    7  A    between atoms: C_12  and  C_13
REMARK    8  A    between atoms: C_13  and  N_14
REMARK    9  A    between atoms: N_14  and  C_15
REMARK   10  A    between atoms: C_15  and  C_16
REMARK   11  A    between atoms: C_16  and  O_17
REMARK                            x       y       z     vdW  Elec       q    Type
REMARK                         _______ _______ _______ _____ _____    ______ ____
ROOT
ATOM      1  N   UNL     1       2.803   4.244  20.611  0.00  0.00    +0.000 N 
ATOM      2  N   UNL     1       2.227   5.453  20.854  0.00  0.00    +0.000 NA
ATOM      3  C   UNL     1       2.546   6.171  19.776  0.00  0.00    +0.000 A 
ATOM      4  C   UNL     1       3.338   5.447  18.882  0.00  0.00    +0.000 A 
ATOM      5  C   UNL     1       3.857   5.826  17.643  0.00  0.00    +0.000 A 
ATOM      6  C   UNL     1       4.577   4.861  16.908  0.00  0.00    +0.000 A 
ATOM      7  C   UNL     1       4.758   3.590  17.508  0.00  0.00    +0.000 A 
ATOM      8  C   UNL     1       4.248   3.224  18.763  0.00  0.00    +0.000 A 
ATOM      9  C   UNL     1       3.506   4.194  19.430  0.00  0.00    +0.000 A 
ATOM     10  C   UNL     1       3.494   7.239  17.262  0.00  0.00    +0.000 C 
ATOM     11  O   UNL     1       3.912   7.760  16.237  0.00  0.00    +0.000 OA
ATOM     12  C   UNL     1       2.598   8.043  18.201  0.00  0.00    +0.000 A 
ATOM     13  C   UNL     1       2.208   9.333  17.841  0.00  0.00    +0.000 A 
ATOM     14  C   UNL     1       1.397  10.038  18.724  0.00  0.00    +0.000 A 
ATOM     15  N   UNL     1       0.962   9.550  19.913  0.00  0.00    +0.000 NA
ATOM     16  C   UNL     1       1.351   8.298  20.242  0.00  0.00    +0.000 A 
ATOM     17  C   UNL     1       2.154   7.514  19.434  0.00  0.00    +0.000 A 
ENDROOT
BRANCH   6  18
ATOM     18  N   UNL     1       5.022   5.105  15.611  0.00  0.00    +0.000 N 
ATOM     19  H   UNL     1       4.424   5.726  15.059  0.00  0.00    +0.000 HD
BRANCH  18  20
ATOM     20  C   UNL     1       6.446   5.164  15.300  0.00  0.00    +0.000 C 
BRANCH  20  21
ATOM     21  C   UNL     1       7.308   5.321  16.566  0.00  0.00    +0.000 C 
BRANCH  21  22
ATOM     22  N   UNL     1       7.519   6.734  16.924  0.00  0.00    +0.000 NA
ATOM     23  H   UNL     1       6.640   7.233  16.782  0.00  0.00    +0.000 HD
BRANCH  22  24
ATOM     24  C   UNL     1       7.887   6.841  18.347  0.00  0.00    +0.000 C 
BRANCH  24  25
ATOM     25  C   UNL     1       7.408   5.612  19.125  0.00  0.00    +0.000 C 
BRANCH  25  26
ATOM     26  O   UNL     1       7.972   5.605  20.435  0.00  0.00    +0.000 OA
ATOM     27  H   UNL     1       7.229   5.775  21.039  0.00  0.00    +0.000 HD
ENDBRANCH  25  26
ENDBRANCH  24  25
ENDBRANCH  22  24
ENDBRANCH  21  22
ENDBRANCH  20  21
ENDBRANCH  18  20
ENDBRANCH   6  18
BRANCH   1  28
ATOM     28  C   UNL     1       2.580   3.153  21.546  0.00  0.00    +0.000 C 
BRANCH  28  29
ATOM     29  C   UNL     1       1.188   2.540  21.364  0.00  0.00    +0.000 C 
BRANCH  29  31
ATOM     30  C   UNL     1       0.592   2.286  19.049  0.00  0.00    +0.000 C 
ATOM     31  N   UNL     1       0.473   3.139  20.226  0.00  0.00    +0.000 NA
ATOM     32  H   UNL     1      -0.513   3.257  20.452  0.00  0.00    +0.000 HD
ENDBRANCH  29  31
ENDBRANCH  28  29
ENDBRANCH   1  28
TORSDOF 10
ENDMDL
MODEL 2
REMARK VINA RESULT:      -7.0      1.776      3.050
REMARK  Name = 
REMARK  11 active torsions:
REMARK  status: ('A' for Active; 'I' for Inactive)
REMARK    1  A    between atoms: C_1  and  N_2
REMARK    2  A    between atoms: N_2  and  C_3
REMARK    3  A    between atoms: C_3  and  C_4
REMARK    4  A    between atoms: C_4  and  N_5
REMARK    5  A    between atoms: C_10  and  N_11
REMARK    6  A    between atoms: N_11  and  C_12
REMARK    7  A    between atoms: C_12  and  C_13
REMARK    8  A    between atoms: C_13  and  N_14
REMARK    9  A    between atoms: N_14  and  C_15
REMARK   10  A    between atoms: C_15  and  C_16
REMARK   11  A    between atoms: C_16  and  O_17
REMARK                            x       y       z     vdW  Elec       q    Type
REMARK                         _______ _______ _______ _____ _____    ______ ____
ROOT
ATOM      1  N   UNL     1       2.716   4.450  20.756  0.00  0.00    +0.000 N 
ATOM      2  N   UNL     1       2.081   5.642  20.933  0.00  0.00    +0.000 NA
ATOM      3  C   UNL     1       2.445   6.348  19.861  0.00  0.00    +0.000 A 
ATOM      4  C   UNL     1       3.320   5.635  19.038  0.00  0.00    +0.000 A 
ATOM      5  C   UNL     1       3.906   6.008  17.827  0.00  0.00    +0.000 A 
ATOM      6  C   UNL     1       4.707   5.055  17.163  0.00  0.00    +0.000 A 
ATOM      7  C   UNL     1       4.894   3.804  17.804  0.00  0.00    +0.000 A 
ATOM      8  C   UNL     1       4.315   3.446  19.031  0.00  0.00    +0.000 A 
ATOM      9  C   UNL     1       3.496   4.401  19.625  0.00  0.00    +0.000 A 
ATOM     10  C   UNL     1       3.519   7.397  17.390  0.00  0.00    +0.000 C 
ATOM     11  O   UNL     1       3.985   7.913  16.382  0.00  0.00    +0.000 OA
ATOM     12  C   UNL     1       2.534   8.187  18.249  0.00  0.00    +0.000 A 
ATOM     13  C   UNL     1       2.123   9.454  17.834  0.00  0.00    +0.000 A 
ATOM     14  C   UNL     1       1.231  10.146  18.645  0.00  0.00    +0.000 A 
ATOM     15  N   UNL     1       0.736   9.667  19.815  0.00  0.00    +0.000 NA
ATOM     16  C   UNL     1       1.147   8.438  20.198  0.00  0.00    +0.000 A 
ATOM     17  C   UNL     1       2.029   7.668  19.463  0.00  0.00    +0.000 A 
ENDROOT
BRANCH   6  18
ATOM     18  N   UNL     1       5.228   5.288  15.892  0.00  0.00    +0.000 N 
ATOM     19  H   UNL     1       4.837   6.100  15.408  0.00  0.00    +0.000 HD
BRANCH  18  20
ATOM     20  C   UNL     1       6.619   4.979  15.579  0.00  0.00    +0.000 C 
BRANCH  20  21
ATOM     21  C   UNL     1       6.831   4.722  14.076  0.00  0.00    +0.000 C 
BRANCH  21  22
ATOM     22  N   UNL     1       6.331   3.401  13.662  0.00  0.00    +0.000 NA
ATOM     23  H   UNL     1       5.471   3.210  14.176  0.00  0.00    +0.000 HD
BRANCH  22  24
ATOM     24  C   UNL     1       6.017   3.413  12.222  0.00  0.00    +0.000 C 
BRANCH  24  25
ATOM     25  C   UNL     1       4.531   3.125  11.989  0.00  0.00    +0.000 C 
BRANCH  25  26
ATOM     26  O   UNL     1       4.073   3.806  10.822  0.00  0.00    +0.000 OA
ATOM     27  H   UNL     1       4.513   3.366  10.075  0.00  0.00    +0.000 HD
ENDBRANCH  25  26
ENDBRANCH  24  25
ENDBRANCH  22  24
ENDBRANCH  21  22
ENDBRANCH  20  21
ENDBRANCH  18  20
ENDBRANCH   6  18
BRANCH   1  28
ATOM     28  C   UNL     1       2.470   3.371  21.700  0.00  0.00    +0.000 C 
BRANCH  28  29
ATOM     29  C   UNL     1       1.239   2.552  21.300  0.00  0.00    +0.000 C 
BRANCH  29  31
ATOM     30  C   UNL     1       0.702   2.346  18.966  0.00  0.00    +0.000 C 
ATOM     31  N   UNL     1       0.525   3.158  20.165  0.00  0.00    +0.000 NA
ATOM     32  H   UNL     1      -0.469   3.231  20.374  0.00  0.00    +0.000 HD
ENDBRANCH  29  31
ENDBRANCH  28  29
ENDBRANCH   1  28
TORSDOF 10
ENDMDL
MODEL 3
REMARK VINA RESULT:      -6.9      1.981      6.375
REMARK  Name = 
REMARK  11 active torsions:
REMARK  status: ('A' for Active; 'I' for Inactive)
REMARK    1  A    between atoms: C_1  and  N_2
REMARK    2  A    between atoms: N_2  and  C_3
REMARK    3  A    between atoms: C_3  and  C_4
REMARK    4  A    between atoms: C_4  and  N_5
REMARK    5  A    between atoms: C_10  and  N_11
REMARK    6  A    between atoms: N_11  and  C_12
REMARK    7  A    between atoms: C_12  and  C_13
REMARK    8  A    between atoms: C_13  and  N_14
REMARK    9  A    between atoms: N_14  and  C_15
REMARK   10  A    between atoms: C_15  and  C_16
REMARK   11  A    between atoms: C_16  and  O_17
REMARK                            x       y       z     vdW  Elec       q    Type
REMARK                         _______ _______ _______ _____ _____    ______ ____
ROOT
ATOM      1  N   UNL     1       2.109   8.409  18.104  0.00  0.00    +0.000 N 
ATOM      2  N   UNL     1       3.048   8.186  17.143  0.00  0.00    +0.000 NA
ATOM      3  C   UNL     1       3.661   7.077  17.559  0.00  0.00    +0.000 A 
ATOM      4  C   UNL     1       3.148   6.623  18.776  0.00  0.00    +0.000 A 
ATOM      5  C   UNL     1       3.499   5.499  19.526  0.00  0.00    +0.000 A 
ATOM      6  C   UNL     1       2.763   5.236  20.701  0.00  0.00    +0.000 A 
ATOM      7  C   UNL     1       1.751   6.163  21.054  0.00  0.00    +0.000 A 
ATOM      8  C   UNL     1       1.418   7.301  20.303  0.00  0.00    +0.000 A 
ATOM      9  C   UNL     1       2.141   7.493  19.129  0.00  0.00    +0.000 A 
ATOM     10  C   UNL     1       4.608   4.695  18.896  0.00  0.00    +0.000 C 
ATOM     11  O   UNL     1       5.085   3.710  19.444  0.00  0.00    +0.000 OA
ATOM     12  C   UNL     1       5.163   5.145  17.547  0.00  0.00    +0.000 A 
ATOM     13  C   UNL     1       6.153   4.385  16.924  0.00  0.00    +0.000 A 
ATOM     14  C   UNL     1       6.639   4.829  15.699  0.00  0.00    +0.000 A 
ATOM     15  N   UNL     1       6.211   5.955  15.073  0.00  0.00    +0.000 NA
ATOM     16  C   UNL     1       5.252   6.677  15.694  0.00  0.00    +0.000 A 
ATOM     17  C   UNL     1       4.702   6.320  16.912  0.00  0.00    +0.000 A 
ENDROOT
BRANCH   6  18
ATOM     18  N   UNL     1       2.953   4.073  21.444  0.00  0.00    +0.000 N 
ATOM     19  H   UNL     1       3.687   4.131  22.155  0.00  0.00    +0.000 HD
BRANCH  18  20
ATOM     20  C   UNL     1       1.836   3.192  21.765  0.00  0.00    +0.000 C 
BRANCH  20  21
ATOM     21  C   UNL     1       1.290   2.472  20.518  0.00  0.00    +0.000 C 
BRANCH  21  22
ATOM     22  N   UNL     1       2.366   1.966  19.651  0.00  0.00    +0.000 NA
ATOM     23  H   UNL     1       2.408   0.952  19.755  0.00  0.00    +0.000 HD
BRANCH  22  24
ATOM     24  C   UNL     1       2.062   2.274  18.242  0.00  0.00    +0.000 C 
BRANCH  24  25
ATOM     25  C   UNL     1       0.902   3.268  18.143  0.00  0.00    +0.000 C 
BRANCH  25  26
ATOM     26  O   UNL     1       1.194   4.275  17.175  0.00  0.00    +0.000 OA
ATOM     27  H   UNL     1       1.589   3.804  16.422  0.00  0.00    +0.000 HD
ENDBRANCH  25  26
ENDBRANCH  24  25
ENDBRANCH  22  24
ENDBRANCH  21  22
ENDBRANCH  20  21
ENDBRANCH  18  20
ENDBRANCH   6  18
BRANCH   1  28
ATOM     28  C   UNL     1       1.167   9.502  17.931  0.00  0.00    +0.000 C 
BRANCH  28  29
ATOM     29  C   UNL     1       1.720  10.810  18.506  0.00  0.00    +0.000 C 
BRANCH  29  31
ATOM     30  C   UNL     1       2.713  12.933  17.973  0.00  0.00    +0.000 C 
ATOM     31  N   UNL     1       2.470  11.575  17.498  0.00  0.00    +0.000 NA
ATOM     32  H   UNL     1       3.364  11.125  17.308  0.00  0.00    +0.000 HD
ENDBRANCH  29  31
ENDBRANCH  28  29
ENDBRANCH   1  28
TORSDOF 10
ENDMDL
MODEL 4
REMARK VINA RESULT:      -6.8      2.229      6.297
REMARK  Name = 
REMARK  11 active torsions:
REMARK  status: ('A' for Active; 'I' for Inactive)
REMARK    1  A    between atoms: C_1  and  N_2
REMARK    2  A    between atoms: N_2  and  C_3
REMARK    3  A    between atoms: C_3  and  C_4
REMARK    4  A    between atoms: C_4  and  N_5
REMARK    5  A    between atoms: C_10  and  N_11
REMARK    6  A    between atoms: N_11  and  C_12
REMARK    7  A    between atoms: C_12  and  C_13
REMARK    8  A    between atoms: C_13  and  N_14
REMARK    9  A    between atoms: N_14  and  C_15
REMARK   10  A    between atoms: C_15  and  C_16
REMARK   11  A    between atoms: C_16  and  O_17
REMARK                            x       y       z     vdW  Elec       q    Type
REMARK                         _______ _______ _______ _____ _____    ______ ____
ROOT
ATOM      1  N   UNL     1       2.164   8.361  18.190  0.00  0.00    +0.000 N 
ATOM      2  N   UNL     1       3.203   8.169  17.330  0.00  0.00    +0.000 NA
ATOM      3  C   UNL     1       3.776   7.052  17.782  0.00  0.00    +0.000 A 
ATOM      4  C   UNL     1       3.139   6.562  18.924  0.00  0.00    +0.000 A 
ATOM      5  C   UNL     1       3.415   5.421  19.678  0.00  0.00    +0.000 A 
ATOM      6  C   UNL     1       2.559   5.123  20.759  0.00  0.00    +0.000 A 
ATOM      7  C   UNL     1       1.508   6.036  21.026  0.00  0.00    +0.000 A 
ATOM      8  C   UNL     1       1.249   7.191  20.272  0.00  0.00    +0.000 A 
ATOM      9  C   UNL     1       2.092   7.418  19.189  0.00  0.00    +0.000 A 
ATOM     10  C   UNL     1       4.592   4.639  19.151  0.00  0.00    +0.000 C 
ATOM     11  O   UNL     1       5.015   3.643  19.721  0.00  0.00    +0.000 OA
ATOM     12  C   UNL     1       5.285   5.128  17.882  0.00  0.00    +0.000 A 
ATOM     13  C   UNL     1       6.343   4.390  17.349  0.00  0.00    +0.000 A 
ATOM     14  C   UNL     1       6.954   4.869  16.196  0.00  0.00    +0.000 A 
ATOM     15  N   UNL     1       6.588   6.009  15.557  0.00  0.00    +0.000 NA
ATOM     16  C   UNL     1       5.561   6.709  16.090  0.00  0.00    +0.000 A 
ATOM     17  C   UNL     1       4.886   6.318  17.231  0.00  0.00    +0.000 A 
ENDROOT
BRANCH   6  18
ATOM     18  N   UNL     1       2.677   3.942  21.488  0.00  0.00    +0.000 N 
ATOM     19  H   UNL     1       3.056   4.054  22.432  0.00  0.00    +0.000 HD
BRANCH  18  20
ATOM     20  C   UNL     1       1.721   2.853  21.320  0.00  0.00    +0.000 C 
BRANCH  20  21
ATOM     21  C   UNL     1       1.125   2.820  19.901  0.00  0.00    +0.000 C 
BRANCH  21  22
ATOM     22  N   UNL     1       1.618   1.675  19.117  0.00  0.00    +0.000 NA
ATOM     23  H   UNL     1       0.833   1.047  18.944  0.00  0.00    +0.000 HD
BRANCH  22  24
ATOM     24  C   UNL     1       2.134   2.142  17.818  0.00  0.00    +0.000 C 
BRANCH  24  25
ATOM     25  C   UNL     1       3.626   1.828  17.682  0.00  0.00    +0.000 C 
BRANCH  25  26
ATOM     26  O   UNL     1       3.949   0.640  18.403  0.00  0.00    +0.000 OA
ATOM     27  H   UNL     1       3.363   0.640  19.179  0.00  0.00    +0.000 HD
ENDBRANCH  25  26
ENDBRANCH  24  25
ENDBRANCH  22  24
ENDBRANCH  21  22
ENDBRANCH  20  21
ENDBRANCH  18  20
ENDBRANCH   6  18
BRANCH   1  28
ATOM     28  C   UNL     1       1.237   9.454  17.946  0.00  0.00    +0.000 C 
BRANCH  28  29
ATOM     29  C   UNL     1       1.762  10.769  18.528  0.00  0.00    +0.000 C 
BRANCH  29  31
ATOM     30  C   UNL     1       2.647  12.938  17.989  0.00  0.00    +0.000 C 
ATOM     31  N   UNL     1       2.474  11.568  17.519  0.00  0.00    +0.000 NA
ATOM     32  H   UNL     1       3.389  11.163  17.331  0.00  0.00    +0.000 HD
ENDBRANCH  29  31
ENDBRANCH  28  29
ENDBRANCH   1  28
TORSDOF 10
ENDMDL
MODEL 5
REMARK VINA RESULT:      -6.7      1.113      1.185
REMARK  Name = 
REMARK  11 active torsions:
REMARK  status: ('A' for Active; 'I' for Inactive)
REMARK    1  A    between atoms: C_1  and  N_2
REMARK    2  A    between atoms: N_2  and  C_3
REMARK    3  A    between atoms: C_3  and  C_4
REMARK    4  A    between atoms: C_4  and  N_5
REMARK    5  A    between atoms: C_10  and  N_11
REMARK    6  A    between atoms: N_11  and  C_12
REMARK    7  A    between atoms: C_12  and  C_13
REMARK    8  A    between atoms: C_13  and  N_14
REMARK    9  A    between atoms: N_14  and  C_15
REMARK   10  A    between atoms: C_15  and  C_16
REMARK   11  A    between atoms: C_16  and  O_17
REMARK                            x       y       z     vdW  Elec       q    Type
REMARK                         _______ _______ _______ _____ _____    ______ ____
ROOT
ATOM      1  N   UNL     1       2.770   4.303  20.673  0.00  0.00    +0.000 N 
ATOM      2  N   UNL     1       2.194   5.516  20.898  0.00  0.00    +0.000 NA
ATOM      3  C   UNL     1       2.513   6.217  19.809  0.00  0.00    +0.000 A 
ATOM      4  C   UNL     1       3.304   5.478  18.925  0.00  0.00    +0.000 A 
ATOM      5  C   UNL     1       3.822   5.838  17.680  0.00  0.00    +0.000 A 
ATOM      6  C   UNL     1       4.541   4.861  16.960  0.00  0.00    +0.000 A 
ATOM      7  C   UNL     1       4.722   3.599  17.580  0.00  0.00    +0.000 A 
ATOM      8  C   UNL     1       4.212   3.253  18.840  0.00  0.00    +0.000 A 
ATOM      9  C   UNL     1       3.471   4.234  19.492  0.00  0.00    +0.000 A 
ATOM     10  C   UNL     1       3.460   7.245  17.277  0.00  0.00    +0.000 C 
ATOM     11  O   UNL     1       3.878   7.750  16.244  0.00  0.00    +0.000 OA
ATOM     12  C   UNL     1       2.565   8.064  18.204  0.00  0.00    +0.000 A 
ATOM     13  C   UNL     1       2.176   9.349  17.824  0.00  0.00    +0.000 A 
ATOM     14  C   UNL     1       1.367  10.068  18.697  0.00  0.00    +0.000 A 
ATOM     15  N   UNL     1       0.932   9.598  19.893  0.00  0.00    +0.000 NA
ATOM     16  C   UNL     1       1.320   8.352  20.243  0.00  0.00    +0.000 A 
ATOM     17  C   UNL     1       2.122   7.555  19.446  0.00  0.00    +0.000 A 
ENDROOT
BRANCH   6  18
ATOM     18  N   UNL     1       4.986   5.084  15.658  0.00  0.00    +0.000 N 
ATOM     19  H   UNL     1       4.367   5.664  15.085  0.00  0.00    +0.000 HD
BRANCH  18  20
ATOM     20  C   UNL     1       6.408   5.194  15.356  0.00  0.00    +0.000 C 
BRANCH  20  21
ATOM     21  C   UNL     1       7.243   5.521  16.607  0.00  0.00    +0.000 C 
BRANCH  21  22
ATOM     22  N   UNL     1       7.817   6.876  16.555  0.00  0.00    +0.000 NA
ATOM     23  H   UNL     1       7.545   7.302  15.668  0.00  0.00    +0.000 HD
BRANCH  22  24
ATOM     24  C   UNL     1       7.269   7.695  17.650  0.00  0.00    +0.000 C 
BRANCH  24  25
ATOM     25  C   UNL     1       8.328   8.659  18.189  0.00  0.00    +0.000 C 
BRANCH  25  26
ATOM     26  O   UNL     1       8.041   9.993  17.773  0.00  0.00    +0.000 OA
ATOM     27  H   UNL     1       8.752  10.231  17.153  0.00  0.00    +0.000 HD
ENDBRANCH  25  26
ENDBRANCH  24  25
ENDBRANCH  22  24
ENDBRANCH  21  22
ENDBRANCH  20  21
ENDBRANCH  18  20
ENDBRANCH   6  18
BRANCH   1  28
ATOM     28  C   UNL     1       2.546   3.227  21.625  0.00  0.00    +0.000 C 
BRANCH  28  29
ATOM     29  C   UNL     1       1.232   2.494  21.338  0.00  0.00    +0.000 C 
BRANCH  29  31
ATOM     30  C   UNL     1       0.605   2.284  19.027  0.00  0.00    +0.000 C 
ATOM     31  N   UNL     1       0.495   3.111  20.224  0.00  0.00    +0.000 NA
ATOM     32  H   UNL     1      -0.488   3.215  20.467  0.00  0.00    +0.000 HD
ENDBRANCH  29  31
ENDBRANCH  28  29
ENDBRANCH   1  28
TORSDOF 10
ENDMDL
MODEL 6
REMARK VINA RESULT:      -6.6      2.066      6.126
REMARK  Name = 
REMARK  11 active torsions:
REMARK  status: ('A' for Active; 'I' for Inactive)
REMARK    1  A    between atoms: C_1  and  N_2
REMARK    2  A    between atoms: N_2  and  C_3
REMARK    3  A    between atoms: C_3  and  C_4
REMARK    4  A    between atoms: C_4  and  N_5
REMARK    5  A    between atoms: C_10  and  N_11
REMARK    6  A    between atoms: N_11  and  C_12
REMARK    7  A    between atoms: C_12  and  C_13
REMARK    8  A    between atoms: C_13  and  N_14
REMARK    9  A    between atoms: N_14  and  C_15
REMARK   10  A    between atoms: C_15  and  C_16
REMARK   11  A    between atoms: C_16  and  O_17
REMARK                            x       y       z     vdW  Elec       q    Type
REMARK                         _______ _______ _______ _____ _____    ______ ____
ROOT
ATOM      1  N   UNL     1       2.163   8.820  18.196  0.00  0.00    +0.000 N 
ATOM      2  N   UNL     1       3.074   8.499  17.236  0.00  0.00    +0.000 NA
ATOM      3  C   UNL     1       3.563   7.330  17.652  0.00  0.00    +0.000 A 
ATOM      4  C   UNL     1       3.001   6.931  18.867  0.00  0.00    +0.000 A 
ATOM      5  C   UNL     1       3.227   5.774  19.615  0.00  0.00    +0.000 A 
ATOM      6  C   UNL     1       2.464   5.590  20.787  0.00  0.00    +0.000 A 
ATOM      7  C   UNL     1       1.557   6.621  21.141  0.00  0.00    +0.000 A 
ATOM      8  C   UNL     1       1.351   7.789  20.391  0.00  0.00    +0.000 A 
ATOM      9  C   UNL     1       2.092   7.904  19.219  0.00  0.00    +0.000 A 
ATOM     10  C   UNL     1       4.244   4.856  18.986  0.00  0.00    +0.000 C 
ATOM     11  O   UNL     1       4.610   3.825  19.533  0.00  0.00    +0.000 OA
ATOM     12  C   UNL     1       4.847   5.247  17.639  0.00  0.00    +0.000 A 
ATOM     13  C   UNL     1       5.751   4.386  17.016  0.00  0.00    +0.000 A 
ATOM     14  C   UNL     1       6.285   4.777  15.793  0.00  0.00    +0.000 A 
ATOM     15  N   UNL     1       5.983   5.943  15.169  0.00  0.00    +0.000 NA
ATOM     16  C   UNL     1       5.106   6.763  15.789  0.00  0.00    +0.000 A 
ATOM     17  C   UNL     1       4.517   6.466  17.005  0.00  0.00    +0.000 A 
ENDROOT
BRANCH   6  18
ATOM     18  N   UNL     1       2.526   4.412  21.529  0.00  0.00    +0.000 N 
ATOM     19  H   UNL     1       2.745   4.538  22.521  0.00  0.00    +0.000 HD
BRANCH  18  20
ATOM     20  C   UNL     1       1.665   3.277  21.215  0.00  0.00    +0.000 C 
BRANCH  20  21
ATOM     21  C   UNL     1       0.617   3.625  20.142  0.00  0.00    +0.000 C 
BRANCH  21  22
ATOM     22  N   UNL     1       0.977   3.092  18.818  0.00  0.00    +0.000 NA
ATOM     23  H   UNL     1       1.521   3.801  18.327  0.00  0.00    +0.000 HD
BRANCH  22  24
ATOM     24  C   UNL     1       1.814   1.889  18.972  0.00  0.00    +0.000 C 
BRANCH  24  25
ATOM     25  C   UNL     1       2.788   1.752  17.799  0.00  0.00    +0.000 C 
BRANCH  25  26
ATOM     26  O   UNL     1       4.041   1.244  18.253  0.00  0.00    +0.000 OA
ATOM     27  H   UNL     1       3.929   1.091  19.206  0.00  0.00    +0.000 HD
ENDBRANCH  25  26
ENDBRANCH  24  25
ENDBRANCH  22  24
ENDBRANCH  21  22
ENDBRANCH  20  21
ENDBRANCH  18  20
ENDBRANCH   6  18
BRANCH   1  28
ATOM     28  C   UNL     1       1.344  10.009  18.024  0.00  0.00    +0.000 C 
BRANCH  28  29
ATOM     29  C   UNL     1      -0.140   9.649  17.902  0.00  0.00    +0.000 C 
BRANCH  29  31
ATOM     30  C   UNL     1      -0.412  11.608  19.269  0.00  0.00    +0.000 C 
ATOM     31  N   UNL     1      -0.944  10.286  18.957  0.00  0.00    +0.000 NA
ATOM     32  H   UNL     1      -1.912  10.381  18.653  0.00  0.00    +0.000 HD
ENDBRANCH  29  31
ENDBRANCH  28  29
ENDBRANCH   1  28
TORSDOF 10
ENDMDL
MODEL 7
REMARK VINA RESULT:      -6.5      1.755      4.504
REMARK  Name = 
REMARK  11 active torsions:
REMARK  status: ('A' for Active; 'I' for Inactive)
REMARK    1  A    between atoms: C_1  and  N_2
REMARK    2  A    between atoms: N_2  and  C_3
REMARK    3  A    between atoms: C_3  and  C_4
REMARK    4  A    between atoms: C_4  and  N_5
REMARK    5  A    between atoms: C_10  and  N_11
REMARK    6  A    between atoms: N_11  and  C_12
REMARK    7  A    between atoms: C_12  and  C_13
REMARK    8  A    between atoms: C_13  and  N_14
REMARK    9  A    between atoms: N_14  and  C_15
REMARK   10  A    between atoms: C_15  and  C_16
REMARK   11  A    between atoms: C_16  and  O_17
REMARK                            x       y       z     vdW  Elec       q    Type
REMARK                         _______ _______ _______ _____ _____    ______ ____
ROOT
ATOM      1  N   UNL     1       1.809   7.848  19.937  0.00  0.00    +0.000 N 
ATOM      2  N   UNL     1       1.651   6.780  20.767  0.00  0.00    +0.000 NA
ATOM      3  C   UNL     1       2.304   5.801  20.139  0.00  0.00    +0.000 A 
ATOM      4  C   UNL     1       2.836   6.226  18.920  0.00  0.00    +0.000 A 
ATOM      5  C   UNL     1       3.594   5.520  17.984  0.00  0.00    +0.000 A 
ATOM      6  C   UNL     1       4.065   6.222  16.855  0.00  0.00    +0.000 A 
ATOM      7  C   UNL     1       3.690   7.583  16.733  0.00  0.00    +0.000 A 
ATOM      8  C   UNL     1       2.912   8.279  17.670  0.00  0.00    +0.000 A 
ATOM      9  C   UNL     1       2.509   7.558  18.790  0.00  0.00    +0.000 A 
ATOM     10  C   UNL     1       3.839   4.088  18.387  0.00  0.00    +0.000 C 
ATOM     11  O   UNL     1       4.435   3.304  17.660  0.00  0.00    +0.000 OA
ATOM     12  C   UNL     1       3.304   3.605  19.733  0.00  0.00    +0.000 A 
ATOM     13  C   UNL     1       3.565   2.298  20.146  0.00  0.00    +0.000 A 
ATOM     14  C   UNL     1       3.056   1.891  21.375  0.00  0.00    +0.000 A 
ATOM     15  N   UNL     1       2.320   2.684  22.194  0.00  0.00    +0.000 NA
ATOM     16  C   UNL     1       2.078   3.945  21.775  0.00  0.00    +0.000 A 
ATOM     17  C   UNL     1       2.541   4.448  20.572  0.00  0.00    +0.000 A 
ENDROOT
BRANCH   6  18
ATOM     18  N   UNL     1       4.934   5.638  15.935  0.00  0.00    +0.000 N 
ATOM     19  H   UNL     1       4.557   5.541  14.988  0.00  0.00    +0.000 HD
BRANCH  18  20
ATOM     20  C   UNL     1       6.374   5.850  16.019  0.00  0.00    +0.000 C 
BRANCH  20  21
ATOM     21  C   UNL     1       7.148   4.524  16.143  0.00  0.00    +0.000 C 
BRANCH  21  22
ATOM     22  N   UNL     1       7.913   4.441  17.398  0.00  0.00    +0.000 NA
ATOM     23  H   UNL     1       8.888   4.250  17.163  0.00  0.00    +0.000 HD
BRANCH  22  24
ATOM     24  C   UNL     1       7.853   5.731  18.108  0.00  0.00    +0.000 C 
BRANCH  24  25
ATOM     25  C   UNL     1       7.788   5.514  19.623  0.00  0.00    +0.000 C 
BRANCH  25  26
ATOM     26  O   UNL     1       6.453   5.206  20.021  0.00  0.00    +0.000 OA
ATOM     27  H   UNL     1       6.036   4.801  19.242  0.00  0.00    +0.000 HD
ENDBRANCH  25  26
ENDBRANCH  24  25
ENDBRANCH  22  24
ENDBRANCH  21  22
ENDBRANCH  20  21
ENDBRANCH  18  20
ENDBRANCH   6  18
BRANCH   1  28
ATOM     28  C   UNL     1       1.302   9.146  20.352  0.00  0.00    +0.000 C 
BRANCH  28  29
ATOM     29  C   UNL     1       1.094   9.204  21.868  0.00  0.00    +0.000 C 
BRANCH  29  31
ATOM     30  C   UNL     1      -0.762  10.019  23.161  0.00  0.00    +0.000 C 
ATOM     31  N   UNL     1      -0.314   8.984  22.235  0.00  0.00    +0.000 NA
ATOM     32  H   UNL     1      -0.902   9.006  21.403  0.00  0.00    +0.000 HD
ENDBRANCH  29  31
ENDBRANCH  28  29
ENDBRANCH   1  28
TORSDOF 10
ENDMDL
MODEL 8
REMARK VINA RESULT:      -6.5      1.678      4.687
REMARK  Name = 
REMARK  11 active torsions:
REMARK  status: ('A' for Active; 'I' for Inactive)
REMARK    1  A    between atoms: C_1  and  N_2
REMARK    2  A    between atoms: N_2  and  C_3
REMARK    3  A    between atoms: C_3  and  C_4
REMARK    4  A    between atoms: C_4  and  N_5
REMARK    5  A    between atoms: C_10  and  N_11
REMARK    6  A    between atoms: N_11  and  C_12
REMARK    7  A    between atoms: C_12  and  C_13
REMARK    8  A    between atoms: C_13  and  N_14
REMARK    9  A    between atoms: N_14  and  C_15
REMARK   10  A    between atoms: C_15  and  C_16
REMARK   11  A    between atoms: C_16  and  O_17
REMARK                            x       y       z     vdW  Elec       q    Type
REMARK                         _______ _______ _______ _____ _____    ______ ____
ROOT
ATOM      1  N   UNL     1       1.621   7.883  20.248  0.00  0.00    +0.000 N 
ATOM      2  N   UNL     1       1.511   6.753  21.000  0.00  0.00    +0.000 NA
ATOM      3  C   UNL     1       2.197   5.848  20.301  0.00  0.00    +0.000 A 
ATOM      4  C   UNL     1       2.704   6.380  19.112  0.00  0.00    +0.000 A 
ATOM      5  C   UNL     1       3.483   5.774  18.126  0.00  0.00    +0.000 A 
ATOM      6  C   UNL     1       3.918   6.573  17.048  0.00  0.00    +0.000 A 
ATOM      7  C   UNL     1       3.490   7.924  17.026  0.00  0.00    +0.000 A 
ATOM      8  C   UNL     1       2.691   8.519  18.014  0.00  0.00    +0.000 A 
ATOM      9  C   UNL     1       2.324   7.704  19.080  0.00  0.00    +0.000 A 
ATOM     10  C   UNL     1       3.787   4.328  18.424  0.00  0.00    +0.000 C 
ATOM     11  O   UNL     1       4.408   3.622  17.640  0.00  0.00    +0.000 OA
ATOM     12  C   UNL     1       3.280   3.728  19.733  0.00  0.00    +0.000 A 
ATOM     13  C   UNL     1       3.595   2.406  20.051  0.00  0.00    +0.000 A 
ATOM     14  C   UNL     1       3.110   1.892  21.248  0.00  0.00    +0.000 A 
ATOM     15  N   UNL     1       2.350   2.595  22.126  0.00  0.00    +0.000 NA
ATOM     16  C   UNL     1       2.056   3.872  21.799  0.00  0.00    +0.000 A 
ATOM     17  C   UNL     1       2.491   4.478  20.634  0.00  0.00    +0.000 A 
ENDROOT
BRANCH   6  18
ATOM     18  N   UNL     1       4.803   6.092  16.085  0.00  0.00    +0.000 N 
ATOM     19  H   UNL     1       4.429   6.064  15.132  0.00  0.00    +0.000 HD
BRANCH  18  20
ATOM     20  C   UNL     1       6.237   6.334  16.191  0.00  0.00    +0.000 C 
BRANCH  20  21
ATOM     21  C   UNL     1       7.053   5.032  16.096  0.00  0.00    +0.000 C 
BRANCH  21  22
ATOM     22  N   UNL     1       7.187   4.362  17.400  0.00  0.00    +0.000 NA
ATOM     23  H   UNL     1       7.708   3.496  17.260  0.00  0.00    +0.000 HD
BRANCH  22  24
ATOM     24  C   UNL     1       7.950   5.217  18.326  0.00  0.00    +0.000 C 
BRANCH  24  25
ATOM     25  C   UNL     1       7.164   5.455  19.618  0.00  0.00    +0.000 C 
BRANCH  25  26
ATOM     26  O   UNL     1       8.040   5.425  20.743  0.00  0.00    +0.000 OA
ATOM     27  H   UNL     1       8.826   5.930  20.473  0.00  0.00    +0.000 HD
ENDBRANCH  25  26
ENDBRANCH  24  25
ENDBRANCH  22  24
ENDBRANCH  21  22
ENDBRANCH  20  21
ENDBRANCH  18  20
ENDBRANCH   6  18
BRANCH   1  28
ATOM     28  C   UNL     1       1.066   9.127  20.757  0.00  0.00    +0.000 C 
BRANCH  28  29
ATOM     29  C   UNL     1      -0.184   9.540  19.975  0.00  0.00    +0.000 C 
BRANCH  29  31
ATOM     30  C   UNL     1       0.516  11.722  20.700  0.00  0.00    +0.000 C 
ATOM     31  N   UNL     1      -0.629  10.896  20.333  0.00  0.00    +0.000 NA
ATOM     32  H   UNL     1      -1.111  11.327  19.546  0.00  0.00    +0.000 HD
ENDBRANCH  29  31
ENDBRANCH  28  29
ENDBRANCH   1  28
TORSDOF 10
ENDMDL
MODEL 9
REMARK VINA RESULT:      -6.5      2.331      5.168
REMARK  Name = 
REMARK  11 active torsions:
REMARK  status: ('A' for Active; 'I' for Inactive)
REMARK    1  A    between atoms: C_1  and  N_2
REMARK    2  A    between atoms: N_2  and  C_3
REMARK    3  A    between atoms: C_3  and  C_4
REMARK    4  A    between atoms: C_4  and  N_5
REMARK    5  A    between atoms: C_10  and  N_11
REMARK    6  A    between atoms: N_11  and  C_12
REMARK    7  A    between atoms: C_12  and  C_13
REMARK    8  A    between atoms: C_13  and  N_14
REMARK    9  A    between atoms: N_14  and  C_15
REMARK   10  A    between atoms: C_15  and  C_16
REMARK   11  A    between atoms: C_16  and  O_17
REMARK                            x       y       z     vdW  Elec       q    Type
REMARK                         _______ _______ _______ _____ _____    ______ ____
ROOT
ATOM      1  N   UNL     1       1.636   7.800  20.085  0.00  0.00    +0.000 N 
ATOM      2  N   UNL     1       1.522   6.683  20.856  0.00  0.00    +0.000 NA
ATOM      3  C   UNL     1       2.268   5.784  20.211  0.00  0.00    +0.000 A 
ATOM      4  C   UNL     1       2.815   6.305  19.037  0.00  0.00    +0.000 A 
ATOM      5  C   UNL     1       3.659   5.702  18.103  0.00  0.00    +0.000 A 
ATOM      6  C   UNL     1       4.123   6.490  17.029  0.00  0.00    +0.000 A 
ATOM      7  C   UNL     1       3.657   7.827  16.955  0.00  0.00    +0.000 A 
ATOM      8  C   UNL     1       2.794   8.419  17.890  0.00  0.00    +0.000 A 
ATOM      9  C   UNL     1       2.400   7.617  18.956  0.00  0.00    +0.000 A 
ATOM     10  C   UNL     1       3.990   4.272  18.448  0.00  0.00    +0.000 C 
ATOM     11  O   UNL     1       4.668   3.568  17.711  0.00  0.00    +0.000 OA
ATOM     12  C   UNL     1       3.437   3.686  19.745  0.00  0.00    +0.000 A 
ATOM     13  C   UNL     1       3.774   2.381  20.108  0.00  0.00    +0.000 A 
ATOM     14  C   UNL     1       3.247   1.879  21.292  0.00  0.00    +0.000 A 
ATOM     15  N   UNL     1       2.425   2.577  22.116  0.00  0.00    +0.000 NA
ATOM     16  C   UNL     1       2.111   3.838  21.746  0.00  0.00    +0.000 A 
ATOM     17  C   UNL     1       2.584   4.431  20.590  0.00  0.00    +0.000 A 
ENDROOT
BRANCH   6  18
ATOM     18  N   UNL     1       5.067   6.015  16.121  0.00  0.00    +0.000 N 
ATOM     19  H   UNL     1       4.864   6.225  15.139  0.00  0.00    +0.000 HD
BRANCH  18  20
ATOM     20  C   UNL     1       6.481   5.945  16.470  0.00  0.00    +0.000 C 
BRANCH  20  21
ATOM     21  C   UNL     1       7.236   4.906  15.621  0.00  0.00    +0.000 C 
BRANCH  21  22
ATOM     22  N   UNL     1       6.874   4.982  14.196  0.00  0.00    +0.000 NA
ATOM     23  H   UNL     1       7.722   4.847  13.645  0.00  0.00    +0.000 HD
BRANCH  22  24
ATOM     24  C   UNL     1       5.928   3.902  13.861  0.00  0.00    +0.000 C 
BRANCH  24  25
ATOM     25  C   UNL     1       5.946   3.612  12.358  0.00  0.00    +0.000 C 
BRANCH  25  26
ATOM     26  O   UNL     1       6.831   2.530  12.074  0.00  0.00    +0.000 OA
ATOM     27  H   UNL     1       7.256   2.758  11.229  0.00  0.00    +0.000 HD
ENDBRANCH  25  26
ENDBRANCH  24  25
ENDBRANCH  22  24
ENDBRANCH  21  22
ENDBRANCH  20  21
ENDBRANCH  18  20
ENDBRANCH   6  18
BRANCH   1  28
ATOM     28  C   UNL     1       1.022   9.037  20.538  0.00  0.00    +0.000 C 
BRANCH  28  29
ATOM     29  C   UNL     1      -0.119   8.764  21.522  0.00  0.00    +0.000 C 
BRANCH  29  31
ATOM     30  C   UNL     1      -0.894  10.438  23.063  0.00  0.00    +0.000 C 
ATOM     31  N   UNL     1       0.114   9.412  22.822  0.00  0.00    +0.000 NA
ATOM     32  H   UNL     1       0.073   8.723  23.571  0.00  0.00    +0.000 HD
ENDBRANCH  29  31
ENDBRANCH  28  29
ENDBRANCH   1  28
TORSDOF 10
ENDMDL
