MODEL 1
REMARK VINA RESULT:      -7.5      0.000      0.000
REMARK  Name = 
REMARK  1 active torsions:
REMARK  status: ('A' for Active; 'I' for Inactive)
REMARK    1  A    between atoms: C_7  and  C_8
REMARK                            x       y       z     vdW  Elec       q    Type
REMARK                         _______ _______ _______ _____ _____    ______ ____
ROOT
ATOM      1  O   UNL     1      -1.656  12.493  21.908  0.00  0.00    +0.000 OA
ATOM      2  C   UNL     1      -1.106  11.455  22.227  0.00  0.00    +0.000 C 
ATOM      3  O   UNL     1      -1.151  10.877  23.462  0.00  0.00    +0.000 OA
ATOM      4  C   UNL     1      -0.435   9.637  23.432  0.00  0.00    +0.000 C 
ATOM      5  C   UNL     1       0.086   9.566  22.052  0.00  0.00    +0.000 C 
ATOM      6  C   UNL     1      -0.298  10.625  21.351  0.00  0.00    +0.000 C 
ATOM      7  C   UNL     1       0.084  10.873  19.938  0.00  0.00    +0.000 C 
ATOM      8  C   UNL     1       0.890   9.691  19.355  0.00  0.00    +0.000 A 
ATOM      9  C   UNL     1       1.266   9.725  18.005  0.00  0.00    +0.000 A 
ATOM     10  C   UNL     1       2.069   8.717  17.476  0.00  0.00    +0.000 A 
ATOM     11  C   UNL     1       2.503   7.648  18.269  0.00  0.00    +0.000 A 
ATOM     12  C   UNL     1       3.329   6.662  17.702  0.00  0.00    +0.000 A 
ATOM     13  C   UNL     1       3.780   5.583  18.457  0.00  0.00    +0.000 A 
ATOM     14  C   UNL     1       3.409   5.473  19.789  0.00  0.00    +0.000 A 
ATOM     15  C   UNL     1       2.593   6.450  20.369  0.00  0.00    +0.000 A 
ATOM     16  C   UNL     1       2.117   7.565  19.632  0.00  0.00    +0.000 A 
ATOM     17  C   UNL     1       1.294   8.597  20.176  0.00  0.00    +0.000 A 
ATOM     18  N   UNL     1       0.877   8.579  21.531  0.00  0.00    +0.000 N 
ATOM     19  H   UNL     1       1.141   7.803  22.120  0.00  0.00    +0.000 HD
ENDROOT
BRANCH   7  20
ATOM     20  C   UNL     1       0.855  12.175  19.788  0.00  0.00    +0.000 A 
ATOM     21  C   UNL     1       0.544  13.075  18.770  0.00  0.00    +0.000 A 
ATOM     22  N   UNL     1       1.221  14.222  18.539  0.00  0.00    +0.000 NA
ATOM     23  C   UNL     1       2.247  14.500  19.377  0.00  0.00    +0.000 A 
ATOM     24  C   UNL     1       2.628  13.682  20.427  0.00  0.00    +0.000 A 
ATOM     25 BR   UNL     1       4.071  14.144  21.545  0.00  0.00    +0.000 Br
ATOM     26  C   UNL     1       1.926  12.501  20.634  0.00  0.00    +0.000 A 
ENDBRANCH   7  20
TORSDOF 1
ENDMDL
MODEL 2
REMARK VINA RESULT:      -7.5      3.807      6.527
REMARK  Name = 
REMARK  1 active torsions:
REMARK  status: ('A' for Active; 'I' for Inactive)
REMARK    1  A    between atoms: C_7  and  C_8
REMARK                            x       y       z     vdW  Elec       q    Type
REMARK                         _______ _______ _______ _____ _____    ______ ____
ROOT
ATOM      1  O   UNL     1       2.629  12.678  18.649  0.00  0.00    +0.000 OA
ATOM      2  C   UNL     1       1.599  13.149  19.094  0.00  0.00    +0.000 C 
ATOM      3  O   UNL     1       1.502  14.286  19.842  0.00  0.00    +0.000 OA
ATOM      4  C   UNL     1       0.123  14.550  20.126  0.00  0.00    +0.000 C 
ATOM      5  C   UNL     1      -0.587  13.414  19.507  0.00  0.00    +0.000 C 
ATOM      6  C   UNL     1       0.269  12.595  18.911  0.00  0.00    +0.000 C 
ATOM      7  C   UNL     1      -0.121  11.340  18.220  0.00  0.00    +0.000 C 
ATOM      8  C   UNL     1      -1.656  11.167  18.187  0.00  0.00    +0.000 A 
ATOM      9  C   UNL     1      -2.202  10.071  17.504  0.00  0.00    +0.000 A 
ATOM     10  C   UNL     1      -3.575   9.841  17.534  0.00  0.00    +0.000 A 
ATOM     11  C   UNL     1      -4.437  10.698  18.227  0.00  0.00    +0.000 A 
ATOM     12  C   UNL     1      -5.814  10.419  18.249  0.00  0.00    +0.000 A 
ATOM     13  C   UNL     1      -6.703  11.249  18.927  0.00  0.00    +0.000 A 
ATOM     14  C   UNL     1      -6.228  12.371  19.589  0.00  0.00    +0.000 A 
ATOM     15  C   UNL     1      -4.859  12.658  19.582  0.00  0.00    +0.000 A 
ATOM     16  C   UNL     1      -3.924  11.835  18.905  0.00  0.00    +0.000 A 
ATOM     17  C   UNL     1      -2.516  12.072  18.876  0.00  0.00    +0.000 A 
ATOM     18  N   UNL     1      -1.935  13.185  19.537  0.00  0.00    +0.000 N 
ATOM     19  H   UNL     1      -2.533  13.843  20.015  0.00  0.00    +0.000 HD
ENDROOT
BRANCH   7  20
ATOM     20  C   UNL     1       0.542  10.126  18.851  0.00  0.00    +0.000 A 
ATOM     21  C   UNL     1       0.313   9.803  20.188  0.00  0.00    +0.000 A 
ATOM     22  N   UNL     1       0.911   8.776  20.833  0.00  0.00    +0.000 NA
ATOM     23  C   UNL     1       1.764   8.016  20.106  0.00  0.00    +0.000 A 
ATOM     24  C   UNL     1       2.048   8.242  18.769  0.00  0.00    +0.000 A 
ATOM     25 BR   UNL     1       3.250   7.137  17.832  0.00  0.00    +0.000 Br
ATOM     26  C   UNL     1       1.433   9.313  18.134  0.00  0.00    +0.000 A 
ENDBRANCH   7  20
TORSDOF 1
ENDMDL
MODEL 3
REMARK VINA RESULT:      -7.2      1.283      1.487
REMARK  Name = 
REMARK  1 active torsions:
REMARK  status: ('A' for Active; 'I' for Inactive)
REMARK    1  A    between atoms: C_7  and  C_8
REMARK                            x       y       z     vdW  Elec       q    Type
REMARK                         _______ _______ _______ _____ _____    ______ ____
ROOT
ATOM      1  O   UNL     1      -1.793  12.930  21.932  0.00  0.00    +0.000 OA
ATOM      2  C   UNL     1      -1.306  11.855  22.229  0.00  0.00    +0.000 C 
ATOM      3  O   UNL     1      -1.444  11.222  23.430  0.00  0.00    +0.000 OA
ATOM      4  C   UNL     1      -0.781   9.954  23.378  0.00  0.00    +0.000 C 
ATOM      5  C   UNL     1      -0.187   9.924  22.026  0.00  0.00    +0.000 C 
ATOM      6  C   UNL     1      -0.486  11.031  21.358  0.00  0.00    +0.000 C 
ATOM      7  C   UNL     1      -0.017  11.326  19.981  0.00  0.00    +0.000 C 
ATOM      8  C   UNL     1       0.770  10.137  19.385  0.00  0.00    +0.000 A 
ATOM      9  C   UNL     1       1.222  10.217  18.061  0.00  0.00    +0.000 A 
ATOM     10  C   UNL     1       2.009   9.200  17.527  0.00  0.00    +0.000 A 
ATOM     11  C   UNL     1       2.353   8.077  18.289  0.00  0.00    +0.000 A 
ATOM     12  C   UNL     1       3.166   7.082  17.719  0.00  0.00    +0.000 A 
ATOM     13  C   UNL     1       3.528   5.950  18.444  0.00  0.00    +0.000 A 
ATOM     14  C   UNL     1       3.079   5.795  19.747  0.00  0.00    +0.000 A 
ATOM     15  C   UNL     1       2.275   6.780  20.329  0.00  0.00    +0.000 A 
ATOM     16  C   UNL     1       1.888   7.947  19.624  0.00  0.00    +0.000 A 
ATOM     17  C   UNL     1       1.081   8.990  20.172  0.00  0.00    +0.000 A 
ATOM     18  N   UNL     1       0.588   8.928  21.501  0.00  0.00    +0.000 N 
ATOM     19  H   UNL     1       0.786   8.114  22.065  0.00  0.00    +0.000 HD
ENDROOT
BRANCH   7  20
ATOM     20  C   UNL     1       0.817  12.597  19.937  0.00  0.00    +0.000 A 
ATOM     21  C   UNL     1       2.066  12.652  20.554  0.00  0.00    +0.000 A 
ATOM     22  N   UNL     1       2.837  13.762  20.606  0.00  0.00    +0.000 NA
ATOM     23  C   UNL     1       2.353  14.868  19.994  0.00  0.00    +0.000 A 
ATOM     24  C   UNL     1       1.133  14.914  19.340  0.00  0.00    +0.000 A 
ATOM     25 BR   UNL     1       0.532  16.496  18.515  0.00  0.00    +0.000 Br
ATOM     26  C   UNL     1       0.352  13.765  19.314  0.00  0.00    +0.000 A 
ENDBRANCH   7  20
TORSDOF 1
ENDMDL
MODEL 4
REMARK VINA RESULT:      -7.1      3.748      6.406
REMARK  Name = 
REMARK  1 active torsions:
REMARK  status: ('A' for Active; 'I' for Inactive)
REMARK    1  A    between atoms: C_7  and  C_8
REMARK                            x       y       z     vdW  Elec       q    Type
REMARK                         _______ _______ _______ _____ _____    ______ ____
ROOT
ATOM      1  O   UNL     1       2.177  12.972  20.960  0.00  0.00    +0.000 OA
ATOM      2  C   UNL     1       1.042  13.260  21.292  0.00  0.00    +0.000 C 
ATOM      3  O   UNL     1       0.698  14.050  22.350  0.00  0.00    +0.000 OA
ATOM      4  C   UNL     1      -0.725  14.207  22.382  0.00  0.00    +0.000 C 
ATOM      5  C   UNL     1      -1.195  13.379  21.254  0.00  0.00    +0.000 C 
ATOM      6  C   UNL     1      -0.170  12.822  20.623  0.00  0.00    +0.000 C 
ATOM      7  C   UNL     1      -0.304  11.906  19.462  0.00  0.00    +0.000 C 
ATOM      8  C   UNL     1      -1.777  11.771  19.015  0.00  0.00    +0.000 A 
ATOM      9  C   UNL     1      -2.076  11.001  17.883  0.00  0.00    +0.000 A 
ATOM     10  C   UNL     1      -3.401  10.789  17.510  0.00  0.00    +0.000 A 
ATOM     11  C   UNL     1      -4.456  11.346  18.243  0.00  0.00    +0.000 A 
ATOM     12  C   UNL     1      -5.779  11.091  17.845  0.00  0.00    +0.000 A 
ATOM     13  C   UNL     1      -6.855  11.628  18.547  0.00  0.00    +0.000 A 
ATOM     14  C   UNL     1      -6.622  12.430  19.654  0.00  0.00    +0.000 A 
ATOM     15  C   UNL     1      -5.311  12.687  20.066  0.00  0.00    +0.000 A 
ATOM     16  C   UNL     1      -4.190  12.155  19.378  0.00  0.00    +0.000 A 
ATOM     17  C   UNL     1      -2.832  12.374  19.761  0.00  0.00    +0.000 A 
ATOM     18  N   UNL     1      -2.496  13.167  20.888  0.00  0.00    +0.000 N 
ATOM     19  H   UNL     1      -3.232  13.614  21.416  0.00  0.00    +0.000 HD
ENDROOT
BRANCH   7  20
ATOM     20  C   UNL     1       0.294  10.539  19.758  0.00  0.00    +0.000 A 
ATOM     21  C   UNL     1       0.051   9.903  20.975  0.00  0.00    +0.000 A 
ATOM     22  N   UNL     1       0.593   8.718  21.332  0.00  0.00    +0.000 NA
ATOM     23  C   UNL     1       1.402   8.122  20.424  0.00  0.00    +0.000 A 
ATOM     24  C   UNL     1       1.695   8.661  19.183  0.00  0.00    +0.000 A 
ATOM     25 BR   UNL     1       2.834   7.766  17.979  0.00  0.00    +0.000 Br
ATOM     26  C   UNL     1       1.138   9.888  18.846  0.00  0.00    +0.000 A 
ENDBRANCH   7  20
TORSDOF 1
ENDMDL
MODEL 5
REMARK VINA RESULT:      -7.1      1.505      1.806
REMARK  Name = 
REMARK  1 active torsions:
REMARK  status: ('A' for Active; 'I' for Inactive)
REMARK    1  A    between atoms: C_7  and  C_8
REMARK                            x       y       z     vdW  Elec       q    Type
REMARK                         _______ _______ _______ _____ _____    ______ ____
ROOT
ATOM      1  O   UNL     1      -1.302  14.084  21.344  0.00  0.00    +0.000 OA
ATOM      2  C   UNL     1      -1.125  12.957  21.768  0.00  0.00    +0.000 C 
ATOM      3  O   UNL     1      -1.588  12.472  22.956  0.00  0.00    +0.000 OA
ATOM      4  C   UNL     1      -1.230  11.090  23.075  0.00  0.00    +0.000 C 
ATOM      5  C   UNL     1      -0.457  10.820  21.847  0.00  0.00    +0.000 C 
ATOM      6  C   UNL     1      -0.388  11.906  21.088  0.00  0.00    +0.000 C 
ATOM      7  C   UNL     1       0.344  11.978  19.799  0.00  0.00    +0.000 C 
ATOM      8  C   UNL     1       0.922  10.601  19.400  0.00  0.00    +0.000 A 
ATOM      9  C   UNL     1       1.581  10.471  18.170  0.00  0.00    +0.000 A 
ATOM     10  C   UNL     1       2.189   9.267  17.825  0.00  0.00    +0.000 A 
ATOM     11  C   UNL     1       2.146   8.163  18.684  0.00  0.00    +0.000 A 
ATOM     12  C   UNL     1       2.789   6.972  18.307  0.00  0.00    +0.000 A 
ATOM     13  C   UNL     1       2.767   5.852  19.134  0.00  0.00    +0.000 A 
ATOM     14  C   UNL     1       2.098   5.907  20.348  0.00  0.00    +0.000 A 
ATOM     15  C   UNL     1       1.458   7.087  20.739  0.00  0.00    +0.000 A 
ATOM     16  C   UNL     1       1.462   8.249  19.925  0.00  0.00    +0.000 A 
ATOM     17  C   UNL     1       0.838   9.483  20.280  0.00  0.00    +0.000 A 
ATOM     18  N   UNL     1       0.144   9.639  21.508  0.00  0.00    +0.000 N 
ATOM     19  H   UNL     1       0.061   8.851  22.133  0.00  0.00    +0.000 HD
ENDROOT
BRANCH   7  20
ATOM     20  C   UNL     1       1.441  13.030  19.838  0.00  0.00    +0.000 A 
ATOM     21  C   UNL     1       2.417  13.005  20.834  0.00  0.00    +0.000 A 
ATOM     22  N   UNL     1       3.387  13.936  20.968  0.00  0.00    +0.000 NA
ATOM     23  C   UNL     1       3.403  14.933  20.052  0.00  0.00    +0.000 A 
ATOM     24  C   UNL     1       2.491  15.040  19.015  0.00  0.00    +0.000 A 
ATOM     25 BR   UNL     1       2.583  16.462  17.783  0.00  0.00    +0.000 Br
ATOM     26  C   UNL     1       1.494  14.079  18.909  0.00  0.00    +0.000 A 
ENDBRANCH   7  20
TORSDOF 1
ENDMDL
MODEL 6
REMARK VINA RESULT:      -6.8      8.100      9.768
REMARK  Name = 
REMARK  1 active torsions:
REMARK  status: ('A' for Active; 'I' for Inactive)
REMARK    1  A    between atoms: C_7  and  C_8
REMARK                            x       y       z     vdW  Elec       q    Type
REMARK                         _______ _______ _______ _____ _____    ______ ____
ROOT
ATOM      1  O   UNL     1      10.971  12.789  17.569  0.00  0.00    +0.000 OA
ATOM      2  C   UNL     1      10.361  12.080  18.348  0.00  0.00    +0.000 C 
ATOM      3  O   UNL     1       9.977  10.791  18.118  0.00  0.00    +0.000 OA
ATOM      4  C   UNL     1       9.338  10.270  19.289  0.00  0.00    +0.000 C 
ATOM      5  C   UNL     1       9.340  11.410  20.226  0.00  0.00    +0.000 C 
ATOM      6  C   UNL     1       9.929  12.466  19.680  0.00  0.00    +0.000 C 
ATOM      7  C   UNL     1      10.067  13.784  20.349  0.00  0.00    +0.000 C 
ATOM      8  C   UNL     1       9.540  13.739  21.801  0.00  0.00    +0.000 A 
ATOM      9  C   UNL     1       9.664  14.879  22.605  0.00  0.00    +0.000 A 
ATOM     10  C   UNL     1       9.117  14.896  23.886  0.00  0.00    +0.000 A 
ATOM     11  C   UNL     1       8.449  13.780  24.401  0.00  0.00    +0.000 A 
ATOM     12  C   UNL     1       7.894  13.845  25.691  0.00  0.00    +0.000 A 
ATOM     13  C   UNL     1       7.224  12.754  26.239  0.00  0.00    +0.000 A 
ATOM     14  C   UNL     1       7.102  11.583  25.507  0.00  0.00    +0.000 A 
ATOM     15  C   UNL     1       7.643  11.506  24.219  0.00  0.00    +0.000 A 
ATOM     16  C   UNL     1       8.330  12.596  23.627  0.00  0.00    +0.000 A 
ATOM     17  C   UNL     1       8.890  12.577  22.314  0.00  0.00    +0.000 A 
ATOM     18  N   UNL     1       8.801  11.430  21.484  0.00  0.00    +0.000 N 
ATOM     19  H   UNL     1       8.359  10.595  21.839  0.00  0.00    +0.000 HD
ENDROOT
BRANCH   7  20
ATOM     20  C   UNL     1       9.377  14.886  19.561  0.00  0.00    +0.000 A 
ATOM     21  C   UNL     1      10.117  15.902  18.959  0.00  0.00    +0.000 A 
ATOM     22  N   UNL     1       9.571  16.944  18.293  0.00  0.00    +0.000 NA
ATOM     23  C   UNL     1       8.220  16.966  18.201  0.00  0.00    +0.000 A 
ATOM     24  C   UNL     1       7.395  15.997  18.749  0.00  0.00    +0.000 A 
ATOM     25 BR   UNL     1       5.523  16.105  18.577  0.00  0.00    +0.000 Br
ATOM     26  C   UNL     1       7.980  14.946  19.442  0.00  0.00    +0.000 A 
ENDBRANCH   7  20
TORSDOF 1
ENDMDL
MODEL 7
REMARK VINA RESULT:      -6.8      8.365     10.015
REMARK  Name = 
REMARK  1 active torsions:
REMARK  status: ('A' for Active; 'I' for Inactive)
REMARK    1  A    between atoms: C_7  and  C_8
REMARK                            x       y       z     vdW  Elec       q    Type
REMARK                         _______ _______ _______ _____ _____    ______ ____
ROOT
ATOM      1  O   UNL     1      11.285  13.090  17.829  0.00  0.00    +0.000 OA
ATOM      2  C   UNL     1      10.654  12.349  18.560  0.00  0.00    +0.000 C 
ATOM      3  O   UNL     1      10.322  11.054  18.285  0.00  0.00    +0.000 OA
ATOM      4  C   UNL     1       9.634  10.493  19.409  0.00  0.00    +0.000 C 
ATOM      5  C   UNL     1       9.548  11.615  20.364  0.00  0.00    +0.000 C 
ATOM      6  C   UNL     1      10.135  12.697  19.870  0.00  0.00    +0.000 C 
ATOM      7  C   UNL     1      10.196  14.006  20.570  0.00  0.00    +0.000 C 
ATOM      8  C   UNL     1       9.588  13.917  21.988  0.00  0.00    +0.000 A 
ATOM      9  C   UNL     1       9.633  15.046  22.818  0.00  0.00    +0.000 A 
ATOM     10  C   UNL     1       9.014  15.023  24.065  0.00  0.00    +0.000 A 
ATOM     11  C   UNL     1       8.351  13.878  24.522  0.00  0.00    +0.000 A 
ATOM     12  C   UNL     1       7.722  13.902  25.778  0.00  0.00    +0.000 A 
ATOM     13  C   UNL     1       7.055  12.783  26.268  0.00  0.00    +0.000 A 
ATOM     14  C   UNL     1       7.010  11.622  25.510  0.00  0.00    +0.000 A 
ATOM     15  C   UNL     1       7.625  11.585  24.254  0.00  0.00    +0.000 A 
ATOM     16  C   UNL     1       8.311  12.706  23.721  0.00  0.00    +0.000 A 
ATOM     17  C   UNL     1       8.945  12.729  22.442  0.00  0.00    +0.000 A 
ATOM     18  N   UNL     1       8.939  11.595  21.589  0.00  0.00    +0.000 N 
ATOM     19  H   UNL     1       8.502  10.741  21.904  0.00  0.00    +0.000 HD
ENDROOT
BRANCH   7  20
ATOM     20  C   UNL     1       9.518  15.102  19.763  0.00  0.00    +0.000 A 
ATOM     21  C   UNL     1       8.137  15.096  19.573  0.00  0.00    +0.000 A 
ATOM     22  N   UNL     1       7.472  16.002  18.821  0.00  0.00    +0.000 NA
ATOM     23  C   UNL     1       8.215  16.977  18.246  0.00  0.00    +0.000 A 
ATOM     24  C   UNL     1       9.589  17.081  18.385  0.00  0.00    +0.000 A 
ATOM     25 BR   UNL     1      10.547  18.470  17.548  0.00  0.00    +0.000 Br
ATOM     26  C   UNL     1      10.251  16.129  19.150  0.00  0.00    +0.000 A 
ENDBRANCH   7  20
TORSDOF 1
ENDMDL
MODEL 8
REMARK VINA RESULT:      -6.6      3.711      6.242
REMARK  Name = 
REMARK  1 active torsions:
REMARK  status: ('A' for Active; 'I' for Inactive)
REMARK    1  A    between atoms: C_7  and  C_8
REMARK                            x       y       z     vdW  Elec       q    Type
REMARK                         _______ _______ _______ _____ _____    ______ ____
ROOT
ATOM      1  O   UNL     1       2.651  13.402  20.198  0.00  0.00    +0.000 OA
ATOM      2  C   UNL     1       1.578  13.526  20.760  0.00  0.00    +0.000 C 
ATOM      3  O   UNL     1       1.381  14.103  21.981  0.00  0.00    +0.000 OA
ATOM      4  C   UNL     1      -0.020  14.119  22.277  0.00  0.00    +0.000 C 
ATOM      5  C   UNL     1      -0.632  13.440  21.117  0.00  0.00    +0.000 C 
ATOM      6  C   UNL     1       0.296  13.089  20.236  0.00  0.00    +0.000 C 
ATOM      7  C   UNL     1       0.014  12.361  18.974  0.00  0.00    +0.000 C 
ATOM      8  C   UNL     1      -1.503  12.162  18.763  0.00  0.00    +0.000 A 
ATOM      9  C   UNL     1      -1.952  11.558  17.580  0.00  0.00    +0.000 A 
ATOM     10  C   UNL     1      -3.305  11.285  17.403  0.00  0.00    +0.000 A 
ATOM     11  C   UNL     1      -4.245  11.617  18.386  0.00  0.00    +0.000 A 
ATOM     12  C   UNL     1      -5.599  11.306  18.177  0.00  0.00    +0.000 A 
ATOM     13  C   UNL     1      -6.563  11.622  19.131  0.00  0.00    +0.000 A 
ATOM     14  C   UNL     1      -6.186  12.256  20.305  0.00  0.00    +0.000 A 
ATOM     15  C   UNL     1      -4.841  12.565  20.530  0.00  0.00    +0.000 A 
ATOM     16  C   UNL     1      -3.831  12.257  19.584  0.00  0.00    +0.000 A 
ATOM     17  C   UNL     1      -2.443  12.537  19.767  0.00  0.00    +0.000 A 
ATOM     18  N   UNL     1      -1.961  13.169  20.942  0.00  0.00    +0.000 N 
ATOM     19  H   UNL     1      -2.617  13.455  21.655  0.00  0.00    +0.000 HD
ENDROOT
BRANCH   7  20
ATOM     20  C   UNL     1       0.743  11.027  18.925  0.00  0.00    +0.000 A 
ATOM     21  C   UNL     1       1.535  10.687  17.829  0.00  0.00    +0.000 A 
ATOM     22  N   UNL     1       2.165   9.500  17.689  0.00  0.00    +0.000 NA
ATOM     23  C   UNL     1       2.018   8.611  18.699  0.00  0.00    +0.000 A 
ATOM     24  C   UNL     1       1.267   8.856  19.837  0.00  0.00    +0.000 A 
ATOM     25 BR   UNL     1       1.113   7.561  21.196  0.00  0.00    +0.000 Br
ATOM     26  C   UNL     1       0.617  10.078  19.950  0.00  0.00    +0.000 A 
ENDBRANCH   7  20
TORSDOF 1
ENDMDL
MODEL 9
REMARK VINA RESULT:      -6.6      3.777      6.499
REMARK  Name = 
REMARK  1 active torsions:
REMARK  status: ('A' for Active; 'I' for Inactive)
REMARK    1  A    between atoms: C_7  and  C_8
REMARK                            x       y       z     vdW  Elec       q    Type
REMARK                         _______ _______ _______ _____ _____    ______ ____
ROOT
ATOM      1  O   UNL     1       2.464  12.998  18.219  0.00  0.00    +0.000 OA
ATOM      2  C   UNL     1       1.433  13.454  18.677  0.00  0.00    +0.000 C 
ATOM      3  O   UNL     1       1.312  14.642  19.339  0.00  0.00    +0.000 OA
ATOM      4  C   UNL     1      -0.064  14.863  19.669  0.00  0.00    +0.000 C 
ATOM      5  C   UNL     1      -0.743  13.649  19.174  0.00  0.00    +0.000 C 
ATOM      6  C   UNL     1       0.126  12.826  18.602  0.00  0.00    +0.000 C 
ATOM      7  C   UNL     1      -0.232  11.504  18.029  0.00  0.00    +0.000 C 
ATOM      8  C   UNL     1      -1.756  11.257  18.084  0.00  0.00    +0.000 A 
ATOM      9  C   UNL     1      -2.276  10.087  17.515  0.00  0.00    +0.000 A 
ATOM     10  C   UNL     1      -3.633   9.796  17.629  0.00  0.00    +0.000 A 
ATOM     11  C   UNL     1      -4.505  10.664  18.296  0.00  0.00    +0.000 A 
ATOM     12  C   UNL     1      -5.864  10.323  18.406  0.00  0.00    +0.000 A 
ATOM     13  C   UNL     1      -6.762  11.162  19.060  0.00  0.00    +0.000 A 
ATOM     14  C   UNL     1      -6.315  12.353  19.610  0.00  0.00    +0.000 A 
ATOM     15  C   UNL     1      -4.964  12.702  19.515  0.00  0.00    +0.000 A 
ATOM     16  C   UNL     1      -4.019  11.873  18.859  0.00  0.00    +0.000 A 
ATOM     17  C   UNL     1      -2.628  12.173  18.743  0.00  0.00    +0.000 A 
ATOM     18  N   UNL     1      -2.075  13.360  19.287  0.00  0.00    +0.000 N 
ATOM     19  H   UNL     1      -2.683  14.026  19.742  0.00  0.00    +0.000 HD
ENDROOT
BRANCH   7  20
ATOM     20  C   UNL     1       0.520  10.376  18.718  0.00  0.00    +0.000 A 
ATOM     21  C   UNL     1       1.259   9.455  17.977  0.00  0.00    +0.000 A 
ATOM     22  N   UNL     1       1.904   8.394  18.512  0.00  0.00    +0.000 NA
ATOM     23  C   UNL     1       1.831   8.254  19.857  0.00  0.00    +0.000 A 
ATOM     24  C   UNL     1       1.137   9.122  20.684  0.00  0.00    +0.000 A 
ATOM     25 BR   UNL     1       1.084   8.852  22.548  0.00  0.00    +0.000 Br
ATOM     26  C   UNL     1       0.470  10.194  20.108  0.00  0.00    +0.000 A 
ENDBRANCH   7  20
TORSDOF 1
ENDMDL
