MODEL 1
REMARK VINA RESULT:      -8.9      0.000      0.000
REMARK  Name = 
REMARK  5 active torsions:
REMARK  status: ('A' for Active; 'I' for Inactive)
REMARK    1  A    between atoms: C_2  and  C_3
REMARK    2  A    between atoms: C_3  and  O_4
REMARK    3  A    between atoms: O_4  and  C_5
REMARK    4  A    between atoms: N_19  and  C_20
REMARK    5  A    between atoms: C_20  and  C_21
REMARK                            x       y       z     vdW  Elec       q    Type
REMARK                         _______ _______ _______ _____ _____    ______ ____
ROOT
ATOM      1  C   UNL     1       6.439   5.779  17.256  0.00  0.00    +0.000 A 
ATOM      2  C   UNL     1       5.238   5.985  16.567  0.00  0.00    +0.000 A 
ATOM      3  C   UNL     1       4.065   5.320  16.949  0.00  0.00    +0.000 A 
ATOM      4  C   UNL     1       4.085   4.432  18.024  0.00  0.00    +0.000 A 
ATOM      5  C   UNL     1       2.936   3.690  18.491  0.00  0.00    +0.000 A 
ATOM      6  C   UNL     1       3.054   2.820  19.498  0.00  0.00    +0.000 A 
ATOM      7  C   UNL     1       4.309   2.568  20.205  0.00  0.00    +0.000 A 
ATOM      8  O   UNL     1       4.394   1.750  21.112  0.00  0.00    +0.000 OA
ATOM      9  O   UNL     1       5.395   3.327  19.780  0.00  0.00    +0.000 OA
ATOM     10  C   UNL     1       5.293   4.233  18.697  0.00  0.00    +0.000 A 
ATOM     11  C   UNL     1       6.462   4.897  18.335  0.00  0.00    +0.000 A 
ATOM     12  C   UNL     1       1.771   2.144  19.820  0.00  0.00    +0.000 C 
ATOM     13  C   UNL     1       0.761   3.032  19.086  0.00  0.00    +0.000 C 
ATOM     14  C   UNL     1       1.541   3.752  17.978  0.00  0.00    +0.000 C 
ENDROOT
BRANCH   1  15
ATOM     15  O   UNL     1       7.517   6.483  16.787  0.00  0.00    +0.000 OA
BRANCH  15  16
ATOM     16  C   UNL     1       7.479   7.894  17.007  0.00  0.00    +0.000 C 
BRANCH  16  18
ATOM     17  O   UNL     1       8.655   7.518  19.078  0.00  0.00    +0.000 OA
ATOM     18  C   UNL     1       8.296   8.325  18.224  0.00  0.00    +0.000 C 
ATOM     19  N   UNL     1       8.587   9.665  18.275  0.00  0.00    +0.000 N 
ATOM     20  H   UNL     1       8.221  10.250  17.532  0.00  0.00    +0.000 HD
BRANCH  19  21
ATOM     21  C   UNL     1       9.335  10.266  19.351  0.00  0.00    +0.000 C 
BRANCH  21  22
ATOM     22  C   UNL     1      10.273  11.317  18.824  0.00  0.00    +0.000 A 
ATOM     23  C   UNL     1      11.505  11.548  19.442  0.00  0.00    +0.000 A 
ATOM     24  C   UNL     1      12.321  12.551  18.941  0.00  0.00    +0.000 A 
ATOM     25  N   UNL     1      11.994  13.331  17.889  0.00  0.00    +0.000 NA
ATOM     26  C   UNL     1      10.798  13.096  17.310  0.00  0.00    +0.000 A 
ATOM     27  C   UNL     1       9.914  12.116  17.735  0.00  0.00    +0.000 A 
ENDBRANCH  21  22
ENDBRANCH  19  21
ENDBRANCH  16  18
ENDBRANCH  15  16
ENDBRANCH   1  15
TORSDOF 5
ENDMDL
MODEL 2
REMARK VINA RESULT:      -8.7      1.064      1.088
REMARK  Name = 
REMARK  5 active torsions:
REMARK  status: ('A' for Active; 'I' for Inactive)
REMARK    1  A    between atoms: C_2  and  C_3
REMARK    2  A    between atoms: C_3  and  O_4
REMARK    3  A    between atoms: O_4  and  C_5
REMARK    4  A    between atoms: N_19  and  C_20
REMARK    5  A    between atoms: C_20  and  C_21
REMARK                            x       y       z     vdW  Elec       q    Type
REMARK                         _______ _______ _______ _____ _____    ______ ____
ROOT
ATOM      1  C   UNL     1       6.304   6.786  17.336  0.00  0.00    +0.000 A 
ATOM      2  C   UNL     1       5.054   6.989  16.739  0.00  0.00    +0.000 A 
ATOM      3  C   UNL     1       3.973   6.142  17.023  0.00  0.00    +0.000 A 
ATOM      4  C   UNL     1       4.138   5.075  17.906  0.00  0.00    +0.000 A 
ATOM      5  C   UNL     1       3.093   4.139  18.259  0.00  0.00    +0.000 A 
ATOM      6  C   UNL     1       3.349   3.114  19.075  0.00  0.00    +0.000 A 
ATOM      7  C   UNL     1       4.658   2.869  19.679  0.00  0.00    +0.000 A 
ATOM      8  O   UNL     1       4.871   1.909  20.410  0.00  0.00    +0.000 OA
ATOM      9  O   UNL     1       5.640   3.807  19.374  0.00  0.00    +0.000 OA
ATOM     10  C   UNL     1       5.393   4.884  18.489  0.00  0.00    +0.000 A 
ATOM     11  C   UNL     1       6.470   5.725  18.223  0.00  0.00    +0.000 A 
ATOM     12  C   UNL     1       2.158   2.256  19.303  0.00  0.00    +0.000 C 
ATOM     13  C   UNL     1       1.028   3.152  18.786  0.00  0.00    +0.000 C 
ATOM     14  C   UNL     1       1.674   4.148  17.813  0.00  0.00    +0.000 C 
ENDROOT
BRANCH   1  15
ATOM     15  O   UNL     1       7.281   7.678  16.977  0.00  0.00    +0.000 OA
BRANCH  15  16
ATOM     16  C   UNL     1       8.287   7.924  17.959  0.00  0.00    +0.000 C 
BRANCH  16  18
ATOM     17  O   UNL     1       7.751  10.266  17.762  0.00  0.00    +0.000 OA
ATOM     18  C   UNL     1       8.363   9.393  18.372  0.00  0.00    +0.000 C 
ATOM     19  N   UNL     1       9.157   9.643  19.463  0.00  0.00    +0.000 N 
ATOM     20  H   UNL     1       9.641   8.854  19.878  0.00  0.00    +0.000 HD
BRANCH  19  21
ATOM     21  C   UNL     1       9.367  10.966  19.995  0.00  0.00    +0.000 C 
BRANCH  21  22
ATOM     22  C   UNL     1      10.078  11.835  18.994  0.00  0.00    +0.000 A 
ATOM     23  C   UNL     1      11.369  11.517  18.563  0.00  0.00    +0.000 A 
ATOM     24  C   UNL     1      11.997  12.366  17.665  0.00  0.00    +0.000 A 
ATOM     25  N   UNL     1      11.438  13.495  17.181  0.00  0.00    +0.000 NA
ATOM     26  C   UNL     1      10.193  13.788  17.613  0.00  0.00    +0.000 A 
ATOM     27  C   UNL     1       9.482  13.002  18.507  0.00  0.00    +0.000 A 
ENDBRANCH  21  22
ENDBRANCH  19  21
ENDBRANCH  16  18
ENDBRANCH  15  16
ENDBRANCH   1  15
TORSDOF 5
ENDMDL
MODEL 3
REMARK VINA RESULT:      -8.7      1.520      1.702
REMARK  Name = 
REMARK  5 active torsions:
REMARK  status: ('A' for Active; 'I' for Inactive)
REMARK    1  A    between atoms: C_2  and  C_3
REMARK    2  A    between atoms: C_3  and  O_4
REMARK    3  A    between atoms: O_4  and  C_5
REMARK    4  A    between atoms: N_19  and  C_20
REMARK    5  A    between atoms: C_20  and  C_21
REMARK                            x       y       z     vdW  Elec       q    Type
REMARK                         _______ _______ _______ _____ _____    ______ ____
ROOT
ATOM      1  C   UNL     1       6.108   5.885  17.130  0.00  0.00    +0.000 A 
ATOM      2  C   UNL     1       5.893   4.606  16.603  0.00  0.00    +0.000 A 
ATOM      3  C   UNL     1       4.794   3.836  17.008  0.00  0.00    +0.000 A 
ATOM      4  C   UNL     1       3.902   4.338  17.955  0.00  0.00    +0.000 A 
ATOM      5  C   UNL     1       2.745   3.622  18.447  0.00  0.00    +0.000 A 
ATOM      6  C   UNL     1       1.970   4.157  19.393  0.00  0.00    +0.000 A 
ATOM      7  C   UNL     1       2.202   5.477  19.979  0.00  0.00    +0.000 A 
ATOM      8  O   UNL     1       1.486   5.935  20.860  0.00  0.00    +0.000 OA
ATOM      9  O   UNL     1       3.287   6.176  19.459  0.00  0.00    +0.000 OA
ATOM     10  C   UNL     1       4.135   5.613  18.475  0.00  0.00    +0.000 A 
ATOM     11  C   UNL     1       5.216   6.393  18.072  0.00  0.00    +0.000 A 
ATOM     12  C   UNL     1       0.846   3.265  19.780  0.00  0.00    +0.000 C 
ATOM     13  C   UNL     1       0.848   2.250  18.632  0.00  0.00    +0.000 C 
ATOM     14  C   UNL     1       2.259   2.280  18.028  0.00  0.00    +0.000 C 
ENDROOT
BRANCH   1  15
ATOM     15  O   UNL     1       7.217   6.539  16.658  0.00  0.00    +0.000 OA
BRANCH  15  16
ATOM     16  C   UNL     1       7.299   7.928  16.975  0.00  0.00    +0.000 C 
BRANCH  16  18
ATOM     17  O   UNL     1       8.546   7.303  18.941  0.00  0.00    +0.000 OA
ATOM     18  C   UNL     1       8.177   8.206  18.194  0.00  0.00    +0.000 C 
ATOM     19  N   UNL     1       8.511   9.525  18.374  0.00  0.00    +0.000 N 
ATOM     20  H   UNL     1       8.131  10.196  17.715  0.00  0.00    +0.000 HD
BRANCH  19  21
ATOM     21  C   UNL     1       9.319   9.988  19.474  0.00  0.00    +0.000 C 
BRANCH  21  22
ATOM     22  C   UNL     1      10.212  11.117  19.039  0.00  0.00    +0.000 A 
ATOM     23  C   UNL     1      11.010  11.793  19.966  0.00  0.00    +0.000 A 
ATOM     24  C   UNL     1      11.792  12.850  19.524  0.00  0.00    +0.000 A 
ATOM     25  N   UNL     1      11.826  13.274  18.243  0.00  0.00    +0.000 NA
ATOM     26  C   UNL     1      11.045  12.612  17.364  0.00  0.00    +0.000 A 
ATOM     27  C   UNL     1      10.232  11.543  17.708  0.00  0.00    +0.000 A 
ENDBRANCH  21  22
ENDBRANCH  19  21
ENDBRANCH  16  18
ENDBRANCH  15  16
ENDBRANCH   1  15
TORSDOF 5
ENDMDL
MODEL 4
REMARK VINA RESULT:      -8.3      1.340      1.713
REMARK  Name = 
REMARK  5 active torsions:
REMARK  status: ('A' for Active; 'I' for Inactive)
REMARK    1  A    between atoms: C_2  and  C_3
REMARK    2  A    between atoms: C_3  and  O_4
REMARK    3  A    between atoms: O_4  and  C_5
REMARK    4  A    between atoms: N_19  and  C_20
REMARK    5  A    between atoms: C_20  and  C_21
REMARK                            x       y       z     vdW  Elec       q    Type
REMARK                         _______ _______ _______ _____ _____    ______ ____
ROOT
ATOM      1  C   UNL     1       5.167   6.639  17.160  0.00  0.00    +0.000 A 
ATOM      2  C   UNL     1       4.079   7.231  17.813  0.00  0.00    +0.000 A 
ATOM      3  C   UNL     1       3.128   6.448  18.482  0.00  0.00    +0.000 A 
ATOM      4  C   UNL     1       3.254   5.059  18.497  0.00  0.00    +0.000 A 
ATOM      5  C   UNL     1       2.325   4.162  19.149  0.00  0.00    +0.000 A 
ATOM      6  C   UNL     1       2.493   2.840  19.072  0.00  0.00    +0.000 A 
ATOM      7  C   UNL     1       3.605   2.206  18.364  0.00  0.00    +0.000 A 
ATOM      8  O   UNL     1       3.724   0.989  18.293  0.00  0.00    +0.000 OA
ATOM      9  O   UNL     1       4.519   3.081  17.787  0.00  0.00    +0.000 OA
ATOM     10  C   UNL     1       4.342   4.485  17.836  0.00  0.00    +0.000 A 
ATOM     11  C   UNL     1       5.299   5.252  17.178  0.00  0.00    +0.000 A 
ATOM     12  C   UNL     1       1.429   2.088  19.787  0.00  0.00    +0.000 C 
ATOM     13  C   UNL     1       0.791   3.190  20.639  0.00  0.00    +0.000 C 
ATOM     14  C   UNL     1       1.121   4.520  19.947  0.00  0.00    +0.000 C 
ENDROOT
BRANCH   1  15
ATOM     15  O   UNL     1       6.026   7.508  16.539  0.00  0.00    +0.000 OA
BRANCH  15  16
ATOM     16  C   UNL     1       7.414   7.190  16.647  0.00  0.00    +0.000 C 
BRANCH  16  18
ATOM     17  O   UNL     1       8.265   6.986  18.894  0.00  0.00    +0.000 OA
ATOM     18  C   UNL     1       8.044   7.721  17.935  0.00  0.00    +0.000 C 
ATOM     19  N   UNL     1       8.336   9.061  17.921  0.00  0.00    +0.000 N 
ATOM     20  H   UNL     1       8.088   9.584  17.088  0.00  0.00    +0.000 HD
BRANCH  19  21
ATOM     21  C   UNL     1       8.920   9.750  19.046  0.00  0.00    +0.000 C 
BRANCH  21  22
ATOM     22  C   UNL     1       9.595  11.018  18.600  0.00  0.00    +0.000 A 
ATOM     23  C   UNL     1       8.875  12.010  17.929  0.00  0.00    +0.000 A 
ATOM     24  C   UNL     1       9.548  13.148  17.508  0.00  0.00    +0.000 A 
ATOM     25  N   UNL     1      10.867  13.355  17.701  0.00  0.00    +0.000 NA
ATOM     26  C   UNL     1      11.545  12.383  18.346  0.00  0.00    +0.000 A 
ATOM     27  C   UNL     1      10.964  11.213  18.807  0.00  0.00    +0.000 A 
ENDBRANCH  21  22
ENDBRANCH  19  21
ENDBRANCH  16  18
ENDBRANCH  15  16
ENDBRANCH   1  15
TORSDOF 5
ENDMDL
MODEL 5
REMARK VINA RESULT:      -8.3      2.119      2.589
REMARK  Name = 
REMARK  5 active torsions:
REMARK  status: ('A' for Active; 'I' for Inactive)
REMARK    1  A    between atoms: C_2  and  C_3
REMARK    2  A    between atoms: C_3  and  O_4
REMARK    3  A    between atoms: O_4  and  C_5
REMARK    4  A    between atoms: N_19  and  C_20
REMARK    5  A    between atoms: C_20  and  C_21
REMARK                            x       y       z     vdW  Elec       q    Type
REMARK                         _______ _______ _______ _____ _____    ______ ____
ROOT
ATOM      1  C   UNL     1       6.453   6.834  17.522  0.00  0.00    +0.000 A 
ATOM      2  C   UNL     1       5.240   7.054  16.858  0.00  0.00    +0.000 A 
ATOM      3  C   UNL     1       4.147   6.197  17.052  0.00  0.00    +0.000 A 
ATOM      4  C   UNL     1       4.262   5.104  17.910  0.00  0.00    +0.000 A 
ATOM      5  C   UNL     1       3.201   4.157  18.171  0.00  0.00    +0.000 A 
ATOM      6  C   UNL     1       3.411   3.107  18.969  0.00  0.00    +0.000 A 
ATOM      7  C   UNL     1       4.683   2.845  19.642  0.00  0.00    +0.000 A 
ATOM      8  O   UNL     1       4.855   1.863  20.354  0.00  0.00    +0.000 OA
ATOM      9  O   UNL     1       5.678   3.792  19.424  0.00  0.00    +0.000 OA
ATOM     10  C   UNL     1       5.481   4.896  18.560  0.00  0.00    +0.000 A 
ATOM     11  C   UNL     1       6.570   5.746  18.385  0.00  0.00    +0.000 A 
ATOM     12  C   UNL     1       2.211   2.241  19.099  0.00  0.00    +0.000 C 
ATOM     13  C   UNL     1       1.111   3.152  18.544  0.00  0.00    +0.000 C 
ATOM     14  C   UNL     1       1.811   4.178  17.642  0.00  0.00    +0.000 C 
ENDROOT
BRANCH   1  15
ATOM     15  O   UNL     1       7.447   7.737  17.249  0.00  0.00    +0.000 OA
BRANCH  15  16
ATOM     16  C   UNL     1       8.301   8.069  18.344  0.00  0.00    +0.000 C 
BRANCH  16  18
ATOM     17  O   UNL     1       8.159  10.358  17.601  0.00  0.00    +0.000 OA
ATOM     18  C   UNL     1       8.634   9.560  18.404  0.00  0.00    +0.000 C 
ATOM     19  N   UNL     1       9.491   9.916  19.414  0.00  0.00    +0.000 N 
ATOM     20  H   UNL     1       9.848   9.175  20.007  0.00  0.00    +0.000 HD
BRANCH  19  21
ATOM     21  C   UNL     1       9.935  11.272  19.625  0.00  0.00    +0.000 C 
BRANCH  21  22
ATOM     22  C   UNL     1       9.131  11.931  20.712  0.00  0.00    +0.000 A 
ATOM     23  C   UNL     1       8.820  13.292  20.644  0.00  0.00    +0.000 A 
ATOM     24  C   UNL     1       8.106  13.863  21.687  0.00  0.00    +0.000 A 
ATOM     25  N   UNL     1       7.693  13.182  22.777  0.00  0.00    +0.000 NA
ATOM     26  C   UNL     1       8.008  11.870  22.826  0.00  0.00    +0.000 A 
ATOM     27  C   UNL     1       8.716  11.209  21.835  0.00  0.00    +0.000 A 
ENDBRANCH  21  22
ENDBRANCH  19  21
ENDBRANCH  16  18
ENDBRANCH  15  16
ENDBRANCH   1  15
TORSDOF 5
ENDMDL
MODEL 6
REMARK VINA RESULT:      -8.2      4.084      7.686
REMARK  Name = 
REMARK  5 active torsions:
REMARK  status: ('A' for Active; 'I' for Inactive)
REMARK    1  A    between atoms: C_2  and  C_3
REMARK    2  A    between atoms: C_3  and  O_4
REMARK    3  A    between atoms: O_4  and  C_5
REMARK    4  A    between atoms: N_19  and  C_20
REMARK    5  A    between atoms: C_20  and  C_21
REMARK                            x       y       z     vdW  Elec       q    Type
REMARK                         _______ _______ _______ _____ _____    ______ ____
ROOT
ATOM      1  C   UNL     1       3.188   2.619  18.567  0.00  0.00    +0.000 A 
ATOM      2  C   UNL     1       4.215   2.621  19.519  0.00  0.00    +0.000 A 
ATOM      3  C   UNL     1       5.273   3.538  19.437  0.00  0.00    +0.000 A 
ATOM      4  C   UNL     1       5.316   4.459  18.391  0.00  0.00    +0.000 A 
ATOM      5  C   UNL     1       6.365   5.438  18.209  0.00  0.00    +0.000 A 
ATOM      6  C   UNL     1       6.357   6.251  17.150  0.00  0.00    +0.000 A 
ATOM      7  C   UNL     1       5.311   6.237  16.128  0.00  0.00    +0.000 A 
ATOM      8  O   UNL     1       5.338   6.982  15.155  0.00  0.00    +0.000 OA
ATOM      9  O   UNL     1       4.280   5.327  16.344  0.00  0.00    +0.000 OA
ATOM     10  C   UNL     1       4.288   4.439  17.446  0.00  0.00    +0.000 A 
ATOM     11  C   UNL     1       3.226   3.542  17.524  0.00  0.00    +0.000 A 
ATOM     12  C   UNL     1       7.524   7.170  17.128  0.00  0.00    +0.000 C 
ATOM     13  C   UNL     1       8.048   7.038  18.562  0.00  0.00    +0.000 C 
ATOM     14  C   UNL     1       7.539   5.689  19.088  0.00  0.00    +0.000 C 
ENDROOT
BRANCH   1  15
ATOM     15  O   UNL     1       2.213   1.675  18.753  0.00  0.00    +0.000 OA
BRANCH  15  16
ATOM     16  C   UNL     1       0.986   2.152  19.307  0.00  0.00    +0.000 C 
BRANCH  16  18
ATOM     17  O   UNL     1       1.204   2.771  21.627  0.00  0.00    +0.000 OA
ATOM     18  C   UNL     1       1.200   3.138  20.455  0.00  0.00    +0.000 C 
ATOM     19  N   UNL     1       1.385   4.441  20.066  0.00  0.00    +0.000 N 
ATOM     20  H   UNL     1       1.337   4.642  19.073  0.00  0.00    +0.000 HD
BRANCH  19  21
ATOM     21  C   UNL     1       1.587   5.519  21.002  0.00  0.00    +0.000 C 
BRANCH  21  22
ATOM     22  C   UNL     1       1.670   6.837  20.284  0.00  0.00    +0.000 A 
ATOM     23  C   UNL     1       1.047   7.974  20.806  0.00  0.00    +0.000 A 
ATOM     24  C   UNL     1       1.123   9.160  20.092  0.00  0.00    +0.000 A 
ATOM     25  N   UNL     1       1.760   9.285  18.909  0.00  0.00    +0.000 NA
ATOM     26  C   UNL     1       2.350   8.175  18.418  0.00  0.00    +0.000 A 
ATOM     27  C   UNL     1       2.333   6.946  19.058  0.00  0.00    +0.000 A 
ENDBRANCH  21  22
ENDBRANCH  19  21
ENDBRANCH  16  18
ENDBRANCH  15  16
ENDBRANCH   1  15
TORSDOF 5
ENDMDL
MODEL 7
REMARK VINA RESULT:      -8.2      4.789      7.030
REMARK  Name = 
REMARK  5 active torsions:
REMARK  status: ('A' for Active; 'I' for Inactive)
REMARK    1  A    between atoms: C_2  and  C_3
REMARK    2  A    between atoms: C_3  and  O_4
REMARK    3  A    between atoms: O_4  and  C_5
REMARK    4  A    between atoms: N_19  and  C_20
REMARK    5  A    between atoms: C_20  and  C_21
REMARK                            x       y       z     vdW  Elec       q    Type
REMARK                         _______ _______ _______ _____ _____    ______ ____
ROOT
ATOM      1  C   UNL     1       2.880   2.466  19.173  0.00  0.00    +0.000 A 
ATOM      2  C   UNL     1       2.393   2.549  17.863  0.00  0.00    +0.000 A 
ATOM      3  C   UNL     1       3.173   3.101  16.837  0.00  0.00    +0.000 A 
ATOM      4  C   UNL     1       4.451   3.585  17.117  0.00  0.00    +0.000 A 
ATOM      5  C   UNL     1       5.331   4.181  16.136  0.00  0.00    +0.000 A 
ATOM      6  C   UNL     1       6.521   4.665  16.499  0.00  0.00    +0.000 A 
ATOM      7  C   UNL     1       7.029   4.618  17.870  0.00  0.00    +0.000 A 
ATOM      8  O   UNL     1       8.117   5.088  18.179  0.00  0.00    +0.000 OA
ATOM      9  O   UNL     1       6.195   3.995  18.793  0.00  0.00    +0.000 OA
ATOM     10  C   UNL     1       4.919   3.500  18.430  0.00  0.00    +0.000 A 
ATOM     11  C   UNL     1       4.158   2.943  19.455  0.00  0.00    +0.000 A 
ATOM     12  C   UNL     1       7.269   5.252  15.358  0.00  0.00    +0.000 C 
ATOM     13  C   UNL     1       6.490   4.699  14.160  0.00  0.00    +0.000 C 
ATOM     14  C   UNL     1       5.088   4.350  14.678  0.00  0.00    +0.000 C 
ENDROOT
BRANCH   1  15
ATOM     15  O   UNL     1       2.024   1.910  20.087  0.00  0.00    +0.000 OA
BRANCH  15  16
ATOM     16  C   UNL     1       1.049   2.794  20.641  0.00  0.00    +0.000 C 
BRANCH  16  18
ATOM     17  O   UNL     1       2.472   4.174  22.013  0.00  0.00    +0.000 OA
ATOM     18  C   UNL     1       1.650   4.121  21.102  0.00  0.00    +0.000 C 
ATOM     19  N   UNL     1       1.198   5.223  20.421  0.00  0.00    +0.000 N 
ATOM     20  H   UNL     1       0.497   5.073  19.703  0.00  0.00    +0.000 HD
BRANCH  19  21
ATOM     21  C   UNL     1       1.635   6.565  20.719  0.00  0.00    +0.000 C 
BRANCH  21  22
ATOM     22  C   UNL     1       2.126   7.252  19.475  0.00  0.00    +0.000 A 
ATOM     23  C   UNL     1       3.096   6.654  18.666  0.00  0.00    +0.000 A 
ATOM     24  C   UNL     1       3.543   7.341  17.547  0.00  0.00    +0.000 A 
ATOM     25  N   UNL     1       3.101   8.565  17.190  0.00  0.00    +0.000 NA
ATOM     26  C   UNL     1       2.168   9.128  17.987  0.00  0.00    +0.000 A 
ATOM     27  C   UNL     1       1.657   8.522  19.124  0.00  0.00    +0.000 A 
ENDBRANCH  21  22
ENDBRANCH  19  21
ENDBRANCH  16  18
ENDBRANCH  15  16
ENDBRANCH   1  15
TORSDOF 5
ENDMDL
MODEL 8
REMARK VINA RESULT:      -8.1      5.945      9.160
REMARK  Name = 
REMARK  5 active torsions:
REMARK  status: ('A' for Active; 'I' for Inactive)
REMARK    1  A    between atoms: C_2  and  C_3
REMARK    2  A    between atoms: C_3  and  O_4
REMARK    3  A    between atoms: O_4  and  C_5
REMARK    4  A    between atoms: N_19  and  C_20
REMARK    5  A    between atoms: C_20  and  C_21
REMARK                            x       y       z     vdW  Elec       q    Type
REMARK                         _______ _______ _______ _____ _____    ______ ____
ROOT
ATOM      1  C   UNL     1       2.429   7.994  18.120  0.00  0.00    +0.000 A 
ATOM      2  C   UNL     1       2.318   7.340  19.353  0.00  0.00    +0.000 A 
ATOM      3  C   UNL     1       1.636   7.933  20.424  0.00  0.00    +0.000 A 
ATOM      4  C   UNL     1       1.063   9.195  20.273  0.00  0.00    +0.000 A 
ATOM      5  C   UNL     1       0.347   9.897  21.315  0.00  0.00    +0.000 A 
ATOM      6  C   UNL     1      -0.127  11.127  21.101  0.00  0.00    +0.000 A 
ATOM      7  C   UNL     1       0.011  11.837  19.830  0.00  0.00    +0.000 A 
ATOM      8  O   UNL     1      -0.418  12.973  19.667  0.00  0.00    +0.000 OA
ATOM      9  O   UNL     1       0.654  11.129  18.820  0.00  0.00    +0.000 OA
ATOM     10  C   UNL     1       1.187   9.836  19.038  0.00  0.00    +0.000 A 
ATOM     11  C   UNL     1       1.852   9.252  17.963  0.00  0.00    +0.000 A 
ATOM     12  C   UNL     1      -0.813  11.688  22.294  0.00  0.00    +0.000 C 
ATOM     13  C   UNL     1      -1.009  10.436  23.155  0.00  0.00    +0.000 C 
ATOM     14  C   UNL     1       0.044   9.421  22.692  0.00  0.00    +0.000 C 
ENDROOT
BRANCH   1  15
ATOM     15  O   UNL     1       3.121   7.314  17.152  0.00  0.00    +0.000 OA
BRANCH  15  16
ATOM     16  C   UNL     1       4.480   7.005  17.463  0.00  0.00    +0.000 C 
BRANCH  16  18
ATOM     17  O   UNL     1       5.479   5.364  18.919  0.00  0.00    +0.000 OA
ATOM     18  C   UNL     1       4.649   5.603  18.046  0.00  0.00    +0.000 C 
ATOM     19  N   UNL     1       3.806   4.657  17.520  0.00  0.00    +0.000 N 
ATOM     20  H   UNL     1       3.175   4.952  16.783  0.00  0.00    +0.000 HD
BRANCH  19  21
ATOM     21  C   UNL     1       3.823   3.274  17.930  0.00  0.00    +0.000 C 
BRANCH  21  22
ATOM     22  C   UNL     1       2.930   3.063  19.121  0.00  0.00    +0.000 A 
ATOM     23  C   UNL     1       1.548   3.235  19.016  0.00  0.00    +0.000 A 
ATOM     24  C   UNL     1       0.768   3.062  20.150  0.00  0.00    +0.000 A 
ATOM     25  N   UNL     1       1.267   2.741  21.362  0.00  0.00    +0.000 NA
ATOM     26  C   UNL     1       2.605   2.585  21.445  0.00  0.00    +0.000 A 
ATOM     27  C   UNL     1       3.467   2.733  20.370  0.00  0.00    +0.000 A 
ENDBRANCH  21  22
ENDBRANCH  19  21
ENDBRANCH  16  18
ENDBRANCH  15  16
ENDBRANCH   1  15
TORSDOF 5
ENDMDL
MODEL 9
REMARK VINA RESULT:      -8.0      6.625      8.833
REMARK  Name = 
REMARK  5 active torsions:
REMARK  status: ('A' for Active; 'I' for Inactive)
REMARK    1  A    between atoms: C_2  and  C_3
REMARK    2  A    between atoms: C_3  and  O_4
REMARK    3  A    between atoms: O_4  and  C_5
REMARK    4  A    between atoms: N_19  and  C_20
REMARK    5  A    between atoms: C_20  and  C_21
REMARK                            x       y       z     vdW  Elec       q    Type
REMARK                         _______ _______ _______ _____ _____    ______ ____
ROOT
ATOM      1  C   UNL     1       1.645   8.351  19.579  0.00  0.00    +0.000 A 
ATOM      2  C   UNL     1       2.172   8.056  18.315  0.00  0.00    +0.000 A 
ATOM      3  C   UNL     1       2.619   6.764  18.005  0.00  0.00    +0.000 A 
ATOM      4  C   UNL     1       2.550   5.754  18.965  0.00  0.00    +0.000 A 
ATOM      5  C   UNL     1       2.993   4.393  18.751  0.00  0.00    +0.000 A 
ATOM      6  C   UNL     1       2.938   3.500  19.741  0.00  0.00    +0.000 A 
ATOM      7  C   UNL     1       2.424   3.802  21.076  0.00  0.00    +0.000 A 
ATOM      8  O   UNL     1       2.403   2.968  21.972  0.00  0.00    +0.000 OA
ATOM      9  O   UNL     1       1.953   5.099  21.252  0.00  0.00    +0.000 OA
ATOM     10  C   UNL     1       2.028   6.067  20.221  0.00  0.00    +0.000 A 
ATOM     11  C   UNL     1       1.570   7.343  20.537  0.00  0.00    +0.000 A 
ATOM     12  C   UNL     1       3.453   2.167  19.334  0.00  0.00    +0.000 C 
ATOM     13  C   UNL     1       3.479   2.298  17.808  0.00  0.00    +0.000 C 
ATOM     14  C   UNL     1       3.543   3.801  17.502  0.00  0.00    +0.000 C 
ENDROOT
BRANCH   1  15
ATOM     15  O   UNL     1       1.245   9.649  19.762  0.00  0.00    +0.000 OA
BRANCH  15  16
ATOM     16  C   UNL     1       0.808   9.983  21.079  0.00  0.00    +0.000 C 
BRANCH  16  18
ATOM     17  O   UNL     1      -1.126  10.976  22.122  0.00  0.00    +0.000 OA
ATOM     18  C   UNL     1      -0.495  10.782  21.086  0.00  0.00    +0.000 C 
ATOM     19  N   UNL     1      -0.885  11.255  19.859  0.00  0.00    +0.000 N 
ATOM     20  H   UNL     1      -0.306  11.015  19.061  0.00  0.00    +0.000 HD
BRANCH  19  21
ATOM     21  C   UNL     1      -2.092  12.017  19.658  0.00  0.00    +0.000 C 
BRANCH  21  22
ATOM     22  C   UNL     1      -2.780  11.598  18.388  0.00  0.00    +0.000 A 
ATOM     23  C   UNL     1      -2.038  11.200  17.273  0.00  0.00    +0.000 A 
ATOM     24  C   UNL     1      -2.716  10.855  16.113  0.00  0.00    +0.000 A 
ATOM     25  N   UNL     1      -4.059  10.885  15.991  0.00  0.00    +0.000 NA
ATOM     26  C   UNL     1      -4.758  11.277  17.077  0.00  0.00    +0.000 A 
ATOM     27  C   UNL     1      -4.174  11.639  18.280  0.00  0.00    +0.000 A 
ENDBRANCH  21  22
ENDBRANCH  19  21
ENDBRANCH  16  18
ENDBRANCH  15  16
ENDBRANCH   1  15
TORSDOF 5
ENDMDL
