MODEL 1
REMARK VINA RESULT:      -8.1      0.000      0.000
REMARK  Name = 
REMARK  5 active torsions:
REMARK  status: ('A' for Active; 'I' for Inactive)
REMARK    1  A    between atoms: C_1  and  C_2
REMARK    2  A    between atoms: C_2  and  N_3
REMARK    3  A    between atoms: C_9  and  C_10
REMARK    4  A    between atoms: C_10  and  N_11
REMARK    5  A    between atoms: C_16  and  C_17
REMARK                            x       y       z     vdW  Elec       q    Type
REMARK                         _______ _______ _______ _____ _____    ______ ____
ROOT
ATOM      1  C   UNL     1       2.211   8.540  19.108  0.00  0.00    +0.000 C 
ENDROOT
BRANCH   1   2
ATOM      2  N   UNL     1       0.947   9.210  19.465  0.00  0.00    +0.000 NA
ATOM      3  C   UNL     1       0.688  10.422  18.684  0.00  0.00    +0.000 C 
ATOM      4  C   UNL     1      -0.650  11.099  19.020  0.00  0.00    +0.000 C 
ATOM      5  C   UNL     1      -0.911  11.185  20.499  0.00  0.00    +0.000 A 
ATOM      6  N   UNL     1      -1.843  12.117  20.892  0.00  0.00    +0.000 NA
ATOM      7  C   UNL     1      -2.062  12.231  22.161  0.00  0.00    +0.000 A 
ATOM      8  C   UNL     1      -3.066  13.213  22.686  0.00  0.00    +0.000 C 
ATOM      9  N   UNL     1      -1.419  11.485  23.107  0.00  0.00    +0.000 N 
ATOM     10  C   UNL     1      -0.489  10.537  22.781  0.00  0.00    +0.000 A 
ATOM     11  O   UNL     1       0.088   9.871  23.633  0.00  0.00    +0.000 OA
ATOM     12  C   UNL     1      -0.230  10.390  21.337  0.00  0.00    +0.000 A 
ATOM     13  C   UNL     1       0.792   9.385  20.918  0.00  0.00    +0.000 C 
ATOM     14  H   UNL     1      -1.609  11.600  24.087  0.00  0.00    +0.000 HD
ENDBRANCH   1   2
BRANCH   1  21
ATOM     15  N   UNL     1       2.033   2.784  18.913  0.00  0.00    +0.000 N 
ATOM     16  C   UNL     1       1.608   2.078  20.119  0.00  0.00    +0.000 C 
ATOM     17  C   UNL     1       2.339   2.623  21.338  0.00  0.00    +0.000 C 
ATOM     18  C   UNL     1       2.030   4.105  21.506  0.00  0.00    +0.000 C 
ATOM     19  C   UNL     1       2.096   4.857  20.199  0.00  0.00    +0.000 A 
ATOM     20  C   UNL     1       2.134   6.263  20.235  0.00  0.00    +0.000 A 
ATOM     21  C   UNL     1       2.193   7.023  19.058  0.00  0.00    +0.000 A 
ATOM     22  C   UNL     1       2.226   6.343  17.840  0.00  0.00    +0.000 A 
ATOM     23  C   UNL     1       2.174   4.948  17.799  0.00  0.00    +0.000 A 
ATOM     24  C   UNL     1       2.104   4.174  18.966  0.00  0.00    +0.000 A 
BRANCH  15  26
ATOM     25  C   UNL     1       3.892   1.260  18.351  0.00  0.00    +0.000 C 
ATOM     26  C   UNL     1       2.699   2.051  17.834  0.00  0.00    +0.000 C 
ENDBRANCH  15  26
ENDBRANCH   1  21
TORSDOF 3
ENDMDL
MODEL 2
REMARK VINA RESULT:      -7.9      2.990      4.156
REMARK  Name = 
REMARK  5 active torsions:
REMARK  status: ('A' for Active; 'I' for Inactive)
REMARK    1  A    between atoms: C_1  and  C_2
REMARK    2  A    between atoms: C_2  and  N_3
REMARK    3  A    between atoms: C_9  and  C_10
REMARK    4  A    between atoms: C_10  and  N_11
REMARK    5  A    between atoms: C_16  and  C_17
REMARK                            x       y       z     vdW  Elec       q    Type
REMARK                         _______ _______ _______ _____ _____    ______ ____
ROOT
ATOM      1  C   UNL     1       0.361  10.476  19.072  0.00  0.00    +0.000 C 
ENDROOT
BRANCH   1   2
ATOM      2  N   UNL     1      -1.092  10.425  18.826  0.00  0.00    +0.000 NA
ATOM      3  C   UNL     1      -1.438  10.215  17.418  0.00  0.00    +0.000 C 
ATOM      4  C   UNL     1      -2.951  10.114  17.163  0.00  0.00    +0.000 C 
ATOM      5  C   UNL     1      -3.743  11.158  17.901  0.00  0.00    +0.000 A 
ATOM      6  N   UNL     1      -5.007  11.405  17.420  0.00  0.00    +0.000 NA
ATOM      7  C   UNL     1      -5.696  12.321  18.020  0.00  0.00    +0.000 A 
ATOM      8  C   UNL     1      -7.088  12.656  17.573  0.00  0.00    +0.000 C 
ATOM      9  N   UNL     1      -5.231  13.039  19.084  0.00  0.00    +0.000 N 
ATOM     10  C   UNL     1      -3.988  12.836  19.614  0.00  0.00    +0.000 A 
ATOM     11  O   UNL     1      -3.572  13.485  20.567  0.00  0.00    +0.000 OA
ATOM     12  C   UNL     1      -3.189  11.791  18.946  0.00  0.00    +0.000 A 
ATOM     13  C   UNL     1      -1.812  11.537  19.465  0.00  0.00    +0.000 C 
ATOM     14  H   UNL     1      -5.790  13.748  19.525  0.00  0.00    +0.000 HD
ENDBRANCH   1   2
BRANCH   1  21
ATOM     15  N   UNL     1       3.094   5.510  20.111  0.00  0.00    +0.000 N 
ATOM     16  C   UNL     1       4.234   5.174  19.261  0.00  0.00    +0.000 C 
ATOM     17  C   UNL     1       3.880   5.378  17.795  0.00  0.00    +0.000 C 
ATOM     18  C   UNL     1       3.505   6.834  17.552  0.00  0.00    +0.000 C 
ATOM     19  C   UNL     1       2.589   7.377  18.622  0.00  0.00    +0.000 A 
ATOM     20  C   UNL     1       1.921   8.592  18.381  0.00  0.00    +0.000 A 
ATOM     21  C   UNL     1       1.059   9.154  19.334  0.00  0.00    +0.000 A 
ATOM     22  C   UNL     1       0.869   8.464  20.532  0.00  0.00    +0.000 A 
ATOM     23  C   UNL     1       1.541   7.265  20.781  0.00  0.00    +0.000 A 
ATOM     24  C   UNL     1       2.415   6.697  19.844  0.00  0.00    +0.000 A 
BRANCH  15  26
ATOM     25  C   UNL     1       1.383   3.734  20.208  0.00  0.00    +0.000 C 
ATOM     26  C   UNL     1       2.481   4.481  20.953  0.00  0.00    +0.000 C 
ENDBRANCH  15  26
ENDBRANCH   1  21
TORSDOF 3
ENDMDL
MODEL 3
REMARK VINA RESULT:      -7.8      0.960      2.008
REMARK  Name = 
REMARK  5 active torsions:
REMARK  status: ('A' for Active; 'I' for Inactive)
REMARK    1  A    between atoms: C_1  and  C_2
REMARK    2  A    between atoms: C_2  and  N_3
REMARK    3  A    between atoms: C_9  and  C_10
REMARK    4  A    between atoms: C_10  and  N_11
REMARK    5  A    between atoms: C_16  and  C_17
REMARK                            x       y       z     vdW  Elec       q    Type
REMARK                         _______ _______ _______ _____ _____    ______ ____
ROOT
ATOM      1  C   UNL     1       2.072   9.154  18.877  0.00  0.00    +0.000 C 
ENDROOT
BRANCH   1   2
ATOM      2  N   UNL     1       0.778   9.672  19.358  0.00  0.00    +0.000 NA
ATOM      3  C   UNL     1       0.365  10.913  18.698  0.00  0.00    +0.000 C 
ATOM      4  C   UNL     1      -1.006  11.432  19.162  0.00  0.00    +0.000 C 
ATOM      5  C   UNL     1      -1.183  11.374  20.654  0.00  0.00    +0.000 A 
ATOM      6  N   UNL     1      -2.168  12.179  21.175  0.00  0.00    +0.000 NA
ATOM      7  C   UNL     1      -2.318  12.170  22.459  0.00  0.00    +0.000 A 
ATOM      8  C   UNL     1      -3.372  13.008  23.119  0.00  0.00    +0.000 C 
ATOM      9  N   UNL     1      -1.555  11.414  23.302  0.00  0.00    +0.000 N 
ATOM     10  C   UNL     1      -0.566  10.587  22.847  0.00  0.00    +0.000 A 
ATOM     11  O   UNL     1       0.120   9.912  23.607  0.00  0.00    +0.000 OA
ATOM     12  C   UNL     1      -0.383  10.581  21.384  0.00  0.00    +0.000 A 
ATOM     13  C   UNL     1       0.697   9.714  20.826  0.00  0.00    +0.000 C 
ATOM     14  H   UNL     1      -1.694  11.432  24.297  0.00  0.00    +0.000 HD
ENDBRANCH   1   2
BRANCH   1  21
ATOM     15  N   UNL     1       3.043   3.502  19.431  0.00  0.00    +0.000 N 
ATOM     16  C   UNL     1       4.126   2.919  18.642  0.00  0.00    +0.000 C 
ATOM     17  C   UNL     1       4.034   3.382  17.194  0.00  0.00    +0.000 C 
ATOM     18  C   UNL     1       4.145   4.900  17.129  0.00  0.00    +0.000 C 
ATOM     19  C   UNL     1       3.309   5.582  18.184  0.00  0.00    +0.000 A 
ATOM     20  C   UNL     1       3.070   6.964  18.061  0.00  0.00    +0.000 A 
ATOM     21  C   UNL     1       2.305   7.660  19.007  0.00  0.00    +0.000 A 
ATOM     22  C   UNL     1       1.770   6.939  20.076  0.00  0.00    +0.000 A 
ATOM     23  C   UNL     1       2.016   5.571  20.209  0.00  0.00    +0.000 A 
ATOM     24  C   UNL     1       2.789   4.863  19.278  0.00  0.00    +0.000 A 
BRANCH  15  26
ATOM     25  C   UNL     1       0.839   2.422  19.166  0.00  0.00    +0.000 C 
ATOM     26  C   UNL     1       2.050   2.631  20.064  0.00  0.00    +0.000 C 
ENDBRANCH  15  26
ENDBRANCH   1  21
TORSDOF 3
ENDMDL
MODEL 4
REMARK VINA RESULT:      -7.8      3.343      8.736
REMARK  Name = 
REMARK  5 active torsions:
REMARK  status: ('A' for Active; 'I' for Inactive)
REMARK    1  A    between atoms: C_1  and  C_2
REMARK    2  A    between atoms: C_2  and  N_3
REMARK    3  A    between atoms: C_9  and  C_10
REMARK    4  A    between atoms: C_10  and  N_11
REMARK    5  A    between atoms: C_16  and  C_17
REMARK                            x       y       z     vdW  Elec       q    Type
REMARK                         _______ _______ _______ _____ _____    ______ ____
ROOT
ATOM      1  C   UNL     1       2.503   6.341  20.032  0.00  0.00    +0.000 C 
ENDROOT
BRANCH   1   2
ATOM      2  N   UNL     1       2.870   5.891  18.677  0.00  0.00    +0.000 NA
ATOM      3  C   UNL     1       2.796   4.437  18.505  0.00  0.00    +0.000 C 
ATOM      4  C   UNL     1       3.133   3.966  17.082  0.00  0.00    +0.000 C 
ATOM      5  C   UNL     1       4.342   4.650  16.505  0.00  0.00    +0.000 A 
ATOM      6  N   UNL     1       4.946   4.013  15.447  0.00  0.00    +0.000 NA
ATOM      7  C   UNL     1       6.006   4.566  14.955  0.00  0.00    +0.000 A 
ATOM      8  C   UNL     1       6.730   3.950  13.795  0.00  0.00    +0.000 C 
ATOM      9  N   UNL     1       6.541   5.729  15.432  0.00  0.00    +0.000 N 
ATOM     10  C   UNL     1       5.983   6.414  16.475  0.00  0.00    +0.000 A 
ATOM     11  O   UNL     1       6.468   7.456  16.902  0.00  0.00    +0.000 OA
ATOM     12  C   UNL     1       4.770   5.800  17.046  0.00  0.00    +0.000 A 
ATOM     13  C   UNL     1       4.126   6.491  18.203  0.00  0.00    +0.000 C 
ATOM     14  H   UNL     1       7.369   6.131  15.029  0.00  0.00    +0.000 HD
ENDBRANCH   1   2
BRANCH   1  21
ATOM     15  N   UNL     1      -0.063  11.481  20.482  0.00  0.00    +0.000 N 
ATOM     16  C   UNL     1      -0.331  11.989  21.825  0.00  0.00    +0.000 C 
ATOM     17  C   UNL     1      -0.978  10.909  22.681  0.00  0.00    +0.000 C 
ATOM     18  C   UNL     1      -0.046   9.709  22.791  0.00  0.00    +0.000 C 
ATOM     19  C   UNL     1       0.571   9.339  21.464  0.00  0.00    +0.000 A 
ATOM     20  C   UNL     1       1.206   8.088  21.346  0.00  0.00    +0.000 A 
ATOM     21  C   UNL     1       1.802   7.683  20.143  0.00  0.00    +0.000 A 
ATOM     22  C   UNL     1       1.739   8.553  19.054  0.00  0.00    +0.000 A 
ATOM     23  C   UNL     1       1.122   9.801  19.172  0.00  0.00    +0.000 A 
ATOM     24  C   UNL     1       0.532  10.226  20.370  0.00  0.00    +0.000 A 
BRANCH  15  26
ATOM     25  C   UNL     1      -2.217  11.823  19.325  0.00  0.00    +0.000 C 
ATOM     26  C   UNL     1      -0.719  12.093  19.324  0.00  0.00    +0.000 C 
ENDBRANCH  15  26
ENDBRANCH   1  21
TORSDOF 3
ENDMDL
MODEL 5
REMARK VINA RESULT:      -7.7      1.798      2.579
REMARK  Name = 
REMARK  5 active torsions:
REMARK  status: ('A' for Active; 'I' for Inactive)
REMARK    1  A    between atoms: C_1  and  C_2
REMARK    2  A    between atoms: C_2  and  N_3
REMARK    3  A    between atoms: C_9  and  C_10
REMARK    4  A    between atoms: C_10  and  N_11
REMARK    5  A    between atoms: C_16  and  C_17
REMARK                            x       y       z     vdW  Elec       q    Type
REMARK                         _______ _______ _______ _____ _____    ______ ____
ROOT
ATOM      1  C   UNL     1       1.846   9.348  18.288  0.00  0.00    +0.000 C 
ENDROOT
BRANCH   1   2
ATOM      2  N   UNL     1       0.613   9.880  18.898  0.00  0.00    +0.000 NA
ATOM      3  C   UNL     1      -0.460  10.120  17.928  0.00  0.00    +0.000 C 
ATOM      4  C   UNL     1      -1.762  10.632  18.564  0.00  0.00    +0.000 C 
ATOM      5  C   UNL     1      -1.534  11.705  19.592  0.00  0.00    +0.000 A 
ATOM      6  N   UNL     1      -2.621  12.491  19.894  0.00  0.00    +0.000 NA
ATOM      7  C   UNL     1      -2.441  13.441  20.752  0.00  0.00    +0.000 A 
ATOM      8  C   UNL     1      -3.569  14.345  21.151  0.00  0.00    +0.000 C 
ATOM      9  N   UNL     1      -1.243  13.694  21.357  0.00  0.00    +0.000 N 
ATOM     10  C   UNL     1      -0.127  12.944  21.107  0.00  0.00    +0.000 A 
ATOM     11  O   UNL     1       0.948  13.176  21.650  0.00  0.00    +0.000 OA
ATOM     12  C   UNL     1      -0.315  11.853  20.134  0.00  0.00    +0.000 A 
ATOM     13  C   UNL     1       0.873  11.012  19.801  0.00  0.00    +0.000 C 
ATOM     14  H   UNL     1      -1.134  14.443  22.018  0.00  0.00    +0.000 HD
ENDBRANCH   1   2
BRANCH   1  21
ATOM     15  N   UNL     1       3.471   4.035  19.817  0.00  0.00    +0.000 N 
ATOM     16  C   UNL     1       4.535   3.402  19.040  0.00  0.00    +0.000 C 
ATOM     17  C   UNL     1       4.263   3.550  17.550  0.00  0.00    +0.000 C 
ATOM     18  C   UNL     1       4.202   5.026  17.180  0.00  0.00    +0.000 C 
ATOM     19  C   UNL     1       3.395   5.832  18.168  0.00  0.00    +0.000 A 
ATOM     20  C   UNL     1       2.998   7.134  17.807  0.00  0.00    +0.000 A 
ATOM     21  C   UNL     1       2.250   7.938  18.679  0.00  0.00    +0.000 A 
ATOM     22  C   UNL     1       1.896   7.406  19.920  0.00  0.00    +0.000 A 
ATOM     23  C   UNL     1       2.300   6.120  20.287  0.00  0.00    +0.000 A 
ATOM     24  C   UNL     1       3.058   5.308  19.432  0.00  0.00    +0.000 A 
BRANCH  15  26
ATOM     25  C   UNL     1       1.466   2.604  19.971  0.00  0.00    +0.000 C 
ATOM     26  C   UNL     1       2.641   3.227  20.712  0.00  0.00    +0.000 C 
ENDBRANCH  15  26
ENDBRANCH   1  21
TORSDOF 3
ENDMDL
MODEL 6
REMARK VINA RESULT:      -7.6      1.244      2.189
REMARK  Name = 
REMARK  5 active torsions:
REMARK  status: ('A' for Active; 'I' for Inactive)
REMARK    1  A    between atoms: C_1  and  C_2
REMARK    2  A    between atoms: C_2  and  N_3
REMARK    3  A    between atoms: C_9  and  C_10
REMARK    4  A    between atoms: C_10  and  N_11
REMARK    5  A    between atoms: C_16  and  C_17
REMARK                            x       y       z     vdW  Elec       q    Type
REMARK                         _______ _______ _______ _____ _____    ______ ____
ROOT
ATOM      1  C   UNL     1       2.018   9.025  19.452  0.00  0.00    +0.000 C 
ENDROOT
BRANCH   1   2
ATOM      2  N   UNL     1       0.632   9.523  19.525  0.00  0.00    +0.000 NA
ATOM      3  C   UNL     1       0.194  10.208  18.306  0.00  0.00    +0.000 C 
ATOM      4  C   UNL     1      -1.265  10.689  18.359  0.00  0.00    +0.000 C 
ATOM      5  C   UNL     1      -1.622  11.345  19.664  0.00  0.00    +0.000 A 
ATOM      6  N   UNL     1      -2.734  12.154  19.646  0.00  0.00    +0.000 NA
ATOM      7  C   UNL     1      -3.043  12.754  20.749  0.00  0.00    +0.000 A 
ATOM      8  C   UNL     1      -4.243  13.650  20.830  0.00  0.00    +0.000 C 
ATOM      9  N   UNL     1      -2.326  12.625  21.904  0.00  0.00    +0.000 N 
ATOM     10  C   UNL     1      -1.217  11.830  21.990  0.00  0.00    +0.000 A 
ATOM     11  O   UNL     1      -0.574  11.719  23.028  0.00  0.00    +0.000 OA
ATOM     12  C   UNL     1      -0.853  11.133  20.742  0.00  0.00    +0.000 A 
ATOM     13  C   UNL     1       0.364  10.267  20.765  0.00  0.00    +0.000 C 
ATOM     14  H   UNL     1      -2.591  13.108  22.745  0.00  0.00    +0.000 HD
ENDBRANCH   1   2
BRANCH   1  21
ATOM     15  N   UNL     1       2.818   3.318  19.425  0.00  0.00    +0.000 N 
ATOM     16  C   UNL     1       3.887   2.788  18.581  0.00  0.00    +0.000 C 
ATOM     17  C   UNL     1       3.815   3.399  17.189  0.00  0.00    +0.000 C 
ATOM     18  C   UNL     1       3.971   4.912  17.279  0.00  0.00    +0.000 C 
ATOM     19  C   UNL     1       3.150   5.507  18.397  0.00  0.00    +0.000 A 
ATOM     20  C   UNL     1       2.954   6.901  18.416  0.00  0.00    +0.000 A 
ATOM     21  C   UNL     1       2.205   7.519  19.429  0.00  0.00    +0.000 A 
ATOM     22  C   UNL     1       1.645   6.708  20.417  0.00  0.00    +0.000 A 
ATOM     23  C   UNL     1       1.849   5.327  20.409  0.00  0.00    +0.000 A 
ATOM     24  C   UNL     1       2.605   4.695  19.412  0.00  0.00    +0.000 A 
BRANCH  15  26
ATOM     25  C   UNL     1       0.669   2.194  18.967  0.00  0.00    +0.000 C 
ATOM     26  C   UNL     1       1.797   2.417  19.964  0.00  0.00    +0.000 C 
ENDBRANCH  15  26
ENDBRANCH   1  21
TORSDOF 3
ENDMDL
MODEL 7
REMARK VINA RESULT:      -7.6      3.115      4.092
REMARK  Name = 
REMARK  5 active torsions:
REMARK  status: ('A' for Active; 'I' for Inactive)
REMARK    1  A    between atoms: C_1  and  C_2
REMARK    2  A    between atoms: C_2  and  N_3
REMARK    3  A    between atoms: C_9  and  C_10
REMARK    4  A    between atoms: C_10  and  N_11
REMARK    5  A    between atoms: C_16  and  C_17
REMARK                            x       y       z     vdW  Elec       q    Type
REMARK                         _______ _______ _______ _____ _____    ______ ____
ROOT
ATOM      1  C   UNL     1       1.904   5.864  20.534  0.00  0.00    +0.000 C 
ENDROOT
BRANCH   1   2
ATOM      2  N   UNL     1       1.609   7.296  20.726  0.00  0.00    +0.000 NA
ATOM      3  C   UNL     1       0.332   7.542  21.401  0.00  0.00    +0.000 C 
ATOM      4  C   UNL     1       0.041   9.032  21.645  0.00  0.00    +0.000 C 
ATOM      5  C   UNL     1       0.349   9.896  20.453  0.00  0.00    +0.000 A 
ATOM      6  N   UNL     1      -0.255  11.130  20.433  0.00  0.00    +0.000 NA
ATOM      7  C   UNL     1      -0.030  11.879  19.403  0.00  0.00    +0.000 A 
ATOM      8  C   UNL     1      -0.638  13.245  19.294  0.00  0.00    +0.000 C 
ATOM      9  N   UNL     1       0.762  11.502  18.356  0.00  0.00    +0.000 N 
ATOM     10  C   UNL     1       1.398  10.292  18.320  0.00  0.00    +0.000 A 
ATOM     11  O   UNL     1       2.105   9.957  17.377  0.00  0.00    +0.000 OA
ATOM     12  C   UNL     1       1.156   9.427  19.489  0.00  0.00    +0.000 A 
ATOM     13  C   UNL     1       1.805   8.082  19.499  0.00  0.00    +0.000 C 
ATOM     14  H   UNL     1       0.914  12.106  17.567  0.00  0.00    +0.000 HD
ENDBRANCH   1   2
BRANCH   1  21
ATOM     15  N   UNL     1       5.662   4.414  16.413  0.00  0.00    +0.000 N 
ATOM     16  C   UNL     1       7.073   4.326  16.784  0.00  0.00    +0.000 C 
ATOM     17  C   UNL     1       7.489   5.553  17.582  0.00  0.00    +0.000 C 
ATOM     18  C   UNL     1       6.657   5.648  18.855  0.00  0.00    +0.000 C 
ATOM     19  C   UNL     1       5.192   5.384  18.603  0.00  0.00    +0.000 A 
ATOM     20  C   UNL     1       4.266   5.730  19.605  0.00  0.00    +0.000 A 
ATOM     21  C   UNL     1       2.892   5.508  19.438  0.00  0.00    +0.000 A 
ATOM     22  C   UNL     1       2.460   4.944  18.236  0.00  0.00    +0.000 A 
ATOM     23  C   UNL     1       3.377   4.588  17.245  0.00  0.00    +0.000 A 
ATOM     24  C   UNL     1       4.755   4.791  17.401  0.00  0.00    +0.000 A 
BRANCH  15  26
ATOM     25  C   UNL     1       6.407   3.980  14.101  0.00  0.00    +0.000 C 
ATOM     26  C   UNL     1       5.279   4.463  15.001  0.00  0.00    +0.000 C 
ENDBRANCH  15  26
ENDBRANCH   1  21
TORSDOF 3
ENDMDL
MODEL 8
REMARK VINA RESULT:      -7.6      2.797      8.748
REMARK  Name = 
REMARK  5 active torsions:
REMARK  status: ('A' for Active; 'I' for Inactive)
REMARK    1  A    between atoms: C_1  and  C_2
REMARK    2  A    between atoms: C_2  and  N_3
REMARK    3  A    between atoms: C_9  and  C_10
REMARK    4  A    between atoms: C_10  and  N_11
REMARK    5  A    between atoms: C_16  and  C_17
REMARK                            x       y       z     vdW  Elec       q    Type
REMARK                         _______ _______ _______ _____ _____    ______ ____
ROOT
ATOM      1  C   UNL     1       2.301   8.865  18.338  0.00  0.00    +0.000 C 
ENDROOT
BRANCH   1   2
ATOM      2  N   UNL     1       2.302   7.421  18.640  0.00  0.00    +0.000 NA
ATOM      3  C   UNL     1       2.012   7.119  20.044  0.00  0.00    +0.000 C 
ATOM      4  C   UNL     1       1.965   5.614  20.354  0.00  0.00    +0.000 C 
ATOM      5  C   UNL     1       3.094   4.847  19.722  0.00  0.00    +0.000 A 
ATOM      6  N   UNL     1       3.366   3.616  20.270  0.00  0.00    +0.000 NA
ATOM      7  C   UNL     1       4.352   2.951  19.762  0.00  0.00    +0.000 A 
ATOM      8  C   UNL     1       4.721   1.596  20.287  0.00  0.00    +0.000 C 
ATOM      9  N   UNL     1       5.120   3.411  18.730  0.00  0.00    +0.000 N 
ATOM     10  C   UNL     1       4.895   4.622  18.137  0.00  0.00    +0.000 A 
ATOM     11  O   UNL     1       5.588   5.032  17.213  0.00  0.00    +0.000 OA
ATOM     12  C   UNL     1       3.771   5.392  18.699  0.00  0.00    +0.000 A 
ATOM     13  C   UNL     1       3.489   6.734  18.108  0.00  0.00    +0.000 C 
ATOM     14  H   UNL     1       5.883   2.871  18.361  0.00  0.00    +0.000 HD
ENDBRANCH   1   2
BRANCH   1  21
ATOM     15  N   UNL     1      -2.701  11.600  19.177  0.00  0.00    +0.000 N 
ATOM     16  C   UNL     1      -3.827  11.231  18.322  0.00  0.00    +0.000 C 
ATOM     17  C   UNL     1      -3.393  11.189  16.863  0.00  0.00    +0.000 C 
ATOM     18  C   UNL     1      -2.285  10.159  16.682  0.00  0.00    +0.000 C 
ATOM     19  C   UNL     1      -1.241  10.243  17.769  0.00  0.00    +0.000 A 
ATOM     20  C   UNL     1      -0.017   9.574  17.576  0.00  0.00    +0.000 A 
ATOM     21  C   UNL     1       0.995   9.608  18.547  0.00  0.00    +0.000 A 
ATOM     22  C   UNL     1       0.761  10.340  19.712  0.00  0.00    +0.000 A 
ATOM     23  C   UNL     1      -0.457  10.994  19.912  0.00  0.00    +0.000 A 
ATOM     24  C   UNL     1      -1.483  10.960  18.958  0.00  0.00    +0.000 A 
BRANCH  15  26
ATOM     25  C   UNL     1      -4.111  13.001  20.640  0.00  0.00    +0.000 C 
ATOM     26  C   UNL     1      -2.756  12.832  19.967  0.00  0.00    +0.000 C 
ENDBRANCH  15  26
ENDBRANCH   1  21
TORSDOF 3
ENDMDL
MODEL 9
REMARK VINA RESULT:      -7.6      2.383      3.332
REMARK  Name = 
REMARK  5 active torsions:
REMARK  status: ('A' for Active; 'I' for Inactive)
REMARK    1  A    between atoms: C_1  and  C_2
REMARK    2  A    between atoms: C_2  and  N_3
REMARK    3  A    between atoms: C_9  and  C_10
REMARK    4  A    between atoms: C_10  and  N_11
REMARK    5  A    between atoms: C_16  and  C_17
REMARK                            x       y       z     vdW  Elec       q    Type
REMARK                         _______ _______ _______ _____ _____    ______ ____
ROOT
ATOM      1  C   UNL     1       1.350   9.211  18.547  0.00  0.00    +0.000 C 
ENDROOT
BRANCH   1   2
ATOM      2  N   UNL     1       1.097   9.887  19.832  0.00  0.00    +0.000 NA
ATOM      3  C   UNL     1      -0.057   9.348  20.558  0.00  0.00    +0.000 C 
ATOM      4  C   UNL     1      -0.297  10.019  21.920  0.00  0.00    +0.000 C 
ATOM      5  C   UNL     1      -0.178  11.517  21.868  0.00  0.00    +0.000 A 
ATOM      6  N   UNL     1      -0.771  12.204  22.900  0.00  0.00    +0.000 NA
ATOM      7  C   UNL     1      -0.708  13.495  22.861  0.00  0.00    +0.000 A 
ATOM      8  C   UNL     1      -1.319  14.331  23.946  0.00  0.00    +0.000 C 
ATOM      9  N   UNL     1      -0.094  14.190  21.859  0.00  0.00    +0.000 N 
ATOM     10  C   UNL     1       0.521  13.566  20.809  0.00  0.00    +0.000 A 
ATOM     11  O   UNL     1       1.069  14.193  19.909  0.00  0.00    +0.000 OA
ATOM     12  C   UNL     1       0.464  12.093  20.840  0.00  0.00    +0.000 A 
ATOM     13  C   UNL     1       1.099  11.353  19.709  0.00  0.00    +0.000 C 
ATOM     14  H   UNL     1      -0.066  15.194  21.855  0.00  0.00    +0.000 HD
ENDBRANCH   1   2
BRANCH   1  21
ATOM     15  N   UNL     1       4.898   4.674  18.719  0.00  0.00    +0.000 N 
ATOM     16  C   UNL     1       6.069   4.696  17.846  0.00  0.00    +0.000 C 
ATOM     17  C   UNL     1       5.669   5.102  16.434  0.00  0.00    +0.000 C 
ATOM     18  C   UNL     1       5.050   6.494  16.453  0.00  0.00    +0.000 C 
ATOM     19  C   UNL     1       4.067   6.668  17.585  0.00  0.00    +0.000 A 
ATOM     20  C   UNL     1       3.199   7.777  17.556  0.00  0.00    +0.000 A 
ATOM     21  C   UNL     1       2.265   8.001  18.577  0.00  0.00    +0.000 A 
ATOM     22  C   UNL     1       2.208   7.081  19.626  0.00  0.00    +0.000 A 
ATOM     23  C   UNL     1       3.076   5.988  19.666  0.00  0.00    +0.000 A 
ATOM     24  C   UNL     1       4.024   5.757  18.659  0.00  0.00    +0.000 A 
BRANCH  15  26
ATOM     25  C   UNL     1       3.667   2.560  18.385  0.00  0.00    +0.000 C 
ATOM     26  C   UNL     1       4.477   3.419  19.346  0.00  0.00    +0.000 C 
ENDBRANCH  15  26
ENDBRANCH   1  21
TORSDOF 3
ENDMDL
