MODEL 1
REMARK VINA RESULT:      -6.0      0.000      0.000
REMARK  Name = 
REMARK  5 active torsions:
REMARK  status: ('A' for Active; 'I' for Inactive)
REMARK    1  A    between atoms: C_1  and  O_2
REMARK    2  A    between atoms: O_2  and  C_3
REMARK    3  A    between atoms: C_3  and  C_5
REMARK    4  A    between atoms: N_11  and  C_12
REMARK    5  A    between atoms: N_13  and  C_14
REMARK                            x       y       z     vdW  Elec       q    Type
REMARK                         _______ _______ _______ _____ _____    ______ ____
ROOT
ATOM      1  C   UNL     1       5.992   4.711  18.135  0.00  0.00    +0.000 A 
ATOM      2  C   UNL     1       5.264   4.792  19.322  0.00  0.00    +0.000 A 
ATOM      3  C   UNL     1       3.927   4.462  18.985  0.00  0.00    +0.000 A 
ATOM      4  C   UNL     1       3.867   4.180  17.659  0.00  0.00    +0.000 A 
ATOM      5  C   UNL     1       2.535   3.838  17.313  0.00  0.00    +0.000 A 
ATOM      6  C   UNL     1       1.824   3.943  18.495  0.00  0.00    +0.000 A 
ATOM      7  N   UNL     1       2.666   4.327  19.508  0.00  0.00    +0.000 N 
ATOM      8  C   UNL     1       2.322   4.575  20.883  0.00  0.00    +0.000 C 
ATOM      9  N   UNL     1       5.121   4.324  17.127  0.00  0.00    +0.000 N 
ATOM     10  C   UNL     1       5.431   4.095  15.737  0.00  0.00    +0.000 C 
ENDROOT
BRANCH   1  11
ATOM     11  C   UNL     1       7.405   4.969  17.910  0.00  0.00    +0.000 C 
ATOM     12  O   UNL     1       8.191   4.194  17.380  0.00  0.00    +0.000 OA
BRANCH  11  14
ATOM     13  C   UNL     1       7.427   7.259  17.467  0.00  0.00    +0.000 C 
ATOM     14  O   UNL     1       7.744   6.205  18.377  0.00  0.00    +0.000 OA
ENDBRANCH  11  14
ENDBRANCH   1  11
TORSDOF 2
ENDMDL
MODEL 2
REMARK VINA RESULT:      -5.8      1.495      1.731
REMARK  Name = 
REMARK  5 active torsions:
REMARK  status: ('A' for Active; 'I' for Inactive)
REMARK    1  A    between atoms: C_1  and  O_2
REMARK    2  A    between atoms: O_2  and  C_3
REMARK    3  A    between atoms: C_3  and  C_5
REMARK    4  A    between atoms: N_11  and  C_12
REMARK    5  A    between atoms: N_13  and  C_14
REMARK                            x       y       z     vdW  Elec       q    Type
REMARK                         _______ _______ _______ _____ _____    ______ ____
ROOT
ATOM      1  C   UNL     1       5.706   4.468  17.563  0.00  0.00    +0.000 A 
ATOM      2  C   UNL     1       5.028   3.359  18.068  0.00  0.00    +0.000 A 
ATOM      3  C   UNL     1       3.674   3.758  18.205  0.00  0.00    +0.000 A 
ATOM      4  C   UNL     1       3.551   5.041  17.782  0.00  0.00    +0.000 A 
ATOM      5  C   UNL     1       2.197   5.446  17.905  0.00  0.00    +0.000 A 
ATOM      6  C   UNL     1       1.544   4.344  18.425  0.00  0.00    +0.000 A 
ATOM      7  N   UNL     1       2.439   3.322  18.613  0.00  0.00    +0.000 N 
ATOM      8  C   UNL     1       2.174   2.016  19.158  0.00  0.00    +0.000 C 
ATOM      9  N   UNL     1       4.783   5.488  17.383  0.00  0.00    +0.000 N 
ATOM     10  C   UNL     1       5.025   6.812  16.866  0.00  0.00    +0.000 C 
ENDROOT
BRANCH   1  11
ATOM     11  C   UNL     1       7.120   4.612  17.254  0.00  0.00    +0.000 C 
ATOM     12  O   UNL     1       7.589   4.751  16.132  0.00  0.00    +0.000 OA
BRANCH  11  14
ATOM     13  C   UNL     1       7.825   5.786  19.143  0.00  0.00    +0.000 C 
ATOM     14  O   UNL     1       7.865   4.570  18.396  0.00  0.00    +0.000 OA
ENDBRANCH  11  14
ENDBRANCH   1  11
TORSDOF 2
ENDMDL
MODEL 3
REMARK VINA RESULT:      -5.8      1.857      2.099
REMARK  Name = 
REMARK  5 active torsions:
REMARK  status: ('A' for Active; 'I' for Inactive)
REMARK    1  A    between atoms: C_1  and  O_2
REMARK    2  A    between atoms: O_2  and  C_3
REMARK    3  A    between atoms: C_3  and  C_5
REMARK    4  A    between atoms: N_11  and  C_12
REMARK    5  A    between atoms: N_13  and  C_14
REMARK                            x       y       z     vdW  Elec       q    Type
REMARK                         _______ _______ _______ _____ _____    ______ ____
ROOT
ATOM      1  C   UNL     1       4.450   5.489  17.049  0.00  0.00    +0.000 A 
ATOM      2  C   UNL     1       3.410   5.558  17.977  0.00  0.00    +0.000 A 
ATOM      3  C   UNL     1       3.046   4.217  18.256  0.00  0.00    +0.000 A 
ATOM      4  C   UNL     1       3.845   3.388  17.540  0.00  0.00    +0.000 A 
ATOM      5  C   UNL     1       3.495   2.042  17.821  0.00  0.00    +0.000 A 
ATOM      6  C   UNL     1       2.452   2.129  18.724  0.00  0.00    +0.000 A 
ATOM      7  N   UNL     1       2.175   3.448  18.984  0.00  0.00    +0.000 N 
ATOM      8  C   UNL     1       1.147   3.971  19.846  0.00  0.00    +0.000 C 
ATOM      9  N   UNL     1       4.711   4.149  16.800  0.00  0.00    +0.000 N 
ATOM     10  C   UNL     1       5.713   3.597  15.923  0.00  0.00    +0.000 C 
ENDROOT
BRANCH   1  11
ATOM     11  C   UNL     1       5.179   6.573  16.411  0.00  0.00    +0.000 C 
ATOM     12  O   UNL     1       5.106   6.876  15.227  0.00  0.00    +0.000 OA
BRANCH  11  14
ATOM     13  C   UNL     1       7.304   6.712  17.365  0.00  0.00    +0.000 C 
ATOM     14  O   UNL     1       5.969   7.216  17.319  0.00  0.00    +0.000 OA
ENDBRANCH  11  14
ENDBRANCH   1  11
TORSDOF 2
ENDMDL
MODEL 4
REMARK VINA RESULT:      -5.7      1.698      2.549
REMARK  Name = 
REMARK  5 active torsions:
REMARK  status: ('A' for Active; 'I' for Inactive)
REMARK    1  A    between atoms: C_1  and  O_2
REMARK    2  A    between atoms: O_2  and  C_3
REMARK    3  A    between atoms: C_3  and  C_5
REMARK    4  A    between atoms: N_11  and  C_12
REMARK    5  A    between atoms: N_13  and  C_14
REMARK                            x       y       z     vdW  Elec       q    Type
REMARK                         _______ _______ _______ _____ _____    ______ ____
ROOT
ATOM      1  C   UNL     1       5.596   4.645  16.654  0.00  0.00    +0.000 A 
ATOM      2  C   UNL     1       4.815   3.514  16.888  0.00  0.00    +0.000 A 
ATOM      3  C   UNL     1       3.622   3.980  17.495  0.00  0.00    +0.000 A 
ATOM      4  C   UNL     1       3.685   5.332  17.601  0.00  0.00    +0.000 A 
ATOM      5  C   UNL     1       2.491   5.809  18.200  0.00  0.00    +0.000 A 
ATOM      6  C   UNL     1       1.738   4.676  18.443  0.00  0.00    +0.000 A 
ATOM      7  N   UNL     1       2.426   3.565  18.022  0.00  0.00    +0.000 N 
ATOM      8  C   UNL     1       2.009   2.191  18.118  0.00  0.00    +0.000 C 
ATOM      9  N   UNL     1       4.883   5.753  17.088  0.00  0.00    +0.000 N 
ATOM     10  C   UNL     1       5.286   7.136  17.031  0.00  0.00    +0.000 C 
ENDROOT
BRANCH   1  11
ATOM     11  C   UNL     1       6.924   4.734  16.067  0.00  0.00    +0.000 C 
ATOM     12  O   UNL     1       7.968   4.433  16.630  0.00  0.00    +0.000 OA
BRANCH  11  14
ATOM     13  C   UNL     1       6.491   4.205  13.836  0.00  0.00    +0.000 C 
ATOM     14  O   UNL     1       6.850   5.206  14.790  0.00  0.00    +0.000 OA
ENDBRANCH  11  14
ENDBRANCH   1  11
TORSDOF 2
ENDMDL
MODEL 5
REMARK VINA RESULT:      -5.7      3.103      5.186
REMARK  Name = 
REMARK  5 active torsions:
REMARK  status: ('A' for Active; 'I' for Inactive)
REMARK    1  A    between atoms: C_1  and  O_2
REMARK    2  A    between atoms: O_2  and  C_3
REMARK    3  A    between atoms: C_3  and  C_5
REMARK    4  A    between atoms: N_11  and  C_12
REMARK    5  A    between atoms: N_13  and  C_14
REMARK                            x       y       z     vdW  Elec       q    Type
REMARK                         _______ _______ _______ _____ _____    ______ ____
ROOT
ATOM      1  C   UNL     1       2.780   3.644  18.429  0.00  0.00    +0.000 A 
ATOM      2  C   UNL     1       3.630   3.240  17.399  0.00  0.00    +0.000 A 
ATOM      3  C   UNL     1       4.292   4.413  16.956  0.00  0.00    +0.000 A 
ATOM      4  C   UNL     1       3.867   5.463  17.701  0.00  0.00    +0.000 A 
ATOM      5  C   UNL     1       4.532   6.640  17.272  0.00  0.00    +0.000 A 
ATOM      6  C   UNL     1       5.353   6.227  16.240  0.00  0.00    +0.000 A 
ATOM      7  N   UNL     1       5.204   4.877  16.043  0.00  0.00    +0.000 N 
ATOM      8  C   UNL     1       5.855   4.061  15.052  0.00  0.00    +0.000 C 
ATOM      9  N   UNL     1       2.946   5.009  18.608  0.00  0.00    +0.000 N 
ATOM     10  C   UNL     1       2.288   5.856  19.572  0.00  0.00    +0.000 C 
ENDROOT
BRANCH   1  11
ATOM     11  C   UNL     1       1.858   2.844  19.219  0.00  0.00    +0.000 C 
ATOM     12  O   UNL     1       0.720   2.539  18.887  0.00  0.00    +0.000 OA
BRANCH  11  14
ATOM     13  C   UNL     1       1.605   2.715  21.535  0.00  0.00    +0.000 C 
ATOM     14  O   UNL     1       2.436   2.476  20.399  0.00  0.00    +0.000 OA
ENDBRANCH  11  14
ENDBRANCH   1  11
TORSDOF 2
ENDMDL
MODEL 6
REMARK VINA RESULT:      -5.7      1.618      1.996
REMARK  Name = 
REMARK  5 active torsions:
REMARK  status: ('A' for Active; 'I' for Inactive)
REMARK    1  A    between atoms: C_1  and  O_2
REMARK    2  A    between atoms: O_2  and  C_3
REMARK    3  A    between atoms: C_3  and  C_5
REMARK    4  A    between atoms: N_11  and  C_12
REMARK    5  A    between atoms: N_13  and  C_14
REMARK                            x       y       z     vdW  Elec       q    Type
REMARK                         _______ _______ _______ _____ _____    ______ ____
ROOT
ATOM      1  C   UNL     1       5.235   4.528  18.376  0.00  0.00    +0.000 A 
ATOM      2  C   UNL     1       4.721   3.606  19.287  0.00  0.00    +0.000 A 
ATOM      3  C   UNL     1       3.528   4.179  19.795  0.00  0.00    +0.000 A 
ATOM      4  C   UNL     1       3.332   5.382  19.197  0.00  0.00    +0.000 A 
ATOM      5  C   UNL     1       2.135   5.959  19.692  0.00  0.00    +0.000 A 
ATOM      6  C   UNL     1       1.651   5.043  20.606  0.00  0.00    +0.000 A 
ATOM      7  N   UNL     1       2.498   3.966  20.675  0.00  0.00    +0.000 N 
ATOM      8  C   UNL     1       2.374   2.808  21.521  0.00  0.00    +0.000 C 
ATOM      9  N   UNL     1       4.364   5.607  18.325  0.00  0.00    +0.000 N 
ATOM     10  C   UNL     1       4.477   6.791  17.509  0.00  0.00    +0.000 C 
ENDROOT
BRANCH   1  11
ATOM     11  C   UNL     1       6.451   4.451  17.583  0.00  0.00    +0.000 C 
ATOM     12  O   UNL     1       6.497   4.345  16.365  0.00  0.00    +0.000 OA
BRANCH  11  14
ATOM     13  C   UNL     1       7.814   5.820  18.892  0.00  0.00    +0.000 C 
ATOM     14  O   UNL     1       7.550   4.509  18.389  0.00  0.00    +0.000 OA
ENDBRANCH  11  14
ENDBRANCH   1  11
TORSDOF 2
ENDMDL
MODEL 7
REMARK VINA RESULT:      -5.7      3.492      5.081
REMARK  Name = 
REMARK  5 active torsions:
REMARK  status: ('A' for Active; 'I' for Inactive)
REMARK    1  A    between atoms: C_1  and  O_2
REMARK    2  A    between atoms: O_2  and  C_3
REMARK    3  A    between atoms: C_3  and  C_5
REMARK    4  A    between atoms: N_11  and  C_12
REMARK    5  A    between atoms: N_13  and  C_14
REMARK                            x       y       z     vdW  Elec       q    Type
REMARK                         _______ _______ _______ _____ _____    ______ ____
ROOT
ATOM      1  C   UNL     1       2.030   3.674  18.674  0.00  0.00    +0.000 A 
ATOM      2  C   UNL     1       2.154   5.042  18.430  0.00  0.00    +0.000 A 
ATOM      3  C   UNL     1       3.397   5.211  17.769  0.00  0.00    +0.000 A 
ATOM      4  C   UNL     1       3.977   3.995  17.612  0.00  0.00    +0.000 A 
ATOM      5  C   UNL     1       5.218   4.152  16.942  0.00  0.00    +0.000 A 
ATOM      6  C   UNL     1       5.333   5.513  16.726  0.00  0.00    +0.000 A 
ATOM      7  N   UNL     1       4.233   6.157  17.233  0.00  0.00    +0.000 N 
ATOM      8  C   UNL     1       3.974   7.573  17.239  0.00  0.00    +0.000 C 
ATOM      9  N   UNL     1       3.153   3.045  18.156  0.00  0.00    +0.000 N 
ATOM     10  C   UNL     1       3.452   1.634  18.160  0.00  0.00    +0.000 C 
ENDROOT
BRANCH   1  11
ATOM     11  C   UNL     1       0.955   2.958  19.342  0.00  0.00    +0.000 C 
ATOM     12  O   UNL     1       0.219   2.134  18.815  0.00  0.00    +0.000 OA
BRANCH  11  14
ATOM     13  C   UNL     1       1.784   2.630  21.498  0.00  0.00    +0.000 C 
ATOM     14  O   UNL     1       0.874   3.332  20.651  0.00  0.00    +0.000 OA
ENDBRANCH  11  14
ENDBRANCH   1  11
TORSDOF 2
ENDMDL
MODEL 8
REMARK VINA RESULT:      -5.6      1.602      2.234
REMARK  Name = 
REMARK  5 active torsions:
REMARK  status: ('A' for Active; 'I' for Inactive)
REMARK    1  A    between atoms: C_1  and  O_2
REMARK    2  A    between atoms: O_2  and  C_3
REMARK    3  A    between atoms: C_3  and  C_5
REMARK    4  A    between atoms: N_11  and  C_12
REMARK    5  A    between atoms: N_13  and  C_14
REMARK                            x       y       z     vdW  Elec       q    Type
REMARK                         _______ _______ _______ _____ _____    ______ ____
ROOT
ATOM      1  C   UNL     1       5.452   4.543  17.952  0.00  0.00    +0.000 A 
ATOM      2  C   UNL     1       4.885   3.648  18.860  0.00  0.00    +0.000 A 
ATOM      3  C   UNL     1       3.796   4.333  19.456  0.00  0.00    +0.000 A 
ATOM      4  C   UNL     1       3.709   5.573  18.913  0.00  0.00    +0.000 A 
ATOM      5  C   UNL     1       2.615   6.263  19.496  0.00  0.00    +0.000 A 
ATOM      6  C   UNL     1       2.078   5.371  20.406  0.00  0.00    +0.000 A 
ATOM      7  N   UNL     1       2.797   4.202  20.387  0.00  0.00    +0.000 N 
ATOM      8  C   UNL     1       2.586   3.032  21.198  0.00  0.00    +0.000 C 
ATOM      9  N   UNL     1       4.711   5.716  17.990  0.00  0.00    +0.000 N 
ATOM     10  C   UNL     1       4.917   6.911  17.211  0.00  0.00    +0.000 C 
ENDROOT
BRANCH   1  11
ATOM     11  C   UNL     1       6.607   4.360  17.087  0.00  0.00    +0.000 C 
ATOM     12  O   UNL     1       7.765   4.621  17.387  0.00  0.00    +0.000 OA
BRANCH  11  14
ATOM     13  C   UNL     1       6.765   4.568  14.769  0.00  0.00    +0.000 C 
ATOM     14  O   UNL     1       6.223   3.854  15.880  0.00  0.00    +0.000 OA
ENDBRANCH  11  14
ENDBRANCH   1  11
TORSDOF 2
ENDMDL
MODEL 9
REMARK VINA RESULT:      -5.6      1.697      2.053
REMARK  Name = 
REMARK  5 active torsions:
REMARK  status: ('A' for Active; 'I' for Inactive)
REMARK    1  A    between atoms: C_1  and  O_2
REMARK    2  A    between atoms: O_2  and  C_3
REMARK    3  A    between atoms: C_3  and  C_5
REMARK    4  A    between atoms: N_11  and  C_12
REMARK    5  A    between atoms: N_13  and  C_14
REMARK                            x       y       z     vdW  Elec       q    Type
REMARK                         _______ _______ _______ _____ _____    ______ ____
ROOT
ATOM      1  C   UNL     1       5.666   5.372  17.255  0.00  0.00    +0.000 A 
ATOM      2  C   UNL     1       5.484   4.015  17.519  0.00  0.00    +0.000 A 
ATOM      3  C   UNL     1       4.105   3.854  17.807  0.00  0.00    +0.000 A 
ATOM      4  C   UNL     1       3.492   5.059  17.700  0.00  0.00    +0.000 A 
ATOM      5  C   UNL     1       2.110   4.906  17.976  0.00  0.00    +0.000 A 
ATOM      6  C   UNL     1       1.951   3.562  18.255  0.00  0.00    +0.000 A 
ATOM      7  N   UNL     1       3.161   2.923  18.159  0.00  0.00    +0.000 N 
ATOM      8  C   UNL     1       3.437   1.531  18.397  0.00  0.00    +0.000 C 
ATOM      9  N   UNL     1       4.432   5.997  17.360  0.00  0.00    +0.000 N 
ATOM     10  C   UNL     1       4.131   7.392  17.154  0.00  0.00    +0.000 C 
ENDROOT
BRANCH   1  11
ATOM     11  C   UNL     1       6.891   6.083  16.923  0.00  0.00    +0.000 C 
ATOM     12  O   UNL     1       7.439   6.076  15.829  0.00  0.00    +0.000 OA
BRANCH  11  14
ATOM     13  C   UNL     1       7.812   8.083  17.695  0.00  0.00    +0.000 C 
ATOM     14  O   UNL     1       7.355   6.767  18.008  0.00  0.00    +0.000 OA
ENDBRANCH  11  14
ENDBRANCH   1  11
TORSDOF 2
ENDMDL
