MODEL 1
REMARK VINA RESULT:      -7.1      0.000      0.000
REMARK  Name = 
REMARK  6 active torsions:
REMARK  status: ('A' for Active; 'I' for Inactive)
REMARK    1  A    between atoms: C_1  and  C_2
REMARK    2  A    between atoms: N_4  and  C_5
REMARK    3  A    between atoms: C_5  and  C_6
REMARK    4  A    between atoms: N_8  and  C_9
REMARK    5  A    between atoms: C_12  and  N_13
REMARK    6  A    between atoms: C_20  and  C_21
REMARK                            x       y       z     vdW  Elec       q    Type
REMARK                         _______ _______ _______ _____ _____    ______ ____
ROOT
ATOM      1  C   UNL     1       2.692   4.886  17.652  0.00  0.00    +0.000 C 
ATOM      2  O   UNL     1       1.478   4.698  17.608  0.00  0.00    +0.000 OA
ATOM      3  N   UNL     1       3.285   6.013  18.205  0.00  0.00    +0.000 N 
ATOM      4  H   UNL     1       4.181   6.271  17.801  0.00  0.00    +0.000 HD
ENDROOT
BRANCH   3   5
ATOM      5  C   UNL     1       2.540   6.991  18.886  0.00  0.00    +0.000 A 
ATOM      6  C   UNL     1       2.324   8.239  18.283  0.00  0.00    +0.000 A 
ATOM      7  C   UNL     1       1.578   9.219  18.938  0.00  0.00    +0.000 A 
ATOM      8  C   UNL     1       1.058   8.950  20.209  0.00  0.00    +0.000 A 
ATOM      9  C   UNL     1       1.262   7.710  20.822  0.00  0.00    +0.000 A 
ATOM     10  C   UNL     1       1.994   6.728  20.150  0.00  0.00    +0.000 A 
ATOM     11 BR   UNL     1       2.367   5.104  21.061  0.00  0.00    +0.000 Br
BRANCH   8  12
ATOM     12  N   UNL     1       0.293   9.993  20.915  0.00  0.00    +0.000 N 
ATOM     13  O   UNL     1       0.720  10.377  22.014  0.00  0.00    +0.000 OA
ATOM     14  O   UNL     1      -0.727  10.419  20.368  0.00  0.00    +0.000 OA
ENDBRANCH   8  12
ENDBRANCH   3   5
BRANCH   1  15
ATOM     15  C   UNL     1       3.680   3.895  17.021  0.00  0.00    +0.000 C 
BRANCH  15  19
ATOM     16  C   UNL     1       7.327   6.248  17.702  0.00  0.00    +0.000 C 
ATOM     17  C   UNL     1       7.379   4.768  17.315  0.00  0.00    +0.000 C 
ATOM     18  C   UNL     1       6.054   4.040  17.608  0.00  0.00    +0.000 C 
ATOM     19  N   UNL     1       4.975   4.541  16.721  0.00  0.00    +0.000 NA
ATOM     20  C   UNL     1       5.396   4.269  15.328  0.00  0.00    +0.000 C 
ATOM     21  C   UNL     1       6.728   4.992  15.021  0.00  0.00    +0.000 C 
ATOM     22  C   UNL     1       7.204   4.681  13.609  0.00  0.00    +0.000 C 
ATOM     23  O   UNL     1       7.763   4.596  15.939  0.00  0.00    +0.000 OA
ENDBRANCH  15  19
ENDBRANCH   1  15
TORSDOF 4
ENDMDL
MODEL 2
REMARK VINA RESULT:      -6.9      1.529      1.982
REMARK  Name = 
REMARK  6 active torsions:
REMARK  status: ('A' for Active; 'I' for Inactive)
REMARK    1  A    between atoms: C_1  and  C_2
REMARK    2  A    between atoms: N_4  and  C_5
REMARK    3  A    between atoms: C_5  and  C_6
REMARK    4  A    between atoms: N_8  and  C_9
REMARK    5  A    between atoms: C_12  and  N_13
REMARK    6  A    between atoms: C_20  and  C_21
REMARK                            x       y       z     vdW  Elec       q    Type
REMARK                         _______ _______ _______ _____ _____    ______ ____
ROOT
ATOM      1  C   UNL     1       2.730   5.278  18.956  0.00  0.00    +0.000 C 
ATOM      2  O   UNL     1       1.652   5.128  18.386  0.00  0.00    +0.000 OA
ATOM      3  N   UNL     1       3.066   6.401  19.701  0.00  0.00    +0.000 N 
ATOM      4  H   UNL     1       4.058   6.620  19.727  0.00  0.00    +0.000 HD
ENDROOT
BRANCH   3   5
ATOM      5  C   UNL     1       2.138   7.420  19.976  0.00  0.00    +0.000 A 
ATOM      6  C   UNL     1       1.393   7.374  21.163  0.00  0.00    +0.000 A 
ATOM      7  C   UNL     1       0.475   8.382  21.460  0.00  0.00    +0.000 A 
ATOM      8  C   UNL     1       0.294   9.432  20.553  0.00  0.00    +0.000 A 
ATOM      9  C   UNL     1       1.031   9.494  19.366  0.00  0.00    +0.000 A 
ATOM     10  C   UNL     1       1.963   8.491  19.088  0.00  0.00    +0.000 A 
ATOM     11 BR   UNL     1       2.851   8.530  17.411  0.00  0.00    +0.000 Br
BRANCH   8  12
ATOM     12  N   UNL     1      -0.695  10.484  20.850  0.00  0.00    +0.000 N 
ATOM     13  O   UNL     1      -1.225  11.063  19.891  0.00  0.00    +0.000 OA
ATOM     14  O   UNL     1      -0.934  10.721  22.036  0.00  0.00    +0.000 OA
ENDBRANCH   8  12
ENDBRANCH   3   5
BRANCH   1  15
ATOM     15  C   UNL     1       3.854   4.241  18.832  0.00  0.00    +0.000 C 
BRANCH  15  19
ATOM     16  C   UNL     1       7.377   6.634  17.753  0.00  0.00    +0.000 C 
ATOM     17  C   UNL     1       7.423   5.105  17.810  0.00  0.00    +0.000 C 
ATOM     18  C   UNL     1       6.282   4.516  18.661  0.00  0.00    +0.000 C 
ATOM     19  N   UNL     1       4.970   4.749  18.008  0.00  0.00    +0.000 NA
ATOM     20  C   UNL     1       5.012   4.071  16.692  0.00  0.00    +0.000 C 
ATOM     21  C   UNL     1       6.157   4.650  15.829  0.00  0.00    +0.000 C 
ATOM     22  C   UNL     1       6.250   3.928  14.491  0.00  0.00    +0.000 C 
ATOM     23  O   UNL     1       7.428   4.527  16.492  0.00  0.00    +0.000 OA
ENDBRANCH  15  19
ENDBRANCH   1  15
TORSDOF 4
ENDMDL
MODEL 3
REMARK VINA RESULT:      -6.9      2.537      8.098
REMARK  Name = 
REMARK  6 active torsions:
REMARK  status: ('A' for Active; 'I' for Inactive)
REMARK    1  A    between atoms: C_1  and  C_2
REMARK    2  A    between atoms: N_4  and  C_5
REMARK    3  A    between atoms: C_5  and  C_6
REMARK    4  A    between atoms: N_8  and  C_9
REMARK    5  A    between atoms: C_12  and  N_13
REMARK    6  A    between atoms: C_20  and  C_21
REMARK                            x       y       z     vdW  Elec       q    Type
REMARK                         _______ _______ _______ _____ _____    ______ ____
ROOT
ATOM      1  C   UNL     1       2.220   8.271  18.402  0.00  0.00    +0.000 C 
ATOM      2  O   UNL     1       2.325   8.749  17.274  0.00  0.00    +0.000 OA
ATOM      3  N   UNL     1       2.844   7.101  18.812  0.00  0.00    +0.000 N 
ATOM      4  H   UNL     1       2.358   6.585  19.540  0.00  0.00    +0.000 HD
ENDROOT
BRANCH   3   5
ATOM      5  C   UNL     1       3.766   6.421  17.997  0.00  0.00    +0.000 A 
ATOM      6  C   UNL     1       4.975   7.042  17.654  0.00  0.00    +0.000 A 
ATOM      7  C   UNL     1       5.907   6.379  16.855  0.00  0.00    +0.000 A 
ATOM      8  C   UNL     1       5.617   5.093  16.387  0.00  0.00    +0.000 A 
ATOM      9  C   UNL     1       4.417   4.458  16.722  0.00  0.00    +0.000 A 
ATOM     10  C   UNL     1       3.499   5.123  17.540  0.00  0.00    +0.000 A 
ATOM     11 BR   UNL     1       1.823   4.292  17.868  0.00  0.00    +0.000 Br
BRANCH   8  12
ATOM     12  N   UNL     1       6.587   4.401  15.520  0.00  0.00    +0.000 N 
ATOM     13  O   UNL     1       6.142   3.619  14.667  0.00  0.00    +0.000 OA
ATOM     14  O   UNL     1       7.783   4.644  15.697  0.00  0.00    +0.000 OA
ENDBRANCH   8  12
ENDBRANCH   3   5
BRANCH   1  15
ATOM     15  C   UNL     1       1.310   8.909  19.461  0.00  0.00    +0.000 C 
BRANCH  15  19
ATOM     16  C   UNL     1      -1.936  11.006  17.372  0.00  0.00    +0.000 C 
ATOM     17  C   UNL     1      -1.622  11.266  18.847  0.00  0.00    +0.000 C 
ATOM     18  C   UNL     1      -0.821  10.116  19.487  0.00  0.00    +0.000 C 
ATOM     19  N   UNL     1       0.541  10.040  18.903  0.00  0.00    +0.000 NA
ATOM     20  C   UNL     1       1.209  11.330  19.186  0.00  0.00    +0.000 C 
ATOM     21  C   UNL     1       0.413  12.494  18.553  0.00  0.00    +0.000 C 
ATOM     22  C   UNL     1       1.056  13.836  18.879  0.00  0.00    +0.000 C 
ATOM     23  O   UNL     1      -0.944  12.523  19.030  0.00  0.00    +0.000 OA
ENDBRANCH  15  19
ENDBRANCH   1  15
TORSDOF 4
ENDMDL
MODEL 4
REMARK VINA RESULT:      -6.8      3.069      7.864
REMARK  Name = 
REMARK  6 active torsions:
REMARK  status: ('A' for Active; 'I' for Inactive)
REMARK    1  A    between atoms: C_1  and  C_2
REMARK    2  A    between atoms: N_4  and  C_5
REMARK    3  A    between atoms: C_5  and  C_6
REMARK    4  A    between atoms: N_8  and  C_9
REMARK    5  A    between atoms: C_12  and  N_13
REMARK    6  A    between atoms: C_20  and  C_21
REMARK                            x       y       z     vdW  Elec       q    Type
REMARK                         _______ _______ _______ _____ _____    ______ ____
ROOT
ATOM      1  C   UNL     1       2.203   8.140  18.568  0.00  0.00    +0.000 C 
ATOM      2  O   UNL     1       2.082   7.936  19.774  0.00  0.00    +0.000 OA
ATOM      3  N   UNL     1       2.763   7.233  17.679  0.00  0.00    +0.000 N 
ATOM      4  H   UNL     1       3.212   7.647  16.866  0.00  0.00    +0.000 HD
ENDROOT
BRANCH   3   5
ATOM      5  C   UNL     1       3.129   5.933  18.069  0.00  0.00    +0.000 A 
ATOM      6  C   UNL     1       2.159   5.074  18.605  0.00  0.00    +0.000 A 
ATOM      7  C   UNL     1       2.501   3.776  18.988  0.00  0.00    +0.000 A 
ATOM      8  C   UNL     1       3.824   3.345  18.845  0.00  0.00    +0.000 A 
ATOM      9  C   UNL     1       4.803   4.189  18.309  0.00  0.00    +0.000 A 
ATOM     10  C   UNL     1       4.446   5.480  17.909  0.00  0.00    +0.000 A 
ATOM     11 BR   UNL     1       5.820   6.646  17.311  0.00  0.00    +0.000 Br
BRANCH   8  12
ATOM     12  N   UNL     1       4.194   1.985  19.273  0.00  0.00    +0.000 N 
ATOM     13  O   UNL     1       4.927   1.874  20.268  0.00  0.00    +0.000 OA
ATOM     14  O   UNL     1       3.751   1.041  18.616  0.00  0.00    +0.000 OA
ENDBRANCH   8  12
ENDBRANCH   3   5
BRANCH   1  15
ATOM     15  C   UNL     1       1.796   9.478  17.937  0.00  0.00    +0.000 C 
BRANCH  15  19
ATOM     16  C   UNL     1      -0.469  11.521  21.099  0.00  0.00    +0.000 C 
ATOM     17  C   UNL     1      -0.356  12.095  19.684  0.00  0.00    +0.000 C 
ATOM     18  C   UNL     1       0.843  11.514  18.911  0.00  0.00    +0.000 C 
ATOM     19  N   UNL     1       0.634  10.072  18.630  0.00  0.00    +0.000 NA
ATOM     20  C   UNL     1      -0.592   9.961  17.807  0.00  0.00    +0.000 C 
ATOM     21  C   UNL     1      -1.803  10.545  18.570  0.00  0.00    +0.000 C 
ATOM     22  C   UNL     1      -3.063  10.490  17.717  0.00  0.00    +0.000 C 
ATOM     23  O   UNL     1      -1.577  11.916  18.943  0.00  0.00    +0.000 OA
ENDBRANCH  15  19
ENDBRANCH   1  15
TORSDOF 4
ENDMDL
MODEL 5
REMARK VINA RESULT:      -6.5      3.263      7.421
REMARK  Name = 
REMARK  6 active torsions:
REMARK  status: ('A' for Active; 'I' for Inactive)
REMARK    1  A    between atoms: C_1  and  C_2
REMARK    2  A    between atoms: N_4  and  C_5
REMARK    3  A    between atoms: C_5  and  C_6
REMARK    4  A    between atoms: N_8  and  C_9
REMARK    5  A    between atoms: C_12  and  N_13
REMARK    6  A    between atoms: C_20  and  C_21
REMARK                            x       y       z     vdW  Elec       q    Type
REMARK                         _______ _______ _______ _____ _____    ______ ____
ROOT
ATOM      1  C   UNL     1       3.831   6.159  18.251  0.00  0.00    +0.000 C 
ATOM      2  O   UNL     1       3.531   7.061  17.472  0.00  0.00    +0.000 OA
ATOM      3  N   UNL     1       4.719   5.135  17.951  0.00  0.00    +0.000 N 
ATOM      4  H   UNL     1       4.550   4.260  18.438  0.00  0.00    +0.000 HD
ENDROOT
BRANCH   3   5
ATOM      5  C   UNL     1       5.460   5.115  16.756  0.00  0.00    +0.000 A 
ATOM      6  C   UNL     1       4.930   4.474  15.627  0.00  0.00    +0.000 A 
ATOM      7  C   UNL     1       5.645   4.452  14.428  0.00  0.00    +0.000 A 
ATOM      8  C   UNL     1       6.901   5.065  14.368  0.00  0.00    +0.000 A 
ATOM      9  C   UNL     1       7.441   5.711  15.485  0.00  0.00    +0.000 A 
ATOM     10  C   UNL     1       6.709   5.745  16.674  0.00  0.00    +0.000 A 
ATOM     11 BR   UNL     1       7.523   6.512  18.209  0.00  0.00    +0.000 Br
BRANCH   8  12
ATOM     12  N   UNL     1       7.671   5.020  13.112  0.00  0.00    +0.000 N 
ATOM     13  O   UNL     1       7.263   4.270  12.213  0.00  0.00    +0.000 OA
ATOM     14  O   UNL     1       8.672   5.735  13.033  0.00  0.00    +0.000 OA
ENDBRANCH   8  12
ENDBRANCH   3   5
BRANCH   1  15
ATOM     15  C   UNL     1       3.179   6.046  19.636  0.00  0.00    +0.000 C 
BRANCH  15  19
ATOM     16  C   UNL     1       3.145   2.180  21.722  0.00  0.00    +0.000 C 
ATOM     17  C   UNL     1       1.894   3.056  21.621  0.00  0.00    +0.000 C 
ATOM     18  C   UNL     1       2.233   4.526  21.308  0.00  0.00    +0.000 C 
ATOM     19  N   UNL     1       2.794   4.653  19.940  0.00  0.00    +0.000 NA
ATOM     20  C   UNL     1       1.760   4.167  18.998  0.00  0.00    +0.000 C 
ATOM     21  C   UNL     1       1.408   2.693  19.305  0.00  0.00    +0.000 C 
ATOM     22  C   UNL     1       0.306   2.193  18.380  0.00  0.00    +0.000 C 
ATOM     23  O   UNL     1       0.958   2.533  20.662  0.00  0.00    +0.000 OA
ENDBRANCH  15  19
ENDBRANCH   1  15
TORSDOF 4
ENDMDL
MODEL 6
REMARK VINA RESULT:      -6.5      1.320      1.718
REMARK  Name = 
REMARK  6 active torsions:
REMARK  status: ('A' for Active; 'I' for Inactive)
REMARK    1  A    between atoms: C_1  and  C_2
REMARK    2  A    between atoms: N_4  and  C_5
REMARK    3  A    between atoms: C_5  and  C_6
REMARK    4  A    between atoms: N_8  and  C_9
REMARK    5  A    between atoms: C_12  and  N_13
REMARK    6  A    between atoms: C_20  and  C_21
REMARK                            x       y       z     vdW  Elec       q    Type
REMARK                         _______ _______ _______ _____ _____    ______ ____
ROOT
ATOM      1  C   UNL     1       2.663   4.627  17.796  0.00  0.00    +0.000 C 
ATOM      2  O   UNL     1       1.449   4.457  17.698  0.00  0.00    +0.000 OA
ATOM      3  N   UNL     1       3.248   5.631  18.556  0.00  0.00    +0.000 N 
ATOM      4  H   UNL     1       4.152   5.954  18.221  0.00  0.00    +0.000 HD
ENDROOT
BRANCH   3   5
ATOM      5  C   UNL     1       2.493   6.472  19.391  0.00  0.00    +0.000 A 
ATOM      6  C   UNL     1       1.949   5.959  20.578  0.00  0.00    +0.000 A 
ATOM      7  C   UNL     1       1.205   6.782  21.426  0.00  0.00    +0.000 A 
ATOM      8  C   UNL     1       0.996   8.119  21.073  0.00  0.00    +0.000 A 
ATOM      9  C   UNL     1       1.534   8.646  19.895  0.00  0.00    +0.000 A 
ATOM     10  C   UNL     1       2.294   7.820  19.063  0.00  0.00    +0.000 A 
ATOM     11 BR   UNL     1       2.899   8.526  17.407  0.00  0.00    +0.000 Br
BRANCH   8  12
ATOM     12  N   UNL     1       0.188   8.983  21.953  0.00  0.00    +0.000 N 
ATOM     13  O   UNL     1       0.628  10.114  22.211  0.00  0.00    +0.000 OA
ATOM     14  O   UNL     1      -0.876   8.527  22.377  0.00  0.00    +0.000 OA
ENDBRANCH   8  12
ENDBRANCH   3   5
BRANCH   1  15
ATOM     15  C   UNL     1       3.659   3.763  17.012  0.00  0.00    +0.000 C 
BRANCH  15  19
ATOM     16  C   UNL     1       7.097   6.406  17.719  0.00  0.00    +0.000 C 
ATOM     17  C   UNL     1       7.272   4.928  17.361  0.00  0.00    +0.000 C 
ATOM     18  C   UNL     1       6.002   4.103  17.643  0.00  0.00    +0.000 C 
ATOM     19  N   UNL     1       4.906   4.502  16.725  0.00  0.00    +0.000 NA
ATOM     20  C   UNL     1       5.376   4.240  15.346  0.00  0.00    +0.000 C 
ATOM     21  C   UNL     1       6.654   5.059  15.052  0.00  0.00    +0.000 C 
ATOM     22  C   UNL     1       7.183   4.760  13.655  0.00  0.00    +0.000 C 
ATOM     23  O   UNL     1       7.697   4.761  15.996  0.00  0.00    +0.000 OA
ENDBRANCH  15  19
ENDBRANCH   1  15
TORSDOF 4
ENDMDL
MODEL 7
REMARK VINA RESULT:      -6.5      1.785      2.780
REMARK  Name = 
REMARK  6 active torsions:
REMARK  status: ('A' for Active; 'I' for Inactive)
REMARK    1  A    between atoms: C_1  and  C_2
REMARK    2  A    between atoms: N_4  and  C_5
REMARK    3  A    between atoms: C_5  and  C_6
REMARK    4  A    between atoms: N_8  and  C_9
REMARK    5  A    between atoms: C_12  and  N_13
REMARK    6  A    between atoms: C_20  and  C_21
REMARK                            x       y       z     vdW  Elec       q    Type
REMARK                         _______ _______ _______ _____ _____    ______ ____
ROOT
ATOM      1  C   UNL     1       2.525   5.192  19.546  0.00  0.00    +0.000 C 
ATOM      2  O   UNL     1       1.458   4.976  18.975  0.00  0.00    +0.000 OA
ATOM      3  N   UNL     1       2.870   6.410  20.115  0.00  0.00    +0.000 N 
ATOM      4  H   UNL     1       3.867   6.610  20.136  0.00  0.00    +0.000 HD
ENDROOT
BRANCH   3   5
ATOM      5  C   UNL     1       1.961   7.479  20.200  0.00  0.00    +0.000 A 
ATOM      6  C   UNL     1       1.125   7.587  21.320  0.00  0.00    +0.000 A 
ATOM      7  C   UNL     1       0.224   8.647  21.428  0.00  0.00    +0.000 A 
ATOM      8  C   UNL     1       0.153   9.594  20.400  0.00  0.00    +0.000 A 
ATOM      9  C   UNL     1       0.983   9.502  19.278  0.00  0.00    +0.000 A 
ATOM     10  C   UNL     1       1.896   8.448  19.189  0.00  0.00    +0.000 A 
ATOM     11 BR   UNL     1       2.914   8.274  17.596  0.00  0.00    +0.000 Br
BRANCH   8  12
ATOM     12  N   UNL     1      -0.816  10.699  20.498  0.00  0.00    +0.000 N 
ATOM     13  O   UNL     1      -1.401  11.046  19.461  0.00  0.00    +0.000 OA
ATOM     14  O   UNL     1      -0.986  11.210  21.608  0.00  0.00    +0.000 OA
ENDBRANCH   8  12
ENDBRANCH   3   5
BRANCH   1  15
ATOM     15  C   UNL     1       3.625   4.124  19.619  0.00  0.00    +0.000 C 
BRANCH  15  19
ATOM     16  C   UNL     1       5.764   3.702  15.805  0.00  0.00    +0.000 C 
ATOM     17  C   UNL     1       5.183   5.042  16.263  0.00  0.00    +0.000 C 
ATOM     18  C   UNL     1       4.087   4.870  17.332  0.00  0.00    +0.000 C 
ATOM     19  N   UNL     1       4.666   4.350  18.595  0.00  0.00    +0.000 NA
ATOM     20  C   UNL     1       5.663   5.342  19.058  0.00  0.00    +0.000 C 
ATOM     21  C   UNL     1       6.767   5.528  17.993  0.00  0.00    +0.000 C 
ATOM     22  C   UNL     1       7.772   6.585  18.428  0.00  0.00    +0.000 C 
ATOM     23  O   UNL     1       6.213   5.933  16.728  0.00  0.00    +0.000 OA
ENDBRANCH  15  19
ENDBRANCH   1  15
TORSDOF 4
ENDMDL
MODEL 8
REMARK VINA RESULT:      -6.4      3.289      7.881
REMARK  Name = 
REMARK  6 active torsions:
REMARK  status: ('A' for Active; 'I' for Inactive)
REMARK    1  A    between atoms: C_1  and  C_2
REMARK    2  A    between atoms: N_4  and  C_5
REMARK    3  A    between atoms: C_5  and  C_6
REMARK    4  A    between atoms: N_8  and  C_9
REMARK    5  A    between atoms: C_12  and  N_13
REMARK    6  A    between atoms: C_20  and  C_21
REMARK                            x       y       z     vdW  Elec       q    Type
REMARK                         _______ _______ _______ _____ _____    ______ ____
ROOT
ATOM      1  C   UNL     1       1.853   8.446  18.930  0.00  0.00    +0.000 C 
ATOM      2  O   UNL     1       1.798   8.473  20.157  0.00  0.00    +0.000 OA
ATOM      3  N   UNL     1       2.372   7.387  18.198  0.00  0.00    +0.000 N 
ATOM      4  H   UNL     1       2.775   7.639  17.299  0.00  0.00    +0.000 HD
ENDROOT
BRANCH   3   5
ATOM      5  C   UNL     1       2.768   6.182  18.805  0.00  0.00    +0.000 A 
ATOM      6  C   UNL     1       1.914   5.561  19.728  0.00  0.00    +0.000 A 
ATOM      7  C   UNL     1       2.284   4.359  20.333  0.00  0.00    +0.000 A 
ATOM      8  C   UNL     1       3.522   3.787  20.021  0.00  0.00    +0.000 A 
ATOM      9  C   UNL     1       4.384   4.393  19.100  0.00  0.00    +0.000 A 
ATOM     10  C   UNL     1       3.995   5.586  18.484  0.00  0.00    +0.000 A 
ATOM     11 BR   UNL     1       5.239   6.453  17.342  0.00  0.00    +0.000 Br
BRANCH   8  12
ATOM     12  N   UNL     1       3.928   2.532  20.678  0.00  0.00    +0.000 N 
ATOM     13  O   UNL     1       3.290   2.175  21.680  0.00  0.00    +0.000 OA
ATOM     14  O   UNL     1       4.877   1.915  20.190  0.00  0.00    +0.000 OA
ENDBRANCH   8  12
ENDBRANCH   3   5
BRANCH   1  15
ATOM     15  C   UNL     1       1.404   9.643  18.081  0.00  0.00    +0.000 C 
BRANCH  15  19
ATOM     16  C   UNL     1      -1.323  11.809  20.759  0.00  0.00    +0.000 C 
ATOM     17  C   UNL     1      -1.084  12.254  19.315  0.00  0.00    +0.000 C 
ATOM     18  C   UNL     1       0.228  11.689  18.737  0.00  0.00    +0.000 C 
ATOM     19  N   UNL     1       0.138  10.216  18.582  0.00  0.00    +0.000 NA
ATOM     20  C   UNL     1      -0.977   9.944  17.647  0.00  0.00    +0.000 C 
ATOM     21  C   UNL     1      -2.300  10.510  18.213  0.00  0.00    +0.000 C 
ATOM     22  C   UNL     1      -3.449  10.288  17.239  0.00  0.00    +0.000 C 
ATOM     23  O   UNL     1      -2.199  11.923  18.468  0.00  0.00    +0.000 OA
ENDBRANCH  15  19
ENDBRANCH   1  15
TORSDOF 4
ENDMDL
MODEL 9
REMARK VINA RESULT:      -6.4      3.612      8.056
REMARK  Name = 
REMARK  6 active torsions:
REMARK  status: ('A' for Active; 'I' for Inactive)
REMARK    1  A    between atoms: C_1  and  C_2
REMARK    2  A    between atoms: N_4  and  C_5
REMARK    3  A    between atoms: C_5  and  C_6
REMARK    4  A    between atoms: N_8  and  C_9
REMARK    5  A    between atoms: C_12  and  N_13
REMARK    6  A    between atoms: C_20  and  C_21
REMARK                            x       y       z     vdW  Elec       q    Type
REMARK                         _______ _______ _______ _____ _____    ______ ____
ROOT
ATOM      1  C   UNL     1       0.921   8.364  21.340  0.00  0.00    +0.000 C 
ATOM      2  O   UNL     1      -0.223   7.914  21.299  0.00  0.00    +0.000 OA
ATOM      3  N   UNL     1       2.041   7.680  20.886  0.00  0.00    +0.000 N 
ATOM      4  H   UNL     1       2.910   7.915  21.357  0.00  0.00    +0.000 HD
ENDROOT
BRANCH   3   5
ATOM      5  C   UNL     1       1.944   6.449  20.214  0.00  0.00    +0.000 A 
ATOM      6  C   UNL     1       1.558   5.303  20.925  0.00  0.00    +0.000 A 
ATOM      7  C   UNL     1       1.445   4.074  20.274  0.00  0.00    +0.000 A 
ATOM      8  C   UNL     1       1.735   3.993  18.908  0.00  0.00    +0.000 A 
ATOM      9  C   UNL     1       2.118   5.127  18.184  0.00  0.00    +0.000 A 
ATOM     10  C   UNL     1       2.208   6.357  18.841  0.00  0.00    +0.000 A 
ATOM     11 BR   UNL     1       2.859   7.850  17.865  0.00  0.00    +0.000 Br
BRANCH   8  12
ATOM     12  N   UNL     1       1.643   2.691  18.223  0.00  0.00    +0.000 N 
ATOM     13  O   UNL     1       2.635   2.303  17.588  0.00  0.00    +0.000 OA
ATOM     14  O   UNL     1       0.585   2.067  18.327  0.00  0.00    +0.000 OA
ENDBRANCH   8  12
ENDBRANCH   3   5
BRANCH   1  15
ATOM     15  C   UNL     1       1.224   9.727  21.975  0.00  0.00    +0.000 C 
BRANCH  15  19
ATOM     16  C   UNL     1       1.287  12.816  18.853  0.00  0.00    +0.000 C 
ATOM     17  C   UNL     1       0.280  11.663  18.830  0.00  0.00    +0.000 C 
ATOM     18  C   UNL     1       0.737  10.471  19.693  0.00  0.00    +0.000 C 
ATOM     19  N   UNL     1       0.737  10.837  21.131  0.00  0.00    +0.000 NA
ATOM     20  C   UNL     1      -0.652  11.207  21.486  0.00  0.00    +0.000 C 
ATOM     21  C   UNL     1      -1.124  12.400  20.624  0.00  0.00    +0.000 C 
ATOM     22  C   UNL     1      -2.570  12.761  20.938  0.00  0.00    +0.000 C 
ATOM     23  O   UNL     1      -1.034  12.101  19.220  0.00  0.00    +0.000 OA
ENDBRANCH  15  19
ENDBRANCH   1  15
TORSDOF 4
ENDMDL
