MODEL 1
REMARK VINA RESULT:      -7.1      0.000      0.000
REMARK  Name = 
REMARK  8 active torsions:
REMARK  status: ('A' for Active; 'I' for Inactive)
REMARK    1  A    between atoms: C_1  and  C_2
REMARK    2  A    between atoms: C_2  and  C_3
REMARK    3  A    between atoms: C_3  and  C_4
REMARK    4  A    between atoms: C_4  and  O_5
REMARK    5  A    between atoms: O_5  and  C_6
REMARK    6  A    between atoms: C_6  and  C_8
REMARK    7  A    between atoms: C_11  and  N_12
REMARK    8  A    between atoms: C_20  and  O_21
REMARK                            x       y       z     vdW  Elec       q    Type
REMARK                         _______ _______ _______ _____ _____    ______ ____
ROOT
ATOM      1  C   UNL     1       4.032   5.403  18.057  0.00  0.00    +0.000 A 
ATOM      2  C   UNL     1       3.264   5.171  19.200  0.00  0.00    +0.000 A 
ATOM      3  C   UNL     1       2.464   6.191  19.726  0.00  0.00    +0.000 A 
ATOM      4  C   UNL     1       2.431   7.458  19.134  0.00  0.00    +0.000 A 
ATOM      5  C   UNL     1       3.154   7.666  17.955  0.00  0.00    +0.000 A 
ATOM      6  C   UNL     1       3.953   6.647  17.420  0.00  0.00    +0.000 A 
ENDROOT
BRANCH   4   7
ATOM      7  N   UNL     1       1.731   8.563  19.676  0.00  0.00    +0.000 N 
ATOM      8  C   UNL     1       1.116   9.562  18.952  0.00  0.00    +0.000 C 
ATOM      9  O   UNL     1       1.087   9.585  17.721  0.00  0.00    +0.000 OA
ATOM     10  N   UNL     1       0.441  10.530  19.690  0.00  0.00    +0.000 N 
ATOM     11  C   UNL     1      -0.394  11.470  18.939  0.00  0.00    +0.000 C 
ATOM     12  C   UNL     1      -1.762  11.635  19.590  0.00  0.00    +0.000 C 
ATOM     13  C   UNL     1      -1.634  12.022  21.059  0.00  0.00    +0.000 C 
ATOM     14  C   UNL     1      -0.741  11.033  21.806  0.00  0.00    +0.000 C 
ATOM     15  C   UNL     1       0.604  10.807  21.110  0.00  0.00    +0.000 C 
ATOM     16  H   UNL     1       1.438   8.448  20.631  0.00  0.00    +0.000 HD
BRANCH  15  17
ATOM     17  O   UNL     1       1.437  11.944  21.257  0.00  0.00    +0.000 OA
ATOM     18  H   UNL     1       1.124  12.620  20.639  0.00  0.00    +0.000 HD
ENDBRANCH  15  17
ENDBRANCH   4   7
BRANCH   1  19
ATOM     19  C   UNL     1       5.016   4.362  17.645  0.00  0.00    +0.000 C 
ATOM     20  O   UNL     1       4.844   3.567  16.734  0.00  0.00    +0.000 OA
BRANCH  19  21
ATOM     21  O   UNL     1       6.025   4.329  18.550  0.00  0.00    +0.000 OA
BRANCH  21  22
ATOM     22  C   UNL     1       7.280   4.798  18.049  0.00  0.00    +0.000 C 
BRANCH  22  23
ATOM     23  C   UNL     1       7.614   6.181  18.584  0.00  0.00    +0.000 C 
BRANCH  23  25
ATOM     24  C   UNL     1       8.061   8.561  17.858  0.00  0.00    +0.000 C 
ATOM     25  C   UNL     1       7.520   7.204  17.451  0.00  0.00    +0.000 C 
ENDBRANCH  23  25
ENDBRANCH  22  23
ENDBRANCH  21  22
ENDBRANCH  19  21
ENDBRANCH   1  19
TORSDOF 7
ENDMDL
MODEL 2
REMARK VINA RESULT:      -7.0      4.898      6.627
REMARK  Name = 
REMARK  8 active torsions:
REMARK  status: ('A' for Active; 'I' for Inactive)
REMARK    1  A    between atoms: C_1  and  C_2
REMARK    2  A    between atoms: C_2  and  C_3
REMARK    3  A    between atoms: C_3  and  C_4
REMARK    4  A    between atoms: C_4  and  O_5
REMARK    5  A    between atoms: O_5  and  C_6
REMARK    6  A    between atoms: C_6  and  C_8
REMARK    7  A    between atoms: C_11  and  N_12
REMARK    8  A    between atoms: C_20  and  O_21
REMARK                            x       y       z     vdW  Elec       q    Type
REMARK                         _______ _______ _______ _____ _____    ______ ____
ROOT
ATOM      1  C   UNL     1       6.827   5.197  14.799  0.00  0.00    +0.000 A 
ATOM      2  C   UNL     1       5.716   6.037  14.911  0.00  0.00    +0.000 A 
ATOM      3  C   UNL     1       4.861   5.925  16.014  0.00  0.00    +0.000 A 
ATOM      4  C   UNL     1       5.089   4.968  17.007  0.00  0.00    +0.000 A 
ATOM      5  C   UNL     1       6.237   4.172  16.921  0.00  0.00    +0.000 A 
ATOM      6  C   UNL     1       7.099   4.281  15.823  0.00  0.00    +0.000 A 
ENDROOT
BRANCH   4   7
ATOM      7  N   UNL     1       4.207   4.729  18.089  0.00  0.00    +0.000 N 
ATOM      8  C   UNL     1       2.964   4.142  18.001  0.00  0.00    +0.000 C 
ATOM      9  O   UNL     1       2.485   3.725  16.945  0.00  0.00    +0.000 OA
ATOM     10  N   UNL     1       2.283   3.961  19.202  0.00  0.00    +0.000 N 
ATOM     11  C   UNL     1       1.065   3.148  19.155  0.00  0.00    +0.000 C 
ATOM     12  C   UNL     1       1.036   2.129  20.287  0.00  0.00    +0.000 C 
ATOM     13  C   UNL     1       1.232   2.800  21.642  0.00  0.00    +0.000 C 
ATOM     14  C   UNL     1       2.499   3.654  21.648  0.00  0.00    +0.000 C 
ATOM     15  C   UNL     1       2.564   4.624  20.466  0.00  0.00    +0.000 C 
ATOM     16  H   UNL     1       4.641   4.740  18.996  0.00  0.00    +0.000 HD
BRANCH  15  17
ATOM     17  O   UNL     1       1.637   5.682  20.639  0.00  0.00    +0.000 OA
ATOM     18  H   UNL     1       0.859   5.320  21.088  0.00  0.00    +0.000 HD
ENDBRANCH  15  17
ENDBRANCH   4   7
BRANCH   1  19
ATOM     19  C   UNL     1       7.595   5.210  13.522  0.00  0.00    +0.000 C 
ATOM     20  O   UNL     1       8.730   5.644  13.401  0.00  0.00    +0.000 OA
BRANCH  19  21
ATOM     21  O   UNL     1       6.771   4.842  12.510  0.00  0.00    +0.000 OA
BRANCH  21  22
ATOM     22  C   UNL     1       7.062   3.556  11.955  0.00  0.00    +0.000 C 
BRANCH  22  23
ATOM     23  C   UNL     1       5.857   2.632  12.024  0.00  0.00    +0.000 C 
BRANCH  23  25
ATOM     24  C   UNL     1       3.844   3.428  10.719  0.00  0.00    +0.000 C 
ATOM     25  C   UNL     1       4.575   3.464  12.048  0.00  0.00    +0.000 C 
ENDBRANCH  23  25
ENDBRANCH  22  23
ENDBRANCH  21  22
ENDBRANCH  19  21
ENDBRANCH   1  19
TORSDOF 7
ENDMDL
MODEL 3
REMARK VINA RESULT:      -7.0      1.304      1.863
REMARK  Name = 
REMARK  8 active torsions:
REMARK  status: ('A' for Active; 'I' for Inactive)
REMARK    1  A    between atoms: C_1  and  C_2
REMARK    2  A    between atoms: C_2  and  C_3
REMARK    3  A    between atoms: C_3  and  C_4
REMARK    4  A    between atoms: C_4  and  O_5
REMARK    5  A    between atoms: O_5  and  C_6
REMARK    6  A    between atoms: C_6  and  C_8
REMARK    7  A    between atoms: C_11  and  N_12
REMARK    8  A    between atoms: C_20  and  O_21
REMARK                            x       y       z     vdW  Elec       q    Type
REMARK                         _______ _______ _______ _____ _____    ______ ____
ROOT
ATOM      1  C   UNL     1       4.199   5.658  18.522  0.00  0.00    +0.000 A 
ATOM      2  C   UNL     1       3.312   5.678  19.600  0.00  0.00    +0.000 A 
ATOM      3  C   UNL     1       2.372   6.709  19.717  0.00  0.00    +0.000 A 
ATOM      4  C   UNL     1       2.315   7.740  18.774  0.00  0.00    +0.000 A 
ATOM      5  C   UNL     1       3.165   7.681  17.663  0.00  0.00    +0.000 A 
ATOM      6  C   UNL     1       4.104   6.650  17.539  0.00  0.00    +0.000 A 
ENDROOT
BRANCH   4   7
ATOM      7  N   UNL     1       1.466   8.867  18.889  0.00  0.00    +0.000 N 
ATOM      8  C   UNL     1       0.967   9.384  20.064  0.00  0.00    +0.000 C 
ATOM      9  O   UNL     1       1.238   8.924  21.175  0.00  0.00    +0.000 OA
ATOM     10  N   UNL     1       0.186  10.531  19.949  0.00  0.00    +0.000 N 
ATOM     11  C   UNL     1      -0.170  11.215  21.195  0.00  0.00    +0.000 C 
ATOM     12  C   UNL     1       0.051  12.719  21.082  0.00  0.00    +0.000 C 
ATOM     13  C   UNL     1      -0.679  13.297  19.875  0.00  0.00    +0.000 C 
ATOM     14  C   UNL     1      -0.299  12.547  18.599  0.00  0.00    +0.000 C 
ATOM     15  C   UNL     1      -0.448  11.030  18.738  0.00  0.00    +0.000 C 
ATOM     16  H   UNL     1       1.463   9.474  18.088  0.00  0.00    +0.000 HD
BRANCH  15  17
ATOM     17  O   UNL     1      -1.816  10.664  18.758  0.00  0.00    +0.000 OA
ATOM     18  H   UNL     1      -1.920   9.949  19.403  0.00  0.00    +0.000 HD
ENDBRANCH  15  17
ENDBRANCH   4   7
BRANCH   1  19
ATOM     19  C   UNL     1       5.308   4.662  18.539  0.00  0.00    +0.000 C 
ATOM     20  O   UNL     1       5.385   3.724  19.317  0.00  0.00    +0.000 OA
BRANCH  19  21
ATOM     21  O   UNL     1       6.283   5.075  17.692  0.00  0.00    +0.000 OA
BRANCH  21  22
ATOM     22  C   UNL     1       7.590   5.105  18.271  0.00  0.00    +0.000 C 
BRANCH  22  23
ATOM     23  C   UNL     1       7.983   6.511  18.695  0.00  0.00    +0.000 C 
BRANCH  23  25
ATOM     24  C   UNL     1       8.089   8.909  17.904  0.00  0.00    +0.000 C 
ATOM     25  C   UNL     1       7.675   7.491  17.563  0.00  0.00    +0.000 C 
ENDBRANCH  23  25
ENDBRANCH  22  23
ENDBRANCH  21  22
ENDBRANCH  19  21
ENDBRANCH   1  19
TORSDOF 7
ENDMDL
MODEL 4
REMARK VINA RESULT:      -6.9      2.685      8.325
REMARK  Name = 
REMARK  8 active torsions:
REMARK  status: ('A' for Active; 'I' for Inactive)
REMARK    1  A    between atoms: C_1  and  C_2
REMARK    2  A    between atoms: C_2  and  C_3
REMARK    3  A    between atoms: C_3  and  C_4
REMARK    4  A    between atoms: C_4  and  O_5
REMARK    5  A    between atoms: O_5  and  C_6
REMARK    6  A    between atoms: C_6  and  C_8
REMARK    7  A    between atoms: C_11  and  N_12
REMARK    8  A    between atoms: C_20  and  O_21
REMARK                            x       y       z     vdW  Elec       q    Type
REMARK                         _______ _______ _______ _____ _____    ______ ____
ROOT
ATOM      1  C   UNL     1       0.761  10.285  19.492  0.00  0.00    +0.000 A 
ATOM      2  C   UNL     1       0.916   9.474  20.618  0.00  0.00    +0.000 A 
ATOM      3  C   UNL     1       1.563   8.238  20.508  0.00  0.00    +0.000 A 
ATOM      4  C   UNL     1       2.049   7.787  19.277  0.00  0.00    +0.000 A 
ATOM      5  C   UNL     1       1.946   8.631  18.165  0.00  0.00    +0.000 A 
ATOM      6  C   UNL     1       1.303   9.870  18.269  0.00  0.00    +0.000 A 
ENDROOT
BRANCH   4   7
ATOM      7  N   UNL     1       2.615   6.505  19.074  0.00  0.00    +0.000 N 
ATOM      8  C   UNL     1       2.323   5.371  19.800  0.00  0.00    +0.000 C 
ATOM      9  O   UNL     1       1.493   5.345  20.711  0.00  0.00    +0.000 OA
ATOM     10  N   UNL     1       2.963   4.202  19.399  0.00  0.00    +0.000 N 
ATOM     11  C   UNL     1       2.504   2.953  20.013  0.00  0.00    +0.000 C 
ATOM     12  C   UNL     1       2.303   1.864  18.966  0.00  0.00    +0.000 C 
ATOM     13  C   UNL     1       3.558   1.667  18.122  0.00  0.00    +0.000 C 
ATOM     14  C   UNL     1       4.018   2.991  17.515  0.00  0.00    +0.000 C 
ATOM     15  C   UNL     1       4.146   4.107  18.556  0.00  0.00    +0.000 C 
ATOM     16  H   UNL     1       3.041   6.370  18.174  0.00  0.00    +0.000 HD
BRANCH  15  17
ATOM     17  O   UNL     1       5.276   3.889  19.383  0.00  0.00    +0.000 OA
ATOM     18  H   UNL     1       5.915   4.592  19.199  0.00  0.00    +0.000 HD
ENDBRANCH  15  17
ENDBRANCH   4   7
BRANCH   1  19
ATOM     19  C   UNL     1      -0.104  11.494  19.606  0.00  0.00    +0.000 C 
ATOM     20  O   UNL     1       0.309  12.623  19.820  0.00  0.00    +0.000 OA
BRANCH  19  21
ATOM     21  O   UNL     1      -1.403  11.105  19.621  0.00  0.00    +0.000 OA
BRANCH  21  22
ATOM     22  C   UNL     1      -2.313  12.083  19.109  0.00  0.00    +0.000 C 
BRANCH  22  23
ATOM     23  C   UNL     1      -3.313  11.465  18.144  0.00  0.00    +0.000 C 
BRANCH  23  25
ATOM     24  C   UNL     1      -2.285   9.965  16.388  0.00  0.00    +0.000 C 
ATOM     25  C   UNL     1      -2.869  10.047  17.786  0.00  0.00    +0.000 C 
ENDBRANCH  23  25
ENDBRANCH  22  23
ENDBRANCH  21  22
ENDBRANCH  19  21
ENDBRANCH   1  19
TORSDOF 7
ENDMDL
MODEL 5
REMARK VINA RESULT:      -6.9      4.982      6.634
REMARK  Name = 
REMARK  8 active torsions:
REMARK  status: ('A' for Active; 'I' for Inactive)
REMARK    1  A    between atoms: C_1  and  C_2
REMARK    2  A    between atoms: C_2  and  C_3
REMARK    3  A    between atoms: C_3  and  C_4
REMARK    4  A    between atoms: C_4  and  O_5
REMARK    5  A    between atoms: O_5  and  C_6
REMARK    6  A    between atoms: C_6  and  C_8
REMARK    7  A    between atoms: C_11  and  N_12
REMARK    8  A    between atoms: C_20  and  O_21
REMARK                            x       y       z     vdW  Elec       q    Type
REMARK                         _______ _______ _______ _____ _____    ______ ____
ROOT
ATOM      1  C   UNL     1       6.384   4.926  14.441  0.00  0.00    +0.000 A 
ATOM      2  C   UNL     1       6.220   3.652  14.990  0.00  0.00    +0.000 A 
ATOM      3  C   UNL     1       5.407   3.472  16.114  0.00  0.00    +0.000 A 
ATOM      4  C   UNL     1       4.762   4.557  16.717  0.00  0.00    +0.000 A 
ATOM      5  C   UNL     1       4.880   5.819  16.127  0.00  0.00    +0.000 A 
ATOM      6  C   UNL     1       5.689   6.006  14.999  0.00  0.00    +0.000 A 
ENDROOT
BRANCH   4   7
ATOM      7  N   UNL     1       4.016   4.462  17.916  0.00  0.00    +0.000 N 
ATOM      8  C   UNL     1       2.710   4.034  18.022  0.00  0.00    +0.000 C 
ATOM      9  O   UNL     1       2.043   3.652  17.058  0.00  0.00    +0.000 OA
ATOM     10  N   UNL     1       2.184   3.975  19.309  0.00  0.00    +0.000 N 
ATOM     11  C   UNL     1       0.881   3.321  19.461  0.00  0.00    +0.000 C 
ATOM     12  C   UNL     1       0.886   2.346  20.632  0.00  0.00    +0.000 C 
ATOM     13  C   UNL     1       1.346   3.026  21.918  0.00  0.00    +0.000 C 
ATOM     14  C   UNL     1       2.696   3.712  21.716  0.00  0.00    +0.000 C 
ATOM     15  C   UNL     1       2.715   4.633  20.494  0.00  0.00    +0.000 C 
ATOM     16  H   UNL     1       4.568   4.443  18.756  0.00  0.00    +0.000 HD
BRANCH  15  17
ATOM     17  O   UNL     1       1.956   5.804  20.741  0.00  0.00    +0.000 OA
ATOM     18  H   UNL     1       2.358   6.526  20.238  0.00  0.00    +0.000 HD
ENDBRANCH  15  17
ENDBRANCH   4   7
BRANCH   1  19
ATOM     19  C   UNL     1       7.408   5.108  13.374  0.00  0.00    +0.000 C 
ATOM     20  O   UNL     1       8.439   5.749  13.504  0.00  0.00    +0.000 OA
BRANCH  19  21
ATOM     21  O   UNL     1       6.922   4.613  12.209  0.00  0.00    +0.000 OA
BRANCH  21  22
ATOM     22  C   UNL     1       7.070   3.197  12.065  0.00  0.00    +0.000 C 
BRANCH  22  23
ATOM     23  C   UNL     1       5.819   2.559  11.485  0.00  0.00    +0.000 C 
BRANCH  23  25
ATOM     24  C   UNL     1       3.496   3.192  10.713  0.00  0.00    +0.000 C 
ATOM     25  C   UNL     1       4.630   3.503  11.671  0.00  0.00    +0.000 C 
ENDBRANCH  23  25
ENDBRANCH  22  23
ENDBRANCH  21  22
ENDBRANCH  19  21
ENDBRANCH   1  19
TORSDOF 7
ENDMDL
MODEL 6
REMARK VINA RESULT:      -6.9      2.873      3.722
REMARK  Name = 
REMARK  8 active torsions:
REMARK  status: ('A' for Active; 'I' for Inactive)
REMARK    1  A    between atoms: C_1  and  C_2
REMARK    2  A    between atoms: C_2  and  C_3
REMARK    3  A    between atoms: C_3  and  C_4
REMARK    4  A    between atoms: C_4  and  O_5
REMARK    5  A    between atoms: O_5  and  C_6
REMARK    6  A    between atoms: C_6  and  C_8
REMARK    7  A    between atoms: C_11  and  N_12
REMARK    8  A    between atoms: C_20  and  O_21
REMARK                            x       y       z     vdW  Elec       q    Type
REMARK                         _______ _______ _______ _____ _____    ______ ____
ROOT
ATOM      1  C   UNL     1       5.415   5.017  16.414  0.00  0.00    +0.000 A 
ATOM      2  C   UNL     1       4.432   4.307  17.106  0.00  0.00    +0.000 A 
ATOM      3  C   UNL     1       3.505   4.988  17.903  0.00  0.00    +0.000 A 
ATOM      4  C   UNL     1       3.556   6.379  18.036  0.00  0.00    +0.000 A 
ATOM      5  C   UNL     1       4.503   7.090  17.292  0.00  0.00    +0.000 A 
ATOM      6  C   UNL     1       5.431   6.415  16.489  0.00  0.00    +0.000 A 
ENDROOT
BRANCH   4   7
ATOM      7  N   UNL     1       2.721   7.118  18.908  0.00  0.00    +0.000 N 
ATOM      8  C   UNL     1       2.261   8.399  18.692  0.00  0.00    +0.000 C 
ATOM      9  O   UNL     1       2.514   9.046  17.674  0.00  0.00    +0.000 OA
ATOM     10  N   UNL     1       1.409   8.919  19.662  0.00  0.00    +0.000 N 
ATOM     11  C   UNL     1       0.742  10.186  19.346  0.00  0.00    +0.000 C 
ATOM     12  C   UNL     1      -0.742  10.128  19.686  0.00  0.00    +0.000 C 
ATOM     13  C   UNL     1      -0.964   9.703  21.133  0.00  0.00    +0.000 C 
ATOM     14  C   UNL     1      -0.239   8.391  21.432  0.00  0.00    +0.000 C 
ATOM     15  C   UNL     1       1.235   8.422  21.019  0.00  0.00    +0.000 C 
ATOM     16  H   UNL     1       2.220   6.564  19.581  0.00  0.00    +0.000 HD
BRANCH  15  17
ATOM     17  O   UNL     1       1.981   9.242  21.902  0.00  0.00    +0.000 OA
ATOM     18  H   UNL     1       2.054  10.119  21.498  0.00  0.00    +0.000 HD
ENDBRANCH  15  17
ENDBRANCH   4   7
BRANCH   1  19
ATOM     19  C   UNL     1       6.499   4.247  15.739  0.00  0.00    +0.000 C 
ATOM     20  O   UNL     1       7.693   4.449  15.895  0.00  0.00    +0.000 OA
BRANCH  19  21
ATOM     21  O   UNL     1       5.945   3.433  14.806  0.00  0.00    +0.000 OA
BRANCH  21  22
ATOM     22  C   UNL     1       5.595   4.092  13.586  0.00  0.00    +0.000 C 
BRANCH  22  23
ATOM     23  C   UNL     1       6.414   3.573  12.415  0.00  0.00    +0.000 C 
BRANCH  23  25
ATOM     24  C   UNL     1       4.173   3.148  11.325  0.00  0.00    +0.000 C 
ATOM     25  C   UNL     1       5.566   2.608  11.586  0.00  0.00    +0.000 C 
ENDBRANCH  23  25
ENDBRANCH  22  23
ENDBRANCH  21  22
ENDBRANCH  19  21
ENDBRANCH   1  19
TORSDOF 7
ENDMDL
MODEL 7
REMARK VINA RESULT:      -6.8      2.738      4.178
REMARK  Name = 
REMARK  8 active torsions:
REMARK  status: ('A' for Active; 'I' for Inactive)
REMARK    1  A    between atoms: C_1  and  C_2
REMARK    2  A    between atoms: C_2  and  C_3
REMARK    3  A    between atoms: C_3  and  C_4
REMARK    4  A    between atoms: C_4  and  O_5
REMARK    5  A    between atoms: O_5  and  C_6
REMARK    6  A    between atoms: C_6  and  C_8
REMARK    7  A    between atoms: C_11  and  N_12
REMARK    8  A    between atoms: C_20  and  O_21
REMARK                            x       y       z     vdW  Elec       q    Type
REMARK                         _______ _______ _______ _____ _____    ______ ____
ROOT
ATOM      1  C   UNL     1       2.532   7.203  19.121  0.00  0.00    +0.000 A 
ATOM      2  C   UNL     1       2.413   8.097  18.055  0.00  0.00    +0.000 A 
ATOM      3  C   UNL     1       1.652   9.263  18.199  0.00  0.00    +0.000 A 
ATOM      4  C   UNL     1       0.987   9.545  19.396  0.00  0.00    +0.000 A 
ATOM      5  C   UNL     1       1.161   8.677  20.480  0.00  0.00    +0.000 A 
ATOM      6  C   UNL     1       1.924   7.511  20.344  0.00  0.00    +0.000 A 
ENDROOT
BRANCH   4   7
ATOM      7  N   UNL     1       0.116  10.647  19.574  0.00  0.00    +0.000 N 
ATOM      8  C   UNL     1      -1.133  10.787  19.008  0.00  0.00    +0.000 C 
ATOM      9  O   UNL     1      -1.650   9.931  18.289  0.00  0.00    +0.000 OA
ATOM     10  N   UNL     1      -1.840  11.934  19.357  0.00  0.00    +0.000 N 
ATOM     11  C   UNL     1      -3.245  11.996  18.942  0.00  0.00    +0.000 C 
ATOM     12  C   UNL     1      -4.138  12.460  20.086  0.00  0.00    +0.000 C 
ATOM     13  C   UNL     1      -3.649  13.781  20.670  0.00  0.00    +0.000 C 
ATOM     14  C   UNL     1      -2.178  13.686  21.072  0.00  0.00    +0.000 C 
ATOM     15  C   UNL     1      -1.291  13.146  19.948  0.00  0.00    +0.000 C 
ATOM     16  H   UNL     1       0.317  11.217  20.377  0.00  0.00    +0.000 HD
BRANCH  15  17
ATOM     17  O   UNL     1      -1.134  14.117  18.927  0.00  0.00    +0.000 OA
ATOM     18  H   UNL     1      -0.327  13.901  18.438  0.00  0.00    +0.000 HD
ENDBRANCH  15  17
ENDBRANCH   4   7
BRANCH   1  19
ATOM     19  C   UNL     1       3.180   5.885  18.867  0.00  0.00    +0.000 C 
ATOM     20  O   UNL     1       4.105   5.431  19.521  0.00  0.00    +0.000 OA
BRANCH  19  21
ATOM     21  O   UNL     1       2.705   5.378  17.702  0.00  0.00    +0.000 OA
BRANCH  21  22
ATOM     22  C   UNL     1       1.578   4.512  17.856  0.00  0.00    +0.000 C 
BRANCH  22  23
ATOM     23  C   UNL     1       1.997   3.053  17.922  0.00  0.00    +0.000 C 
BRANCH  23  25
ATOM     24  C   UNL     1       0.873   3.437  20.153  0.00  0.00    +0.000 C 
ATOM     25  C   UNL     1       1.407   2.408  19.177  0.00  0.00    +0.000 C 
ENDBRANCH  23  25
ENDBRANCH  22  23
ENDBRANCH  21  22
ENDBRANCH  19  21
ENDBRANCH   1  19
TORSDOF 7
ENDMDL
MODEL 8
REMARK VINA RESULT:      -6.7      2.554      8.403
REMARK  Name = 
REMARK  8 active torsions:
REMARK  status: ('A' for Active; 'I' for Inactive)
REMARK    1  A    between atoms: C_1  and  C_2
REMARK    2  A    between atoms: C_2  and  C_3
REMARK    3  A    between atoms: C_3  and  C_4
REMARK    4  A    between atoms: C_4  and  O_5
REMARK    5  A    between atoms: O_5  and  C_6
REMARK    6  A    between atoms: C_6  and  C_8
REMARK    7  A    between atoms: C_11  and  N_12
REMARK    8  A    between atoms: C_20  and  O_21
REMARK                            x       y       z     vdW  Elec       q    Type
REMARK                         _______ _______ _______ _____ _____    ______ ____
ROOT
ATOM      1  C   UNL     1       0.228   9.834  19.296  0.00  0.00    +0.000 A 
ATOM      2  C   UNL     1       0.710   9.006  20.311  0.00  0.00    +0.000 A 
ATOM      3  C   UNL     1       1.807   8.171  20.073  0.00  0.00    +0.000 A 
ATOM      4  C   UNL     1       2.426   8.135  18.819  0.00  0.00    +0.000 A 
ATOM      5  C   UNL     1       1.978   9.012  17.825  0.00  0.00    +0.000 A 
ATOM      6  C   UNL     1       0.883   9.853  18.058  0.00  0.00    +0.000 A 
ENDROOT
BRANCH   4   7
ATOM      7  N   UNL     1       3.467   7.238  18.479  0.00  0.00    +0.000 N 
ATOM      8  C   UNL     1       3.303   5.973  17.956  0.00  0.00    +0.000 C 
ATOM      9  O   UNL     1       2.202   5.486  17.697  0.00  0.00    +0.000 OA
ATOM     10  N   UNL     1       4.470   5.278  17.651  0.00  0.00    +0.000 N 
ATOM     11  C   UNL     1       4.317   4.030  16.898  0.00  0.00    +0.000 C 
ATOM     12  C   UNL     1       5.311   3.955  15.745  0.00  0.00    +0.000 C 
ATOM     13  C   UNL     1       6.741   4.167  16.230  0.00  0.00    +0.000 C 
ATOM     14  C   UNL     1       6.858   5.466  17.026  0.00  0.00    +0.000 C 
ATOM     15  C   UNL     1       5.809   5.576  18.136  0.00  0.00    +0.000 C 
ATOM     16  H   UNL     1       4.368   7.666  18.357  0.00  0.00    +0.000 HD
BRANCH  15  17
ATOM     17  O   UNL     1       6.114   4.689  19.198  0.00  0.00    +0.000 OA
ATOM     18  H   UNL     1       5.866   3.797  18.917  0.00  0.00    +0.000 HD
ENDBRANCH  15  17
ENDBRANCH   4   7
BRANCH   1  19
ATOM     19  C   UNL     1      -1.056  10.557  19.524  0.00  0.00    +0.000 C 
ATOM     20  O   UNL     1      -1.265  11.321  20.453  0.00  0.00    +0.000 OA
BRANCH  19  21
ATOM     21  O   UNL     1      -1.985  10.087  18.655  0.00  0.00    +0.000 OA
BRANCH  21  22
ATOM     22  C   UNL     1      -2.679  11.106  17.930  0.00  0.00    +0.000 C 
BRANCH  22  23
ATOM     23  C   UNL     1      -2.382  11.035  16.441  0.00  0.00    +0.000 C 
BRANCH  23  25
ATOM     24  C   UNL     1      -3.237  10.095  14.256  0.00  0.00    +0.000 C 
ATOM     25  C   UNL     1      -3.538  10.338  15.722  0.00  0.00    +0.000 C 
ENDBRANCH  23  25
ENDBRANCH  22  23
ENDBRANCH  21  22
ENDBRANCH  19  21
ENDBRANCH   1  19
TORSDOF 7
ENDMDL
MODEL 9
REMARK VINA RESULT:      -6.7      2.114      8.590
REMARK  Name = 
REMARK  8 active torsions:
REMARK  status: ('A' for Active; 'I' for Inactive)
REMARK    1  A    between atoms: C_1  and  C_2
REMARK    2  A    between atoms: C_2  and  C_3
REMARK    3  A    between atoms: C_3  and  C_4
REMARK    4  A    between atoms: C_4  and  O_5
REMARK    5  A    between atoms: O_5  and  C_6
REMARK    6  A    between atoms: C_6  and  C_8
REMARK    7  A    between atoms: C_11  and  N_12
REMARK    8  A    between atoms: C_20  and  O_21
REMARK                            x       y       z     vdW  Elec       q    Type
REMARK                         _______ _______ _______ _____ _____    ______ ____
ROOT
ATOM      1  C   UNL     1       0.254   9.747  19.654  0.00  0.00    +0.000 A 
ATOM      2  C   UNL     1       0.687   9.766  18.326  0.00  0.00    +0.000 A 
ATOM      3  C   UNL     1       1.703   8.900  17.907  0.00  0.00    +0.000 A 
ATOM      4  C   UNL     1       2.312   8.018  18.806  0.00  0.00    +0.000 A 
ATOM      5  C   UNL     1       1.831   7.959  20.118  0.00  0.00    +0.000 A 
ATOM      6  C   UNL     1       0.812   8.821  20.543  0.00  0.00    +0.000 A 
ENDROOT
BRANCH   4   7
ATOM      7  N   UNL     1       3.415   7.194  18.476  0.00  0.00    +0.000 N 
ATOM      8  C   UNL     1       3.343   5.911  17.978  0.00  0.00    +0.000 C 
ATOM      9  O   UNL     1       2.280   5.338  17.735  0.00  0.00    +0.000 OA
ATOM     10  N   UNL     1       4.557   5.299  17.677  0.00  0.00    +0.000 N 
ATOM     11  C   UNL     1       4.494   4.028  16.950  0.00  0.00    +0.000 C 
ATOM     12  C   UNL     1       5.483   4.005  15.791  0.00  0.00    +0.000 C 
ATOM     13  C   UNL     1       6.896   4.333  16.262  0.00  0.00    +0.000 C 
ATOM     14  C   UNL     1       6.920   5.652  17.033  0.00  0.00    +0.000 C 
ATOM     15  C   UNL     1       5.873   5.705  18.148  0.00  0.00    +0.000 C 
ATOM     16  H   UNL     1       4.281   7.685  18.339  0.00  0.00    +0.000 HD
BRANCH  15  17
ATOM     17  O   UNL     1       6.249   4.864  19.225  0.00  0.00    +0.000 OA
ATOM     18  H   UNL     1       5.939   3.969  19.021  0.00  0.00    +0.000 HD
ENDBRANCH  15  17
ENDBRANCH   4   7
BRANCH   1  19
ATOM     19  C   UNL     1      -0.683  10.815  20.105  0.00  0.00    +0.000 C 
ATOM     20  O   UNL     1      -1.364  11.500  19.360  0.00  0.00    +0.000 OA
BRANCH  19  21
ATOM     21  O   UNL     1      -0.512  11.015  21.436  0.00  0.00    +0.000 OA
BRANCH  21  22
ATOM     22  C   UNL     1      -0.216  12.369  21.792  0.00  0.00    +0.000 C 
BRANCH  22  23
ATOM     23  C   UNL     1      -1.165  12.886  22.861  0.00  0.00    +0.000 C 
BRANCH  23  25
ATOM     24  C   UNL     1      -3.485  12.410  23.745  0.00  0.00    +0.000 C 
ATOM     25  C   UNL     1      -2.210  11.816  23.180  0.00  0.00    +0.000 C 
ENDBRANCH  23  25
ENDBRANCH  22  23
ENDBRANCH  21  22
ENDBRANCH  19  21
ENDBRANCH   1  19
TORSDOF 7
ENDMDL
