MODEL 1
REMARK VINA RESULT:      -8.0      0.000      0.000
REMARK  Name = 
REMARK  8 active torsions:
REMARK  status: ('A' for Active; 'I' for Inactive)
REMARK    1  A    between atoms: C_1  and  C_2
REMARK    2  A    between atoms: C_6  and  C_7
REMARK    3  A    between atoms: C_8  and  O_9
REMARK    4  A    between atoms: O_9  and  C_10
REMARK    5  A    between atoms: C_10  and  C_11
REMARK    6  A    between atoms: C_11  and  N_12
REMARK    7  A    between atoms: C_16  and  C_17
REMARK    8  A    between atoms: C_16  and  C_18
REMARK                            x       y       z     vdW  Elec       q    Type
REMARK                         _______ _______ _______ _____ _____    ______ ____
ROOT
ATOM      1  N   UNL     1       2.109   3.812  19.907  0.00  0.00    +0.000 N 
ATOM      2  C   UNL     1       2.941   3.070  20.690  0.00  0.00    +0.000 C 
ATOM      3  O   UNL     1       2.822   2.820  21.873  0.00  0.00    +0.000 OA
ATOM      4  N   UNL     1       3.980   2.611  19.921  0.00  0.00    +0.000 N 
ATOM      5  C   UNL     1       3.846   2.946  18.524  0.00  0.00    +0.000 C 
ATOM      6  C   UNL     1       3.678   1.656  17.717  0.00  0.00    +0.000 C 
ATOM      7  C   UNL     1       2.489   3.689  18.594  0.00  0.00    +0.000 C 
ATOM      8  O   UNL     1       1.883   4.108  17.609  0.00  0.00    +0.000 OA
ATOM      9  H   UNL     1       4.739   2.080  20.323  0.00  0.00    +0.000 HD
ENDROOT
BRANCH   5  10
ATOM     10  C   UNL     1       4.961   3.863  18.012  0.00  0.00    +0.000 A 
ATOM     11  C   UNL     1       5.727   4.663  18.881  0.00  0.00    +0.000 A 
ATOM     12  C   UNL     1       6.727   5.513  18.397  0.00  0.00    +0.000 A 
ATOM     13  C   UNL     1       6.986   5.583  17.032  0.00  0.00    +0.000 A 
ATOM     14  C   UNL     1       6.244   4.803  16.151  0.00  0.00    +0.000 A 
ATOM     15  C   UNL     1       5.239   3.956  16.635  0.00  0.00    +0.000 A 
ENDBRANCH   5  10
BRANCH   1  16
ATOM     16  C   UNL     1       0.973   4.574  20.451  0.00  0.00    +0.000 C 
BRANCH  16  17
ATOM     17  C   UNL     1       1.406   5.936  21.008  0.00  0.00    +0.000 C 
BRANCH  17  18
ATOM     18  O   UNL     1       2.329   6.659  20.202  0.00  0.00    +0.000 OA
BRANCH  18  26
ATOM     19  C   UNL     1       0.444   8.708  21.738  0.00  0.00    +0.000 C 
ATOM     20  C   UNL     1       1.062   8.832  20.369  0.00  0.00    +0.000 A 
ATOM     21  C   UNL     1       0.770  10.047  19.714  0.00  0.00    +0.000 A 
ATOM     22  C   UNL     1       1.255  10.331  18.442  0.00  0.00    +0.000 A 
ATOM     23  C   UNL     1       2.049   9.404  17.798  0.00  0.00    +0.000 A 
ATOM     24  C   UNL     1       2.379   8.183  18.415  0.00  0.00    +0.000 A 
ATOM     25  C   UNL     1       3.232   7.211  17.643  0.00  0.00    +0.000 C 
ATOM     26  C   UNL     1       1.886   7.878  19.712  0.00  0.00    +0.000 A 
ENDBRANCH  18  26
ENDBRANCH  17  18
ENDBRANCH  16  17
ENDBRANCH   1  16
TORSDOF 5
ENDMDL
MODEL 2
REMARK VINA RESULT:      -7.6      0.316      1.782
REMARK  Name = 
REMARK  8 active torsions:
REMARK  status: ('A' for Active; 'I' for Inactive)
REMARK    1  A    between atoms: C_1  and  C_2
REMARK    2  A    between atoms: C_6  and  C_7
REMARK    3  A    between atoms: C_8  and  O_9
REMARK    4  A    between atoms: O_9  and  C_10
REMARK    5  A    between atoms: C_10  and  C_11
REMARK    6  A    between atoms: C_11  and  N_12
REMARK    7  A    between atoms: C_16  and  C_17
REMARK    8  A    between atoms: C_16  and  C_18
REMARK                            x       y       z     vdW  Elec       q    Type
REMARK                         _______ _______ _______ _____ _____    ______ ____
ROOT
ATOM      1  N   UNL     1       2.259   3.563  20.122  0.00  0.00    +0.000 N 
ATOM      2  C   UNL     1       3.164   2.780  20.773  0.00  0.00    +0.000 C 
ATOM      3  O   UNL     1       3.141   2.426  21.935  0.00  0.00    +0.000 OA
ATOM      4  N   UNL     1       4.151   2.419  19.891  0.00  0.00    +0.000 N 
ATOM      5  C   UNL     1       3.904   2.869  18.543  0.00  0.00    +0.000 C 
ATOM      6  C   UNL     1       3.703   1.650  17.640  0.00  0.00    +0.000 C 
ATOM      7  C   UNL     1       2.541   3.565  18.779  0.00  0.00    +0.000 C 
ATOM      8  O   UNL     1       1.853   4.050  17.882  0.00  0.00    +0.000 OA
ATOM      9  H   UNL     1       4.950   1.877  20.188  0.00  0.00    +0.000 HD
ENDROOT
BRANCH   5  10
ATOM     10  C   UNL     1       4.957   3.857  18.033  0.00  0.00    +0.000 A 
ATOM     11  C   UNL     1       5.721   4.652  18.909  0.00  0.00    +0.000 A 
ATOM     12  C   UNL     1       6.663   5.567  18.427  0.00  0.00    +0.000 A 
ATOM     13  C   UNL     1       6.865   5.710  17.059  0.00  0.00    +0.000 A 
ATOM     14  C   UNL     1       6.123   4.937  16.170  0.00  0.00    +0.000 A 
ATOM     15  C   UNL     1       5.176   4.024  16.652  0.00  0.00    +0.000 A 
ENDBRANCH   5  10
BRANCH   1  16
ATOM     16  C   UNL     1       1.152   4.243  20.814  0.00  0.00    +0.000 C 
BRANCH  16  17
ATOM     17  C   UNL     1       0.885   5.641  20.240  0.00  0.00    +0.000 C 
BRANCH  17  18
ATOM     18  O   UNL     1       1.877   6.620  20.532  0.00  0.00    +0.000 OA
BRANCH  18  26
ATOM     19  C   UNL     1       3.243   7.138  17.708  0.00  0.00    +0.000 C 
ATOM     20  C   UNL     1       2.381   8.064  18.529  0.00  0.00    +0.000 A 
ATOM     21  C   UNL     1       2.142   9.315  17.922  0.00  0.00    +0.000 A 
ATOM     22  C   UNL     1       1.370  10.294  18.537  0.00  0.00    +0.000 A 
ATOM     23  C   UNL     1       0.816  10.040  19.775  0.00  0.00    +0.000 A 
ATOM     24  C   UNL     1       1.016   8.803  20.416  0.00  0.00    +0.000 A 
ATOM     25  C   UNL     1       0.399   8.604  21.775  0.00  0.00    +0.000 C 
ATOM     26  C   UNL     1       1.806   7.796  19.800  0.00  0.00    +0.000 A 
ENDBRANCH  18  26
ENDBRANCH  17  18
ENDBRANCH  16  17
ENDBRANCH   1  16
TORSDOF 5
ENDMDL
MODEL 3
REMARK VINA RESULT:      -7.5      0.437      2.044
REMARK  Name = 
REMARK  8 active torsions:
REMARK  status: ('A' for Active; 'I' for Inactive)
REMARK    1  A    between atoms: C_1  and  C_2
REMARK    2  A    between atoms: C_6  and  C_7
REMARK    3  A    between atoms: C_8  and  O_9
REMARK    4  A    between atoms: O_9  and  C_10
REMARK    5  A    between atoms: C_10  and  C_11
REMARK    6  A    between atoms: C_11  and  N_12
REMARK    7  A    between atoms: C_16  and  C_17
REMARK    8  A    between atoms: C_16  and  C_18
REMARK                            x       y       z     vdW  Elec       q    Type
REMARK                         _______ _______ _______ _____ _____    ______ ____
ROOT
ATOM      1  N   UNL     1       2.473   3.598  20.051  0.00  0.00    +0.000 N 
ATOM      2  C   UNL     1       3.409   2.737  20.536  0.00  0.00    +0.000 C 
ATOM      3  O   UNL     1       3.501   2.298  21.666  0.00  0.00    +0.000 OA
ATOM      4  N   UNL     1       4.274   2.407  19.524  0.00  0.00    +0.000 N 
ATOM      5  C   UNL     1       3.898   2.965  18.248  0.00  0.00    +0.000 C 
ATOM      6  C   UNL     1       3.543   1.825  17.291  0.00  0.00    +0.000 C 
ATOM      7  C   UNL     1       2.602   3.690  18.687  0.00  0.00    +0.000 C 
ATOM      8  O   UNL     1       1.840   4.265  17.911  0.00  0.00    +0.000 OA
ATOM      9  H   UNL     1       5.077   1.816  19.689  0.00  0.00    +0.000 HD
ENDROOT
BRANCH   5  10
ATOM     10  C   UNL     1       4.929   3.951  17.691  0.00  0.00    +0.000 A 
ATOM     11  C   UNL     1       5.066   4.188  16.310  0.00  0.00    +0.000 A 
ATOM     12  C   UNL     1       6.029   5.074  15.815  0.00  0.00    +0.000 A 
ATOM     13  C   UNL     1       6.878   5.745  16.688  0.00  0.00    +0.000 A 
ATOM     14  C   UNL     1       6.765   5.530  18.058  0.00  0.00    +0.000 A 
ATOM     15  C   UNL     1       5.804   4.639  18.554  0.00  0.00    +0.000 A 
ENDBRANCH   5  10
BRANCH   1  16
ATOM     16  C   UNL     1       1.481   4.264  20.911  0.00  0.00    +0.000 C 
BRANCH  16  17
ATOM     17  C   UNL     1       1.054   5.627  20.351  0.00  0.00    +0.000 C 
BRANCH  17  18
ATOM     18  O   UNL     1       1.936   6.707  20.638  0.00  0.00    +0.000 OA
BRANCH  18  26
ATOM     19  C   UNL     1       3.296   7.216  17.809  0.00  0.00    +0.000 C 
ATOM     20  C   UNL     1       2.353   8.103  18.580  0.00  0.00    +0.000 A 
ATOM     21  C   UNL     1       2.023   9.305  17.918  0.00  0.00    +0.000 A 
ATOM     22  C   UNL     1       1.167  10.243  18.483  0.00  0.00    +0.000 A 
ATOM     23  C   UNL     1       0.617   9.997  19.725  0.00  0.00    +0.000 A 
ATOM     24  C   UNL     1       0.905   8.808  20.419  0.00  0.00    +0.000 A 
ATOM     25  C   UNL     1       0.286   8.617  21.779  0.00  0.00    +0.000 C 
ATOM     26  C   UNL     1       1.782   7.843  19.856  0.00  0.00    +0.000 A 
ENDBRANCH  18  26
ENDBRANCH  17  18
ENDBRANCH  16  17
ENDBRANCH   1  16
TORSDOF 5
ENDMDL
MODEL 4
REMARK VINA RESULT:      -7.4      1.106      2.291
REMARK  Name = 
REMARK  8 active torsions:
REMARK  status: ('A' for Active; 'I' for Inactive)
REMARK    1  A    between atoms: C_1  and  C_2
REMARK    2  A    between atoms: C_6  and  C_7
REMARK    3  A    between atoms: C_8  and  O_9
REMARK    4  A    between atoms: O_9  and  C_10
REMARK    5  A    between atoms: C_10  and  C_11
REMARK    6  A    between atoms: C_11  and  N_12
REMARK    7  A    between atoms: C_16  and  C_17
REMARK    8  A    between atoms: C_16  and  C_18
REMARK                            x       y       z     vdW  Elec       q    Type
REMARK                         _______ _______ _______ _____ _____    ______ ____
ROOT
ATOM      1  N   UNL     1       2.096   4.714  20.072  0.00  0.00    +0.000 N 
ATOM      2  C   UNL     1       2.626   3.656  20.746  0.00  0.00    +0.000 C 
ATOM      3  O   UNL     1       2.504   3.389  21.925  0.00  0.00    +0.000 OA
ATOM      4  N   UNL     1       3.346   2.887  19.867  0.00  0.00    +0.000 N 
ATOM      5  C   UNL     1       3.253   3.345  18.502  0.00  0.00    +0.000 C 
ATOM      6  C   UNL     1       2.538   2.279  17.667  0.00  0.00    +0.000 C 
ATOM      7  C   UNL     1       2.303   4.547  18.725  0.00  0.00    +0.000 C 
ATOM      8  O   UNL     1       1.839   5.235  17.817  0.00  0.00    +0.000 OA
ATOM      9  H   UNL     1       3.864   2.078  20.177  0.00  0.00    +0.000 HD
ENDROOT
BRANCH   5  10
ATOM     10  C   UNL     1       4.598   3.794  17.923  0.00  0.00    +0.000 A 
ATOM     11  C   UNL     1       5.615   4.338  18.730  0.00  0.00    +0.000 A 
ATOM     12  C   UNL     1       6.829   4.765  18.183  0.00  0.00    +0.000 A 
ATOM     13  C   UNL     1       7.058   4.658  16.816  0.00  0.00    +0.000 A 
ATOM     14  C   UNL     1       6.070   4.124  15.994  0.00  0.00    +0.000 A 
ATOM     15  C   UNL     1       4.851   3.701  16.541  0.00  0.00    +0.000 A 
ENDBRANCH   5  10
BRANCH   1  16
ATOM     16  C   UNL     1       1.389   5.815  20.747  0.00  0.00    +0.000 C 
BRANCH  16  17
ATOM     17  C   UNL     1       1.917   7.189  20.315  0.00  0.00    +0.000 C 
BRANCH  17  18
ATOM     18  O   UNL     1       1.555   8.275  21.161  0.00  0.00    +0.000 OA
BRANCH  18  26
ATOM     19  C   UNL     1       1.810   9.172  18.121  0.00  0.00    +0.000 C 
ATOM     20  C   UNL     1       0.922   9.731  19.203  0.00  0.00    +0.000 A 
ATOM     21  C   UNL     1       0.077  10.776  18.771  0.00  0.00    +0.000 A 
ATOM     22  C   UNL     1      -0.808  11.409  19.635  0.00  0.00    +0.000 A 
ATOM     23  C   UNL     1      -0.870  11.009  20.954  0.00  0.00    +0.000 A 
ATOM     24  C   UNL     1      -0.057   9.964  21.430  0.00  0.00    +0.000 A 
ATOM     25  C   UNL     1      -0.163   9.595  22.887  0.00  0.00    +0.000 C 
ATOM     26  C   UNL     1       0.855   9.310  20.559  0.00  0.00    +0.000 A 
ENDBRANCH  18  26
ENDBRANCH  17  18
ENDBRANCH  16  17
ENDBRANCH   1  16
TORSDOF 5
ENDMDL
MODEL 5
REMARK VINA RESULT:      -7.3      0.913      1.488
REMARK  Name = 
REMARK  8 active torsions:
REMARK  status: ('A' for Active; 'I' for Inactive)
REMARK    1  A    between atoms: C_1  and  C_2
REMARK    2  A    between atoms: C_6  and  C_7
REMARK    3  A    between atoms: C_8  and  O_9
REMARK    4  A    between atoms: O_9  and  C_10
REMARK    5  A    between atoms: C_10  and  C_11
REMARK    6  A    between atoms: C_11  and  N_12
REMARK    7  A    between atoms: C_16  and  C_17
REMARK    8  A    between atoms: C_16  and  C_18
REMARK                            x       y       z     vdW  Elec       q    Type
REMARK                         _______ _______ _______ _____ _____    ______ ____
ROOT
ATOM      1  N   UNL     1       2.028   4.593  19.958  0.00  0.00    +0.000 N 
ATOM      2  C   UNL     1       2.617   3.667  20.765  0.00  0.00    +0.000 C 
ATOM      3  O   UNL     1       2.322   3.384  21.910  0.00  0.00    +0.000 OA
ATOM      4  N   UNL     1       3.634   3.059  20.074  0.00  0.00    +0.000 N 
ATOM      5  C   UNL     1       3.721   3.485  18.698  0.00  0.00    +0.000 C 
ATOM      6  C   UNL     1       3.412   2.294  17.788  0.00  0.00    +0.000 C 
ATOM      7  C   UNL     1       2.524   4.468  18.684  0.00  0.00    +0.000 C 
ATOM      8  O   UNL     1       2.120   5.044  17.675  0.00  0.00    +0.000 OA
ATOM      9  H   UNL     1       4.232   2.374  20.512  0.00  0.00    +0.000 HD
ENDROOT
BRANCH   5  10
ATOM     10  C   UNL     1       5.036   4.198  18.369  0.00  0.00    +0.000 A 
ATOM     11  C   UNL     1       5.637   4.107  17.098  0.00  0.00    +0.000 A 
ATOM     12  C   UNL     1       6.850   4.746  16.819  0.00  0.00    +0.000 A 
ATOM     13  C   UNL     1       7.491   5.492  17.802  0.00  0.00    +0.000 A 
ATOM     14  C   UNL     1       6.919   5.599  19.067  0.00  0.00    +0.000 A 
ATOM     15  C   UNL     1       5.707   4.955  19.348  0.00  0.00    +0.000 A 
ENDBRANCH   5  10
BRANCH   1  16
ATOM     16  C   UNL     1       0.997   5.527  20.438  0.00  0.00    +0.000 C 
BRANCH  16  17
ATOM     17  C   UNL     1       1.605   6.728  21.174  0.00  0.00    +0.000 C 
BRANCH  17  18
ATOM     18  O   UNL     1       2.061   7.788  20.341  0.00  0.00    +0.000 OA
BRANCH  18  26
ATOM     19  C   UNL     1       0.305   9.201  22.583  0.00  0.00    +0.000 C 
ATOM     20  C   UNL     1       0.381   9.503  21.108  0.00  0.00    +0.000 A 
ATOM     21  C   UNL     1      -0.429  10.585  20.700  0.00  0.00    +0.000 A 
ATOM     22  C   UNL     1      -0.484  11.002  19.375  0.00  0.00    +0.000 A 
ATOM     23  C   UNL     1       0.273  10.345  18.427  0.00  0.00    +0.000 A 
ATOM     24  C   UNL     1       1.105   9.268  18.786  0.00  0.00    +0.000 A 
ATOM     25  C   UNL     1       1.887   8.586  17.694  0.00  0.00    +0.000 C 
ATOM     26  C   UNL     1       1.168   8.829  20.136  0.00  0.00    +0.000 A 
ENDBRANCH  18  26
ENDBRANCH  17  18
ENDBRANCH  16  17
ENDBRANCH   1  16
TORSDOF 5
ENDMDL
MODEL 6
REMARK VINA RESULT:      -7.1      3.143      7.743
REMARK  Name = 
REMARK  8 active torsions:
REMARK  status: ('A' for Active; 'I' for Inactive)
REMARK    1  A    between atoms: C_1  and  C_2
REMARK    2  A    between atoms: C_6  and  C_7
REMARK    3  A    between atoms: C_8  and  O_9
REMARK    4  A    between atoms: O_9  and  C_10
REMARK    5  A    between atoms: C_10  and  C_11
REMARK    6  A    between atoms: C_11  and  N_12
REMARK    7  A    between atoms: C_16  and  C_17
REMARK    8  A    between atoms: C_16  and  C_18
REMARK                            x       y       z     vdW  Elec       q    Type
REMARK                         _______ _______ _______ _____ _____    ______ ____
ROOT
ATOM      1  N   UNL     1       1.003   9.198  20.404  0.00  0.00    +0.000 N 
ATOM      2  C   UNL     1       0.562  10.111  21.313  0.00  0.00    +0.000 C 
ATOM      3  O   UNL     1       0.661  10.062  22.523  0.00  0.00    +0.000 OA
ATOM      4  N   UNL     1      -0.030  11.151  20.644  0.00  0.00    +0.000 N 
ATOM      5  C   UNL     1       0.071  11.038  19.209  0.00  0.00    +0.000 C 
ATOM      6  C   UNL     1       0.934  12.185  18.679  0.00  0.00    +0.000 C 
ATOM      7  C   UNL     1       0.874   9.715  19.139  0.00  0.00    +0.000 C 
ATOM      8  O   UNL     1       1.299   9.224  18.095  0.00  0.00    +0.000 OA
ATOM      9  H   UNL     1      -0.471  11.914  21.139  0.00  0.00    +0.000 HD
ENDROOT
BRANCH   5  10
ATOM     10  C   UNL     1      -1.288  10.905  18.516  0.00  0.00    +0.000 A 
ATOM     11  C   UNL     1      -1.493  10.023  17.437  0.00  0.00    +0.000 A 
ATOM     12  C   UNL     1      -2.734   9.930  16.799  0.00  0.00    +0.000 A 
ATOM     13  C   UNL     1      -3.801  10.715  17.223  0.00  0.00    +0.000 A 
ATOM     14  C   UNL     1      -3.626  11.595  18.287  0.00  0.00    +0.000 A 
ATOM     15  C   UNL     1      -2.382  11.692  18.923  0.00  0.00    +0.000 A 
ENDBRANCH   5  10
BRANCH   1  16
ATOM     16  C   UNL     1       1.555   7.889  20.793  0.00  0.00    +0.000 C 
BRANCH  16  17
ATOM     17  C   UNL     1       2.296   7.209  19.634  0.00  0.00    +0.000 C 
BRANCH  17  18
ATOM     18  O   UNL     1       2.957   5.993  19.963  0.00  0.00    +0.000 OA
BRANCH  18  26
ATOM     19  C   UNL     1       4.625   5.823  17.261  0.00  0.00    +0.000 C 
ATOM     20  C   UNL     1       3.612   4.852  17.812  0.00  0.00    +0.000 A 
ATOM     21  C   UNL     1       3.419   3.706  17.011  0.00  0.00    +0.000 A 
ATOM     22  C   UNL     1       2.520   2.706  17.366  0.00  0.00    +0.000 A 
ATOM     23  C   UNL     1       1.796   2.830  18.533  0.00  0.00    +0.000 A 
ATOM     24  C   UNL     1       1.962   3.948  19.371  0.00  0.00    +0.000 A 
ATOM     25  C   UNL     1       1.121   4.026  20.619  0.00  0.00    +0.000 C 
ATOM     26  C   UNL     1       2.873   4.979  19.020  0.00  0.00    +0.000 A 
ENDBRANCH  18  26
ENDBRANCH  17  18
ENDBRANCH  16  17
ENDBRANCH   1  16
TORSDOF 5
ENDMDL
MODEL 7
REMARK VINA RESULT:      -7.1      3.200      7.647
REMARK  Name = 
REMARK  8 active torsions:
REMARK  status: ('A' for Active; 'I' for Inactive)
REMARK    1  A    between atoms: C_1  and  C_2
REMARK    2  A    between atoms: C_6  and  C_7
REMARK    3  A    between atoms: C_8  and  O_9
REMARK    4  A    between atoms: O_9  and  C_10
REMARK    5  A    between atoms: C_10  and  C_11
REMARK    6  A    between atoms: C_11  and  N_12
REMARK    7  A    between atoms: C_16  and  C_17
REMARK    8  A    between atoms: C_16  and  C_18
REMARK                            x       y       z     vdW  Elec       q    Type
REMARK                         _______ _______ _______ _____ _____    ______ ____
ROOT
ATOM      1  N   UNL     1       1.008   9.290  20.259  0.00  0.00    +0.000 N 
ATOM      2  C   UNL     1       0.525  10.123  21.222  0.00  0.00    +0.000 C 
ATOM      3  O   UNL     1       0.646  10.016  22.426  0.00  0.00    +0.000 OA
ATOM      4  N   UNL     1      -0.142  11.158  20.618  0.00  0.00    +0.000 N 
ATOM      5  C   UNL     1      -0.056  11.128  19.178  0.00  0.00    +0.000 C 
ATOM      6  C   UNL     1       0.724  12.355  18.700  0.00  0.00    +0.000 C 
ATOM      7  C   UNL     1       0.827   9.865  19.026  0.00  0.00    +0.000 C 
ATOM      8  O   UNL     1       1.266   9.459  17.951  0.00  0.00    +0.000 OA
ATOM      9  H   UNL     1      -0.621  11.863  21.159  0.00  0.00    +0.000 HD
ENDROOT
BRANCH   5  10
ATOM     10  C   UNL     1      -1.415  10.947  18.495  0.00  0.00    +0.000 A 
ATOM     11  C   UNL     1      -1.608  10.024  17.449  0.00  0.00    +0.000 A 
ATOM     12  C   UNL     1      -2.849   9.886  16.819  0.00  0.00    +0.000 A 
ATOM     13  C   UNL     1      -3.929  10.666  17.220  0.00  0.00    +0.000 A 
ATOM     14  C   UNL     1      -3.766  11.586  18.252  0.00  0.00    +0.000 A 
ATOM     15  C   UNL     1      -2.521  11.728  18.879  0.00  0.00    +0.000 A 
ENDBRANCH   5  10
BRANCH   1  16
ATOM     16  C   UNL     1       1.647   8.000  20.569  0.00  0.00    +0.000 C 
BRANCH  16  17
ATOM     17  C   UNL     1       2.287   7.362  19.330  0.00  0.00    +0.000 C 
BRANCH  17  18
ATOM     18  O   UNL     1       3.193   6.296  19.591  0.00  0.00    +0.000 OA
BRANCH  18  26
ATOM     19  C   UNL     1       0.946   4.229  20.479  0.00  0.00    +0.000 C 
ATOM     20  C   UNL     1       1.903   4.147  19.318  0.00  0.00    +0.000 A 
ATOM     21  C   UNL     1       1.737   2.998  18.516  0.00  0.00    +0.000 A 
ATOM     22  C   UNL     1       2.534   2.758  17.403  0.00  0.00    +0.000 A 
ATOM     23  C   UNL     1       3.517   3.666  17.065  0.00  0.00    +0.000 A 
ATOM     24  C   UNL     1       3.713   4.833  17.827  0.00  0.00    +0.000 A 
ATOM     25  C   UNL     1       4.818   5.768  17.412  0.00  0.00    +0.000 C 
ATOM     26  C   UNL     1       2.909   5.089  18.969  0.00  0.00    +0.000 A 
ENDBRANCH  18  26
ENDBRANCH  17  18
ENDBRANCH  16  17
ENDBRANCH   1  16
TORSDOF 5
ENDMDL
MODEL 8
REMARK VINA RESULT:      -7.1      1.560      2.855
REMARK  Name = 
REMARK  8 active torsions:
REMARK  status: ('A' for Active; 'I' for Inactive)
REMARK    1  A    between atoms: C_1  and  C_2
REMARK    2  A    between atoms: C_6  and  C_7
REMARK    3  A    between atoms: C_8  and  O_9
REMARK    4  A    between atoms: O_9  and  C_10
REMARK    5  A    between atoms: C_10  and  C_11
REMARK    6  A    between atoms: C_11  and  N_12
REMARK    7  A    between atoms: C_16  and  C_17
REMARK    8  A    between atoms: C_16  and  C_18
REMARK                            x       y       z     vdW  Elec       q    Type
REMARK                         _______ _______ _______ _____ _____    ______ ____
ROOT
ATOM      1  N   UNL     1       2.485   5.215  19.912  0.00  0.00    +0.000 N 
ATOM      2  C   UNL     1       3.072   4.036  20.259  0.00  0.00    +0.000 C 
ATOM      3  O   UNL     1       2.776   3.302  21.181  0.00  0.00    +0.000 OA
ATOM      4  N   UNL     1       4.090   3.772  19.378  0.00  0.00    +0.000 N 
ATOM      5  C   UNL     1       4.179   4.733  18.306  0.00  0.00    +0.000 C 
ATOM      6  C   UNL     1       3.870   4.030  16.981  0.00  0.00    +0.000 C 
ATOM      7  C   UNL     1       2.982   5.633  18.702  0.00  0.00    +0.000 C 
ATOM      8  O   UNL     1       2.579   6.577  18.025  0.00  0.00    +0.000 OA
ATOM      9  H   UNL     1       4.688   2.966  19.491  0.00  0.00    +0.000 HD
ENDROOT
BRANCH   5  10
ATOM     10  C   UNL     1       5.493   5.518  18.305  0.00  0.00    +0.000 A 
ATOM     11  C   UNL     1       5.769   6.512  17.347  0.00  0.00    +0.000 A 
ATOM     12  C   UNL     1       6.984   7.205  17.344  0.00  0.00    +0.000 A 
ATOM     13  C   UNL     1       7.954   6.922  18.300  0.00  0.00    +0.000 A 
ATOM     14  C   UNL     1       7.708   5.944  19.260  0.00  0.00    +0.000 A 
ATOM     15  C   UNL     1       6.493   5.246  19.259  0.00  0.00    +0.000 A 
ENDBRANCH   5  10
BRANCH   1  16
ATOM     16  C   UNL     1       1.453   5.865  20.737  0.00  0.00    +0.000 C 
BRANCH  16  17
ATOM     17  C   UNL     1       1.590   7.393  20.732  0.00  0.00    +0.000 C 
BRANCH  17  18
ATOM     18  O   UNL     1       0.371   8.115  20.868  0.00  0.00    +0.000 OA
BRANCH  18  26
ATOM     19  C   UNL     1       1.088   9.543  18.119  0.00  0.00    +0.000 C 
ATOM     20  C   UNL     1       0.743  10.164  19.448  0.00  0.00    +0.000 A 
ATOM     21  C   UNL     1       0.714  11.575  19.433  0.00  0.00    +0.000 A 
ATOM     22  C   UNL     1       0.416  12.316  20.572  0.00  0.00    +0.000 A 
ATOM     23  C   UNL     1       0.136  11.659  21.752  0.00  0.00    +0.000 A 
ATOM     24  C   UNL     1       0.140  10.253  21.815  0.00  0.00    +0.000 A 
ATOM     25  C   UNL     1      -0.154   9.605  23.142  0.00  0.00    +0.000 C 
ATOM     26  C   UNL     1       0.447   9.484  20.661  0.00  0.00    +0.000 A 
ENDBRANCH  18  26
ENDBRANCH  17  18
ENDBRANCH  16  17
ENDBRANCH   1  16
TORSDOF 5
ENDMDL
MODEL 9
REMARK VINA RESULT:      -7.1      2.985      7.630
REMARK  Name = 
REMARK  8 active torsions:
REMARK  status: ('A' for Active; 'I' for Inactive)
REMARK    1  A    between atoms: C_1  and  C_2
REMARK    2  A    between atoms: C_6  and  C_7
REMARK    3  A    between atoms: C_8  and  O_9
REMARK    4  A    between atoms: O_9  and  C_10
REMARK    5  A    between atoms: C_10  and  C_11
REMARK    6  A    between atoms: C_11  and  N_12
REMARK    7  A    between atoms: C_16  and  C_17
REMARK    8  A    between atoms: C_16  and  C_18
REMARK                            x       y       z     vdW  Elec       q    Type
REMARK                         _______ _______ _______ _____ _____    ______ ____
ROOT
ATOM      1  N   UNL     1       1.172   8.907  20.326  0.00  0.00    +0.000 N 
ATOM      2  C   UNL     1       0.892   9.838  21.279  0.00  0.00    +0.000 C 
ATOM      3  O   UNL     1       1.066   9.750  22.479  0.00  0.00    +0.000 OA
ATOM      4  N   UNL     1       0.370  10.951  20.671  0.00  0.00    +0.000 N 
ATOM      5  C   UNL     1       0.363  10.863  19.231  0.00  0.00    +0.000 C 
ATOM      6  C   UNL     1       1.305  11.927  18.662  0.00  0.00    +0.000 C 
ATOM      7  C   UNL     1       1.015   9.466  19.082  0.00  0.00    +0.000 C 
ATOM      8  O   UNL     1       1.315   8.959  18.003  0.00  0.00    +0.000 OA
ATOM      9  H   UNL     1       0.047  11.743  21.209  0.00  0.00    +0.000 HD
ENDROOT
BRANCH   5  10
ATOM     10  C   UNL     1      -1.046  10.890  18.631  0.00  0.00    +0.000 A 
ATOM     11  C   UNL     1      -2.064  11.713  19.150  0.00  0.00    +0.000 A 
ATOM     12  C   UNL     1      -3.352  11.710  18.605  0.00  0.00    +0.000 A 
ATOM     13  C   UNL     1      -3.655  10.884  17.527  0.00  0.00    +0.000 A 
ATOM     14  C   UNL     1      -2.667  10.061  16.994  0.00  0.00    +0.000 A 
ATOM     15  C   UNL     1      -1.379  10.060  17.543  0.00  0.00    +0.000 A 
ENDBRANCH   5  10
BRANCH   1  16
ATOM     16  C   UNL     1       1.608   7.539  20.653  0.00  0.00    +0.000 C 
BRANCH  16  17
ATOM     17  C   UNL     1       2.568   6.973  19.599  0.00  0.00    +0.000 C 
BRANCH  17  18
ATOM     18  O   UNL     1       3.205   5.749  19.947  0.00  0.00    +0.000 OA
BRANCH  18  26
ATOM     19  C   UNL     1       4.404   5.408  17.022  0.00  0.00    +0.000 C 
ATOM     20  C   UNL     1       3.505   4.475  17.793  0.00  0.00    +0.000 A 
ATOM     21  C   UNL     1       3.193   3.282  17.108  0.00  0.00    +0.000 A 
ATOM     22  C   UNL     1       2.375   2.306  17.668  0.00  0.00    +0.000 A 
ATOM     23  C   UNL     1       1.853   2.504  18.930  0.00  0.00    +0.000 A 
ATOM     24  C   UNL     1       2.145   3.672  19.657  0.00  0.00    +0.000 A 
ATOM     25  C   UNL     1       1.522   3.829  21.020  0.00  0.00    +0.000 C 
ATOM     26  C   UNL     1       2.975   4.679  19.096  0.00  0.00    +0.000 A 
ENDBRANCH  18  26
ENDBRANCH  17  18
ENDBRANCH  16  17
ENDBRANCH   1  16
TORSDOF 5
ENDMDL
