MODEL 1
REMARK VINA RESULT:      -8.5      0.000      0.000
REMARK  Name = 
REMARK  9 active torsions:
REMARK  status: ('A' for Active; 'I' for Inactive)
REMARK    1  A    between atoms: C_1  and  O_2
REMARK    2  A    between atoms: O_2  and  C_3
REMARK    3  A    between atoms: C_6  and  C_7
REMARK    4  A    between atoms: C_10  and  C_11
REMARK    5  A    between atoms: C_15  and  C_16
REMARK    6  A    between atoms: C_18  and  C_19
REMARK    7  A    between atoms: C_19  and  O_20
REMARK    8  A    between atoms: C_21  and  O_22
REMARK    9  A    between atoms: C_23  and  O_24
REMARK                            x       y       z     vdW  Elec       q    Type
REMARK                         _______ _______ _______ _____ _____    ______ ____
ROOT
ATOM      1  C   UNL     1       3.365   3.694  19.627  0.00  0.00    +0.000 A 
ATOM      2  C   UNL     1       2.279   4.046  20.438  0.00  0.00    +0.000 A 
ATOM      3  C   UNL     1       1.805   5.360  20.464  0.00  0.00    +0.000 A 
ATOM      4  C   UNL     1       2.413   6.369  19.701  0.00  0.00    +0.000 A 
ATOM      5  C   UNL     1       3.543   6.002  18.945  0.00  0.00    +0.000 A 
ATOM      6  C   UNL     1       4.048   4.686  18.907  0.00  0.00    +0.000 A 
ENDROOT
BRANCH   4   7
ATOM      7  C   UNL     1       1.886   7.749  19.669  0.00  0.00    +0.000 A 
ATOM      8  C   UNL     1       1.934   8.520  18.496  0.00  0.00    +0.000 A 
ATOM      9  C   UNL     1       1.392   9.808  18.447  0.00  0.00    +0.000 A 
ATOM     10  C   UNL     1       0.803  10.373  19.577  0.00  0.00    +0.000 A 
ATOM     11  C   UNL     1       0.215  11.751  19.532  0.00  0.00    +0.000 C 
ATOM     12  C   UNL     1       0.763   9.631  20.758  0.00  0.00    +0.000 A 
ATOM     13  C   UNL     1       1.291   8.336  20.800  0.00  0.00    +0.000 A 
ENDBRANCH   4   7
BRANCH   6  14
ATOM     14  C   UNL     1       5.292   4.434  18.077  0.00  0.00    +0.000 C 
ATOM     15  O   UNL     1       6.449   4.321  18.921  0.00  0.00    +0.000 OA
ATOM     16  C   UNL     1       7.575   4.929  18.256  0.00  0.00    +0.000 C 
ATOM     17  C   UNL     1       7.092   5.551  16.947  0.00  0.00    +0.000 C 
ATOM     18  C   UNL     1       5.571   5.496  17.010  0.00  0.00    +0.000 C 
BRANCH  17  19
ATOM     19  O   UNL     1       7.559   4.807  15.809  0.00  0.00    +0.000 OA
ATOM     20  H   UNL     1       8.531   4.724  15.886  0.00  0.00    +0.000 HD
ENDBRANCH  17  19
BRANCH  18  21
ATOM     21  O   UNL     1       5.016   5.126  15.740  0.00  0.00    +0.000 OA
ATOM     22  H   UNL     1       5.064   4.150  15.691  0.00  0.00    +0.000 HD
ENDBRANCH  18  21
BRANCH  16  23
ATOM     23  C   UNL     1       8.191   5.950  19.208  0.00  0.00    +0.000 C 
BRANCH  23  24
ATOM     24  O   UNL     1       8.069   5.498  20.557  0.00  0.00    +0.000 OA
ATOM     25  H   UNL     1       8.984   5.332  20.859  0.00  0.00    +0.000 HD
ENDBRANCH  23  24
ENDBRANCH  16  23
ENDBRANCH   6  14
BRANCH   1  27
ATOM     26  C   UNL     1       3.130   1.616  18.551  0.00  0.00    +0.000 C 
ATOM     27  O   UNL     1       3.813   2.402  19.532  0.00  0.00    +0.000 OA
ENDBRANCH   1  27
TORSDOF 7
ENDMDL
MODEL 2
REMARK VINA RESULT:      -8.5      0.960      1.112
REMARK  Name = 
REMARK  9 active torsions:
REMARK  status: ('A' for Active; 'I' for Inactive)
REMARK    1  A    between atoms: C_1  and  O_2
REMARK    2  A    between atoms: O_2  and  C_3
REMARK    3  A    between atoms: C_6  and  C_7
REMARK    4  A    between atoms: C_10  and  C_11
REMARK    5  A    between atoms: C_15  and  C_16
REMARK    6  A    between atoms: C_18  and  C_19
REMARK    7  A    between atoms: C_19  and  O_20
REMARK    8  A    between atoms: C_21  and  O_22
REMARK    9  A    between atoms: C_23  and  O_24
REMARK                            x       y       z     vdW  Elec       q    Type
REMARK                         _______ _______ _______ _____ _____    ______ ____
ROOT
ATOM      1  C   UNL     1       3.453   3.675  19.908  0.00  0.00    +0.000 A 
ATOM      2  C   UNL     1       2.243   4.054  20.501  0.00  0.00    +0.000 A 
ATOM      3  C   UNL     1       1.774   5.366  20.390  0.00  0.00    +0.000 A 
ATOM      4  C   UNL     1       2.509   6.346  19.705  0.00  0.00    +0.000 A 
ATOM      5  C   UNL     1       3.752   5.955  19.175  0.00  0.00    +0.000 A 
ATOM      6  C   UNL     1       4.254   4.641  19.279  0.00  0.00    +0.000 A 
ENDROOT
BRANCH   4   7
ATOM      7  C   UNL     1       1.997   7.720  19.526  0.00  0.00    +0.000 A 
ATOM      8  C   UNL     1       2.111   8.384  18.293  0.00  0.00    +0.000 A 
ATOM      9  C   UNL     1       1.584   9.666  18.103  0.00  0.00    +0.000 A 
ATOM     10  C   UNL     1       0.947  10.332  19.148  0.00  0.00    +0.000 A 
ATOM     11  C   UNL     1       0.375  11.704  18.953  0.00  0.00    +0.000 C 
ATOM     12  C   UNL     1       0.841   9.698  20.387  0.00  0.00    +0.000 A 
ATOM     13  C   UNL     1       1.354   8.409  20.569  0.00  0.00    +0.000 A 
ENDBRANCH   4   7
BRANCH   6  14
ATOM     14  C   UNL     1       5.623   4.363  18.690  0.00  0.00    +0.000 C 
ATOM     15  O   UNL     1       6.620   5.187  19.316  0.00  0.00    +0.000 OA
ATOM     16  C   UNL     1       7.589   5.585  18.326  0.00  0.00    +0.000 C 
ATOM     17  C   UNL     1       7.137   5.062  16.963  0.00  0.00    +0.000 C 
ATOM     18  C   UNL     1       5.716   4.557  17.174  0.00  0.00    +0.000 C 
BRANCH  17  19
ATOM     19  O   UNL     1       7.975   3.985  16.511  0.00  0.00    +0.000 OA
ATOM     20  H   UNL     1       8.882   4.336  16.407  0.00  0.00    +0.000 HD
ENDBRANCH  17  19
BRANCH  18  21
ATOM     21  O   UNL     1       5.498   3.325  16.472  0.00  0.00    +0.000 OA
ATOM     22  H   UNL     1       4.636   2.980  16.778  0.00  0.00    +0.000 HD
ENDBRANCH  18  21
BRANCH  16  23
ATOM     23  C   UNL     1       7.711   7.105  18.368  0.00  0.00    +0.000 C 
BRANCH  23  24
ATOM     24  O   UNL     1       7.537   7.647  17.059  0.00  0.00    +0.000 OA
ATOM     25  H   UNL     1       7.938   6.993  16.452  0.00  0.00    +0.000 HD
ENDBRANCH  23  24
ENDBRANCH  16  23
ENDBRANCH   6  14
BRANCH   1  27
ATOM     26  C   UNL     1       3.480   1.578  18.843  0.00  0.00    +0.000 C 
ATOM     27  O   UNL     1       3.909   2.382  19.945  0.00  0.00    +0.000 OA
ENDBRANCH   1  27
TORSDOF 7
ENDMDL
MODEL 3
REMARK VINA RESULT:      -8.1      1.675      4.137
REMARK  Name = 
REMARK  9 active torsions:
REMARK  status: ('A' for Active; 'I' for Inactive)
REMARK    1  A    between atoms: C_1  and  O_2
REMARK    2  A    between atoms: O_2  and  C_3
REMARK    3  A    between atoms: C_6  and  C_7
REMARK    4  A    between atoms: C_10  and  C_11
REMARK    5  A    between atoms: C_15  and  C_16
REMARK    6  A    between atoms: C_18  and  C_19
REMARK    7  A    between atoms: C_19  and  O_20
REMARK    8  A    between atoms: C_21  and  O_22
REMARK    9  A    between atoms: C_23  and  O_24
REMARK                            x       y       z     vdW  Elec       q    Type
REMARK                         _______ _______ _______ _____ _____    ______ ____
ROOT
ATOM      1  C   UNL     1       3.944   6.429  17.226  0.00  0.00    +0.000 A 
ATOM      2  C   UNL     1       3.671   7.790  17.051  0.00  0.00    +0.000 A 
ATOM      3  C   UNL     1       2.831   8.470  17.937  0.00  0.00    +0.000 A 
ATOM      4  C   UNL     1       2.220   7.808  19.013  0.00  0.00    +0.000 A 
ATOM      5  C   UNL     1       2.460   6.426  19.129  0.00  0.00    +0.000 A 
ATOM      6  C   UNL     1       3.294   5.712  18.244  0.00  0.00    +0.000 A 
ENDROOT
BRANCH   4   7
ATOM      7  C   UNL     1       1.381   8.525  19.995  0.00  0.00    +0.000 A 
ATOM      8  C   UNL     1       1.369   8.155  21.350  0.00  0.00    +0.000 A 
ATOM      9  C   UNL     1       0.615   8.861  22.293  0.00  0.00    +0.000 A 
ATOM     10  C   UNL     1      -0.168   9.947  21.905  0.00  0.00    +0.000 A 
ATOM     11  C   UNL     1      -0.975  10.713  22.909  0.00  0.00    +0.000 C 
ATOM     12  C   UNL     1      -0.185  10.319  20.560  0.00  0.00    +0.000 A 
ATOM     13  C   UNL     1       0.584   9.621  19.622  0.00  0.00    +0.000 A 
ENDBRANCH   4   7
BRANCH   6  14
ATOM     14  C   UNL     1       3.441   4.220  18.464  0.00  0.00    +0.000 C 
ATOM     15  O   UNL     1       2.192   3.646  18.884  0.00  0.00    +0.000 OA
ATOM     16  C   UNL     1       2.455   2.609  19.851  0.00  0.00    +0.000 C 
ATOM     17  C   UNL     1       3.955   2.578  20.139  0.00  0.00    +0.000 C 
ATOM     18  C   UNL     1       4.520   3.828  19.478  0.00  0.00    +0.000 C 
BRANCH  17  19
ATOM     19  O   UNL     1       4.572   1.408  19.577  0.00  0.00    +0.000 OA
ATOM     20  H   UNL     1       4.097   0.625  19.920  0.00  0.00    +0.000 HD
ENDBRANCH  17  19
BRANCH  18  21
ATOM     21  O   UNL     1       5.771   3.549  18.833  0.00  0.00    +0.000 OA
ATOM     22  H   UNL     1       5.670   3.825  17.900  0.00  0.00    +0.000 HD
ENDBRANCH  18  21
BRANCH  16  23
ATOM     23  C   UNL     1       1.617   2.899  21.093  0.00  0.00    +0.000 C 
BRANCH  23  24
ATOM     24  O   UNL     1       2.444   2.880  22.257  0.00  0.00    +0.000 OA
ATOM     25  H   UNL     1       2.601   3.819  22.480  0.00  0.00    +0.000 HD
ENDBRANCH  23  24
ENDBRANCH  16  23
ENDBRANCH   6  14
BRANCH   1  27
ATOM     26  C   UNL     1       6.185   6.112  16.585  0.00  0.00    +0.000 C 
ATOM     27  O   UNL     1       4.812   5.749  16.411  0.00  0.00    +0.000 OA
ENDBRANCH   1  27
TORSDOF 7
ENDMDL
MODEL 4
REMARK VINA RESULT:      -8.0      4.297      7.609
REMARK  Name = 
REMARK  9 active torsions:
REMARK  status: ('A' for Active; 'I' for Inactive)
REMARK    1  A    between atoms: C_1  and  O_2
REMARK    2  A    between atoms: O_2  and  C_3
REMARK    3  A    between atoms: C_6  and  C_7
REMARK    4  A    between atoms: C_10  and  C_11
REMARK    5  A    between atoms: C_15  and  C_16
REMARK    6  A    between atoms: C_18  and  C_19
REMARK    7  A    between atoms: C_19  and  O_20
REMARK    8  A    between atoms: C_21  and  O_22
REMARK    9  A    between atoms: C_23  and  O_24
REMARK                            x       y       z     vdW  Elec       q    Type
REMARK                         _______ _______ _______ _____ _____    ______ ____
ROOT
ATOM      1  C   UNL     1       1.138   8.806  20.324  0.00  0.00    +0.000 A 
ATOM      2  C   UNL     1       1.577   7.553  20.764  0.00  0.00    +0.000 A 
ATOM      3  C   UNL     1       2.334   6.728  19.928  0.00  0.00    +0.000 A 
ATOM      4  C   UNL     1       2.657   7.118  18.620  0.00  0.00    +0.000 A 
ATOM      5  C   UNL     1       2.149   8.354  18.180  0.00  0.00    +0.000 A 
ATOM      6  C   UNL     1       1.374   9.202  18.998  0.00  0.00    +0.000 A 
ENDROOT
BRANCH   4   7
ATOM      7  C   UNL     1       3.510   6.285  17.746  0.00  0.00    +0.000 A 
ATOM      8  C   UNL     1       4.501   6.861  16.933  0.00  0.00    +0.000 A 
ATOM      9  C   UNL     1       5.344   6.074  16.141  0.00  0.00    +0.000 A 
ATOM     10  C   UNL     1       5.206   4.687  16.121  0.00  0.00    +0.000 A 
ATOM     11  C   UNL     1       6.107   3.835  15.280  0.00  0.00    +0.000 C 
ATOM     12  C   UNL     1       4.214   4.097  16.906  0.00  0.00    +0.000 A 
ATOM     13  C   UNL     1       3.384   4.886  17.710  0.00  0.00    +0.000 A 
ENDBRANCH   4   7
BRANCH   6  14
ATOM     14  C   UNL     1       0.861  10.492  18.388  0.00  0.00    +0.000 C 
ATOM     15  O   UNL     1       1.426  11.629  19.060  0.00  0.00    +0.000 OA
ATOM     16  C   UNL     1       0.429  12.667  19.144  0.00  0.00    +0.000 C 
ATOM     17  C   UNL     1      -0.883  12.131  18.574  0.00  0.00    +0.000 C 
ATOM     18  C   UNL     1      -0.663  10.635  18.389  0.00  0.00    +0.000 C 
BRANCH  17  19
ATOM     19  O   UNL     1      -1.191  12.738  17.307  0.00  0.00    +0.000 OA
ATOM     20  H   UNL     1      -1.942  13.350  17.444  0.00  0.00    +0.000 HD
ENDBRANCH  17  19
BRANCH  18  21
ATOM     21  O   UNL     1      -1.236  10.179  17.155  0.00  0.00    +0.000 OA
ATOM     22  H   UNL     1      -1.787   9.401  17.377  0.00  0.00    +0.000 HD
ENDBRANCH  18  21
BRANCH  16  23
ATOM     23  C   UNL     1       0.311  13.093  20.604  0.00  0.00    +0.000 C 
BRANCH  23  24
ATOM     24  O   UNL     1       1.291  12.416  21.392  0.00  0.00    +0.000 OA
ATOM     25  H   UNL     1       0.787  11.925  22.070  0.00  0.00    +0.000 HD
ENDBRANCH  23  24
ENDBRANCH  16  23
ENDBRANCH   6  14
BRANCH   1  27
ATOM     26  C   UNL     1      -0.271   9.018  22.196  0.00  0.00    +0.000 C 
ATOM     27  O   UNL     1       0.447   9.664  21.141  0.00  0.00    +0.000 OA
ENDBRANCH   1  27
TORSDOF 7
ENDMDL
MODEL 5
REMARK VINA RESULT:      -8.0      0.839      1.287
REMARK  Name = 
REMARK  9 active torsions:
REMARK  status: ('A' for Active; 'I' for Inactive)
REMARK    1  A    between atoms: C_1  and  O_2
REMARK    2  A    between atoms: O_2  and  C_3
REMARK    3  A    between atoms: C_6  and  C_7
REMARK    4  A    between atoms: C_10  and  C_11
REMARK    5  A    between atoms: C_15  and  C_16
REMARK    6  A    between atoms: C_18  and  C_19
REMARK    7  A    between atoms: C_19  and  O_20
REMARK    8  A    between atoms: C_21  and  O_22
REMARK    9  A    between atoms: C_23  and  O_24
REMARK                            x       y       z     vdW  Elec       q    Type
REMARK                         _______ _______ _______ _____ _____    ______ ____
ROOT
ATOM      1  C   UNL     1       3.318   3.883  19.376  0.00  0.00    +0.000 A 
ATOM      2  C   UNL     1       2.245   4.093  20.250  0.00  0.00    +0.000 A 
ATOM      3  C   UNL     1       1.733   5.377  20.456  0.00  0.00    +0.000 A 
ATOM      4  C   UNL     1       2.290   6.494  19.815  0.00  0.00    +0.000 A 
ATOM      5  C   UNL     1       3.408   6.264  18.992  0.00  0.00    +0.000 A 
ATOM      6  C   UNL     1       3.952   4.981  18.773  0.00  0.00    +0.000 A 
ENDROOT
BRANCH   4   7
ATOM      7  C   UNL     1       1.720   7.848  19.973  0.00  0.00    +0.000 A 
ATOM      8  C   UNL     1       1.240   8.296  21.214  0.00  0.00    +0.000 A 
ATOM      9  C   UNL     1       0.746   9.594  21.381  0.00  0.00    +0.000 A 
ATOM     10  C   UNL     1       0.697  10.477  20.304  0.00  0.00    +0.000 A 
ATOM     11  C   UNL     1       0.174  11.871  20.474  0.00  0.00    +0.000 C 
ATOM     12  C   UNL     1       1.151  10.045  19.057  0.00  0.00    +0.000 A 
ATOM     13  C   UNL     1       1.661   8.752  18.897  0.00  0.00    +0.000 A 
ENDBRANCH   4   7
BRANCH   6  14
ATOM     14  C   UNL     1       5.179   4.878  17.889  0.00  0.00    +0.000 C 
ATOM     15  O   UNL     1       6.324   4.478  18.658  0.00  0.00    +0.000 OA
ATOM     16  C   UNL     1       7.488   5.167  18.158  0.00  0.00    +0.000 C 
ATOM     17  C   UNL     1       7.049   6.138  17.064  0.00  0.00    +0.000 C 
ATOM     18  C   UNL     1       5.528   6.163  17.132  0.00  0.00    +0.000 C 
BRANCH  17  19
ATOM     19  O   UNL     1       7.471   5.690  15.765  0.00  0.00    +0.000 OA
ATOM     20  H   UNL     1       7.722   4.748  15.841  0.00  0.00    +0.000 HD
ENDBRANCH  17  19
BRANCH  18  21
ATOM     21  O   UNL     1       4.953   6.172  15.817  0.00  0.00    +0.000 OA
ATOM     22  H   UNL     1       4.254   5.489  15.816  0.00  0.00    +0.000 HD
ENDBRANCH  18  21
BRANCH  16  23
ATOM     23  C   UNL     1       8.165   5.864  19.335  0.00  0.00    +0.000 C 
BRANCH  23  24
ATOM     24  O   UNL     1       8.502   7.205  18.981  0.00  0.00    +0.000 OA
ATOM     25  H   UNL     1       9.143   7.500  19.658  0.00  0.00    +0.000 HD
ENDBRANCH  23  24
ENDBRANCH  16  23
ENDBRANCH   6  14
BRANCH   1  27
ATOM     26  C   UNL     1       4.446   1.997  20.215  0.00  0.00    +0.000 C 
ATOM     27  O   UNL     1       3.802   2.629  19.105  0.00  0.00    +0.000 OA
ENDBRANCH   1  27
TORSDOF 7
ENDMDL
MODEL 6
REMARK VINA RESULT:      -7.9      4.305      7.644
REMARK  Name = 
REMARK  9 active torsions:
REMARK  status: ('A' for Active; 'I' for Inactive)
REMARK    1  A    between atoms: C_1  and  O_2
REMARK    2  A    between atoms: O_2  and  C_3
REMARK    3  A    between atoms: C_6  and  C_7
REMARK    4  A    between atoms: C_10  and  C_11
REMARK    5  A    between atoms: C_15  and  C_16
REMARK    6  A    between atoms: C_18  and  C_19
REMARK    7  A    between atoms: C_19  and  O_20
REMARK    8  A    between atoms: C_21  and  O_22
REMARK    9  A    between atoms: C_23  and  O_24
REMARK                            x       y       z     vdW  Elec       q    Type
REMARK                         _______ _______ _______ _____ _____    ______ ____
ROOT
ATOM      1  C   UNL     1       1.103   8.778  20.356  0.00  0.00    +0.000 A 
ATOM      2  C   UNL     1       1.544   7.525  20.797  0.00  0.00    +0.000 A 
ATOM      3  C   UNL     1       2.318   6.709  19.968  0.00  0.00    +0.000 A 
ATOM      4  C   UNL     1       2.657   7.107  18.666  0.00  0.00    +0.000 A 
ATOM      5  C   UNL     1       2.147   8.343  18.225  0.00  0.00    +0.000 A 
ATOM      6  C   UNL     1       1.356   9.182  19.036  0.00  0.00    +0.000 A 
ENDROOT
BRANCH   4   7
ATOM      7  C   UNL     1       3.526   6.284  17.799  0.00  0.00    +0.000 A 
ATOM      8  C   UNL     1       3.399   4.886  17.758  0.00  0.00    +0.000 A 
ATOM      9  C   UNL     1       4.186   4.106  16.904  0.00  0.00    +0.000 A 
ATOM     10  C   UNL     1       5.140   4.700  16.080  0.00  0.00    +0.000 A 
ATOM     11  C   UNL     1       5.984   3.874  15.157  0.00  0.00    +0.000 C 
ATOM     12  C   UNL     1       5.296   6.087  16.120  0.00  0.00    +0.000 A 
ATOM     13  C   UNL     1       4.495   6.866  16.963  0.00  0.00    +0.000 A 
ENDBRANCH   4   7
BRANCH   6  14
ATOM     14  C   UNL     1       0.845  10.472  18.425  0.00  0.00    +0.000 C 
ATOM     15  O   UNL     1       1.401  11.609  19.104  0.00  0.00    +0.000 OA
ATOM     16  C   UNL     1       0.401  12.644  19.183  0.00  0.00    +0.000 C 
ATOM     17  C   UNL     1      -0.905  12.106  18.601  0.00  0.00    +0.000 C 
ATOM     18  C   UNL     1      -0.680  10.611  18.415  0.00  0.00    +0.000 C 
BRANCH  17  19
ATOM     19  O   UNL     1      -1.205  12.715  17.334  0.00  0.00    +0.000 OA
ATOM     20  H   UNL     1      -1.759  13.503  17.505  0.00  0.00    +0.000 HD
ENDBRANCH  17  19
BRANCH  18  21
ATOM     21  O   UNL     1      -1.243  10.156  17.175  0.00  0.00    +0.000 OA
ATOM     22  H   UNL     1      -0.493  10.039  16.558  0.00  0.00    +0.000 HD
ENDBRANCH  18  21
BRANCH  16  23
ATOM     23  C   UNL     1       0.271  13.066  20.643  0.00  0.00    +0.000 C 
BRANCH  23  24
ATOM     24  O   UNL     1       1.381  12.574  21.395  0.00  0.00    +0.000 OA
ATOM     25  H   UNL     1       1.075  12.547  22.323  0.00  0.00    +0.000 HD
ENDBRANCH  23  24
ENDBRANCH  16  23
ENDBRANCH   6  14
BRANCH   1  27
ATOM     26  C   UNL     1       0.528   9.349  22.564  0.00  0.00    +0.000 C 
ATOM     27  O   UNL     1       0.396   9.628  21.167  0.00  0.00    +0.000 OA
ENDBRANCH   1  27
TORSDOF 7
ENDMDL
MODEL 7
REMARK VINA RESULT:      -7.9      1.737      4.326
REMARK  Name = 
REMARK  9 active torsions:
REMARK  status: ('A' for Active; 'I' for Inactive)
REMARK    1  A    between atoms: C_1  and  O_2
REMARK    2  A    between atoms: O_2  and  C_3
REMARK    3  A    between atoms: C_6  and  C_7
REMARK    4  A    between atoms: C_10  and  C_11
REMARK    5  A    between atoms: C_15  and  C_16
REMARK    6  A    between atoms: C_18  and  C_19
REMARK    7  A    between atoms: C_19  and  O_20
REMARK    8  A    between atoms: C_21  and  O_22
REMARK    9  A    between atoms: C_23  and  O_24
REMARK                            x       y       z     vdW  Elec       q    Type
REMARK                         _______ _______ _______ _____ _____    ______ ____
ROOT
ATOM      1  C   UNL     1       4.953   5.461  16.688  0.00  0.00    +0.000 A 
ATOM      2  C   UNL     1       5.051   6.842  16.482  0.00  0.00    +0.000 A 
ATOM      3  C   UNL     1       4.150   7.720  17.091  0.00  0.00    +0.000 A 
ATOM      4  C   UNL     1       3.110   7.246  17.906  0.00  0.00    +0.000 A 
ATOM      5  C   UNL     1       2.995   5.850  18.044  0.00  0.00    +0.000 A 
ATOM      6  C   UNL     1       3.883   4.941  17.433  0.00  0.00    +0.000 A 
ENDROOT
BRANCH   4   7
ATOM      7  C   UNL     1       2.189   8.164  18.607  0.00  0.00    +0.000 A 
ATOM      8  C   UNL     1       1.567   9.227  17.933  0.00  0.00    +0.000 A 
ATOM      9  C   UNL     1       0.656  10.069  18.580  0.00  0.00    +0.000 A 
ATOM     10  C   UNL     1       0.356   9.885  19.928  0.00  0.00    +0.000 A 
ATOM     11  C   UNL     1      -0.622  10.779  20.629  0.00  0.00    +0.000 C 
ATOM     12  C   UNL     1       0.979   8.847  20.622  0.00  0.00    +0.000 A 
ATOM     13  C   UNL     1       1.877   7.996  19.968  0.00  0.00    +0.000 A 
ENDBRANCH   4   7
BRANCH   6  14
ATOM     14  C   UNL     1       3.625   3.461  17.638  0.00  0.00    +0.000 C 
ATOM     15  O   UNL     1       2.282   3.124  17.255  0.00  0.00    +0.000 OA
ATOM     16  C   UNL     1       1.775   2.122  18.159  0.00  0.00    +0.000 C 
ATOM     17  C   UNL     1       2.821   1.867  19.243  0.00  0.00    +0.000 C 
ATOM     18  C   UNL     1       3.861   2.965  19.067  0.00  0.00    +0.000 C 
BRANCH  17  19
ATOM     19  O   UNL     1       3.439   0.579  19.082  0.00  0.00    +0.000 OA
ATOM     20  H   UNL     1       2.844  -0.090  19.475  0.00  0.00    +0.000 HD
ENDBRANCH  17  19
BRANCH  18  21
ATOM     21  O   UNL     1       5.189   2.447  19.232  0.00  0.00    +0.000 OA
ATOM     22  H   UNL     1       5.712   3.155  19.659  0.00  0.00    +0.000 HD
ENDBRANCH  18  21
BRANCH  16  23
ATOM     23  C   UNL     1       0.447   2.621  18.721  0.00  0.00    +0.000 C 
BRANCH  23  24
ATOM     24  O   UNL     1       0.588   2.932  20.107  0.00  0.00    +0.000 OA
ATOM     25  H   UNL     1       1.363   2.420  20.411  0.00  0.00    +0.000 HD
ENDBRANCH  23  24
ENDBRANCH  16  23
ENDBRANCH   6  14
BRANCH   1  27
ATOM     26  C   UNL     1       7.141   4.605  16.786  0.00  0.00    +0.000 C 
ATOM     27  O   UNL     1       5.858   4.579  16.155  0.00  0.00    +0.000 OA
ENDBRANCH   1  27
TORSDOF 7
ENDMDL
MODEL 8
REMARK VINA RESULT:      -7.9      1.659      4.101
REMARK  Name = 
REMARK  9 active torsions:
REMARK  status: ('A' for Active; 'I' for Inactive)
REMARK    1  A    between atoms: C_1  and  O_2
REMARK    2  A    between atoms: O_2  and  C_3
REMARK    3  A    between atoms: C_6  and  C_7
REMARK    4  A    between atoms: C_10  and  C_11
REMARK    5  A    between atoms: C_15  and  C_16
REMARK    6  A    between atoms: C_18  and  C_19
REMARK    7  A    between atoms: C_19  and  O_20
REMARK    8  A    between atoms: C_21  and  O_22
REMARK    9  A    between atoms: C_23  and  O_24
REMARK                            x       y       z     vdW  Elec       q    Type
REMARK                         _______ _______ _______ _____ _____    ______ ____
ROOT
ATOM      1  C   UNL     1       3.986   6.380  17.141  0.00  0.00    +0.000 A 
ATOM      2  C   UNL     1       3.645   7.721  16.929  0.00  0.00    +0.000 A 
ATOM      3  C   UNL     1       2.830   8.402  17.837  0.00  0.00    +0.000 A 
ATOM      4  C   UNL     1       2.312   7.761  18.973  0.00  0.00    +0.000 A 
ATOM      5  C   UNL     1       2.617   6.395  19.128  0.00  0.00    +0.000 A 
ATOM      6  C   UNL     1       3.429   5.681  18.223  0.00  0.00    +0.000 A 
ENDROOT
BRANCH   4   7
ATOM      7  C   UNL     1       1.501   8.483  19.975  0.00  0.00    +0.000 A 
ATOM      8  C   UNL     1       0.693   9.572  19.610  0.00  0.00    +0.000 A 
ATOM      9  C   UNL     1      -0.115  10.228  20.545  0.00  0.00    +0.000 A 
ATOM     10  C   UNL     1      -0.121   9.828  21.880  0.00  0.00    +0.000 A 
ATOM     11  C   UNL     1      -0.986  10.521  22.889  0.00  0.00    +0.000 C 
ATOM     12  C   UNL     1       0.691   8.761  22.268  0.00  0.00    +0.000 A 
ATOM     13  C   UNL     1       1.484   8.095  21.326  0.00  0.00    +0.000 A 
ENDBRANCH   4   7
BRANCH   6  14
ATOM     14  C   UNL     1       3.652   4.206  18.491  0.00  0.00    +0.000 C 
ATOM     15  O   UNL     1       2.432   3.581  18.923  0.00  0.00    +0.000 OA
ATOM     16  C   UNL     1       2.743   2.590  19.924  0.00  0.00    +0.000 C 
ATOM     17  C   UNL     1       4.240   2.647  20.220  0.00  0.00    +0.000 C 
ATOM     18  C   UNL     1       4.743   3.904  19.522  0.00  0.00    +0.000 C 
BRANCH  17  19
ATOM     19  O   UNL     1       4.922   1.494  19.699  0.00  0.00    +0.000 OA
ATOM     20  H   UNL     1       4.611   0.713  20.197  0.00  0.00    +0.000 HD
ENDBRANCH  17  19
BRANCH  18  21
ATOM     21  O   UNL     1       6.012   3.671  18.893  0.00  0.00    +0.000 OA
ATOM     22  H   UNL     1       5.818   3.308  18.005  0.00  0.00    +0.000 HD
ENDBRANCH  18  21
BRANCH  16  23
ATOM     23  C   UNL     1       1.883   2.875  21.153  0.00  0.00    +0.000 C 
BRANCH  23  24
ATOM     24  O   UNL     1       0.586   3.315  20.751  0.00  0.00    +0.000 OA
ATOM     25  H   UNL     1       0.708   3.709  19.864  0.00  0.00    +0.000 HD
ENDBRANCH  23  24
ENDBRANCH  16  23
ENDBRANCH   6  14
BRANCH   1  27
ATOM     26  C   UNL     1       6.211   6.063  16.446  0.00  0.00    +0.000 C 
ATOM     27  O   UNL     1       4.834   5.704  16.302  0.00  0.00    +0.000 OA
ENDBRANCH   1  27
TORSDOF 7
ENDMDL
MODEL 9
REMARK VINA RESULT:      -7.8      0.872      1.305
REMARK  Name = 
REMARK  9 active torsions:
REMARK  status: ('A' for Active; 'I' for Inactive)
REMARK    1  A    between atoms: C_1  and  O_2
REMARK    2  A    between atoms: O_2  and  C_3
REMARK    3  A    between atoms: C_6  and  C_7
REMARK    4  A    between atoms: C_10  and  C_11
REMARK    5  A    between atoms: C_15  and  C_16
REMARK    6  A    between atoms: C_18  and  C_19
REMARK    7  A    between atoms: C_19  and  O_20
REMARK    8  A    between atoms: C_21  and  O_22
REMARK    9  A    between atoms: C_23  and  O_24
REMARK                            x       y       z     vdW  Elec       q    Type
REMARK                         _______ _______ _______ _____ _____    ______ ____
ROOT
ATOM      1  C   UNL     1       3.038   3.322  18.249  0.00  0.00    +0.000 A 
ATOM      2  C   UNL     1       1.823   3.536  18.911  0.00  0.00    +0.000 A 
ATOM      3  C   UNL     1       1.446   4.820  19.311  0.00  0.00    +0.000 A 
ATOM      4  C   UNL     1       2.278   5.927  19.085  0.00  0.00    +0.000 A 
ATOM      5  C   UNL     1       3.521   5.675  18.477  0.00  0.00    +0.000 A 
ATOM      6  C   UNL     1       3.933   4.389  18.071  0.00  0.00    +0.000 A 
ENDROOT
BRANCH   4   7
ATOM      7  C   UNL     1       1.865   7.299  19.446  0.00  0.00    +0.000 A 
ATOM      8  C   UNL     1       1.483   7.624  20.758  0.00  0.00    +0.000 A 
ATOM      9  C   UNL     1       1.140   8.932  21.116  0.00  0.00    +0.000 A 
ATOM     10  C   UNL     1       1.146   9.951  20.166  0.00  0.00    +0.000 A 
ATOM     11  C   UNL     1       0.785  11.357  20.541  0.00  0.00    +0.000 C 
ATOM     12  C   UNL     1       1.503   9.646  18.852  0.00  0.00    +0.000 A 
ATOM     13  C   UNL     1       1.863   8.340  18.501  0.00  0.00    +0.000 A 
ENDBRANCH   4   7
BRANCH   6  14
ATOM     14  C   UNL     1       5.312   4.253  17.457  0.00  0.00    +0.000 C 
ATOM     15  O   UNL     1       6.324   4.266  18.477  0.00  0.00    +0.000 OA
ATOM     16  C   UNL     1       7.478   4.975  17.984  0.00  0.00    +0.000 C 
ATOM     17  C   UNL     1       7.155   5.530  16.598  0.00  0.00    +0.000 C 
ATOM     18  C   UNL     1       5.656   5.325  16.419  0.00  0.00    +0.000 C 
BRANCH  17  19
ATOM     19  O   UNL     1       7.869   4.824  15.570  0.00  0.00    +0.000 OA
ATOM     20  H   UNL     1       7.227   4.581  14.874  0.00  0.00    +0.000 HD
ENDBRANCH  17  19
BRANCH  18  21
ATOM     21  O   UNL     1       5.352   4.886  15.087  0.00  0.00    +0.000 OA
ATOM     22  H   UNL     1       5.202   5.694  14.557  0.00  0.00    +0.000 HD
ENDBRANCH  18  21
BRANCH  16  23
ATOM     23  C   UNL     1       7.831   6.064  18.993  0.00  0.00    +0.000 C 
BRANCH  23  24
ATOM     24  O   UNL     1       7.984   5.495  20.294  0.00  0.00    +0.000 OA
ATOM     25  H   UNL     1       8.918   5.650  20.537  0.00  0.00    +0.000 HD
ENDBRANCH  23  24
ENDBRANCH  16  23
ENDBRANCH   6  14
BRANCH   1  27
ATOM     26  C   UNL     1       3.742   1.151  18.819  0.00  0.00    +0.000 C 
ATOM     27  O   UNL     1       3.408   2.084  17.788  0.00  0.00    +0.000 OA
ENDBRANCH   1  27
TORSDOF 7
ENDMDL
