MODEL 1
REMARK VINA RESULT:      -7.6      0.000      0.000
REMARK  Name = 
REMARK  6 active torsions:
REMARK  status: ('A' for Active; 'I' for Inactive)
REMARK    1  A    between atoms: C_1  and  O_2
REMARK    2  A    between atoms: O_2  and  C_3
REMARK    3  A    between atoms: C_5  and  O_6
REMARK    4  A    between atoms: O_6  and  C_7
REMARK    5  A    between atoms: C_9  and  C_10
REMARK    6  A    between atoms: C_20  and  C_21
REMARK                            x       y       z     vdW  Elec       q    Type
REMARK                         _______ _______ _______ _____ _____    ______ ____
ROOT
ATOM      1  C   UNL     1       0.333   8.555  21.303  0.00  0.00    +0.000 A 
ATOM      2  C   UNL     1       0.997   7.331  21.360  0.00  0.00    +0.000 A 
ATOM      3  C   UNL     1       1.903   6.940  20.365  0.00  0.00    +0.000 A 
ATOM      4  C   UNL     1       2.082   7.774  19.223  0.00  0.00    +0.000 A 
ATOM      5  C   UNL     1       2.881   7.693  18.019  0.00  0.00    +0.000 A 
ATOM      6  C   UNL     1       2.653   8.853  17.307  0.00  0.00    +0.000 A 
ATOM      7  N   UNL     1       1.754   9.619  18.000  0.00  0.00    +0.000 N 
ATOM      8  C   UNL     1       1.388   8.990  19.173  0.00  0.00    +0.000 A 
ATOM      9  C   UNL     1       0.526   9.411  20.205  0.00  0.00    +0.000 A 
ATOM     10  H   UNL     1       1.416  10.525  17.709  0.00  0.00    +0.000 HD
ENDROOT
BRANCH   9  11
ATOM     11  C   UNL     1      -0.081  10.741  20.121  0.00  0.00    +0.000 C 
ATOM     12  C   UNL     1      -1.107  11.047  19.317  0.00  0.00    +0.000 C 
ATOM     13  S   UNL     1      -1.983   9.985  18.269  0.00  0.00    +0.000 S 
ATOM     14  C   UNL     1      -2.942  11.288  17.614  0.00  0.00    +0.000 C 
ATOM     15  S   UNL     1      -4.086  11.167  16.422  0.00  0.00    +0.000 S 
ATOM     16  N   UNL     1      -2.615  12.459  18.232  0.00  0.00    +0.000 N 
ATOM     17  C   UNL     1      -1.641  12.431  19.188  0.00  0.00    +0.000 C 
ATOM     18  O   UNL     1      -1.272  13.399  19.840  0.00  0.00    +0.000 OA
ATOM     19  H   UNL     1      -3.075  13.322  17.997  0.00  0.00    +0.000 HD
ENDBRANCH   9  11
BRANCH   5  20
ATOM     20  C   UNL     1       3.815   6.655  17.581  0.00  0.00    +0.000 A 
ATOM     21  C   UNL     1       5.117   6.992  17.187  0.00  0.00    +0.000 A 
ATOM     22  C   UNL     1       5.955   6.058  16.575  0.00  0.00    +0.000 A 
ATOM     23  C   UNL     1       5.526   4.744  16.432  0.00  0.00    +0.000 A 
ATOM     24 CL   UNL     1       6.542   3.594  15.657  0.00  0.00    +0.000 Cl
ATOM     25  C   UNL     1       4.274   4.360  16.911  0.00  0.00    +0.000 A 
ATOM     26  C   UNL     1       3.418   5.314  17.474  0.00  0.00    +0.000 A 
ENDBRANCH   5  20
BRANCH   1  28
ATOM     27  C   UNL     1       0.075   9.491  23.467  0.00  0.00    +0.000 C 
ATOM     28  O   UNL     1      -0.534   8.986  22.281  0.00  0.00    +0.000 OA
ENDBRANCH   1  28
BRANCH   3  29
ATOM     29  O   UNL     1       2.659   5.801  20.457  0.00  0.00    +0.000 OA
ATOM     30  C   UNL     1       2.046   4.600  20.898  0.00  0.00    +0.000 C 
ENDBRANCH   3  29
TORSDOF 4
ENDMDL
MODEL 2
REMARK VINA RESULT:      -7.1      1.594      1.898
REMARK  Name = 
REMARK  6 active torsions:
REMARK  status: ('A' for Active; 'I' for Inactive)
REMARK    1  A    between atoms: C_1  and  O_2
REMARK    2  A    between atoms: O_2  and  C_3
REMARK    3  A    between atoms: C_5  and  O_6
REMARK    4  A    between atoms: O_6  and  C_7
REMARK    5  A    between atoms: C_9  and  C_10
REMARK    6  A    between atoms: C_20  and  C_21
REMARK                            x       y       z     vdW  Elec       q    Type
REMARK                         _______ _______ _______ _____ _____    ______ ____
ROOT
ATOM      1  C   UNL     1       0.676   8.981  21.164  0.00  0.00    +0.000 A 
ATOM      2  C   UNL     1       0.954   7.684  21.589  0.00  0.00    +0.000 A 
ATOM      3  C   UNL     1       1.628   6.770  20.766  0.00  0.00    +0.000 A 
ATOM      4  C   UNL     1       1.956   7.148  19.432  0.00  0.00    +0.000 A 
ATOM      5  C   UNL     1       2.601   6.489  18.316  0.00  0.00    +0.000 A 
ATOM      6  C   UNL     1       2.669   7.410  17.291  0.00  0.00    +0.000 A 
ATOM      7  N   UNL     1       2.089   8.576  17.714  0.00  0.00    +0.000 N 
ATOM      8  C   UNL     1       1.646   8.450  19.015  0.00  0.00    +0.000 A 
ATOM      9  C   UNL     1       1.027   9.387  19.865  0.00  0.00    +0.000 A 
ATOM     10  H   UNL     1       2.010   9.419  17.164  0.00  0.00    +0.000 HD
ENDROOT
BRANCH   9  11
ATOM     11  C   UNL     1       0.831  10.757  19.383  0.00  0.00    +0.000 C 
ATOM     12  C   UNL     1      -0.252  11.167  18.711  0.00  0.00    +0.000 C 
ATOM     13  S   UNL     1      -1.662  10.247  18.313  0.00  0.00    +0.000 S 
ATOM     14  C   UNL     1      -2.353  11.552  17.383  0.00  0.00    +0.000 C 
ATOM     15  S   UNL     1      -3.779  11.515  16.541  0.00  0.00    +0.000 S 
ATOM     16  N   UNL     1      -1.538  12.644  17.442  0.00  0.00    +0.000 N 
ATOM     17  C   UNL     1      -0.378  12.543  18.155  0.00  0.00    +0.000 C 
ATOM     18  O   UNL     1       0.426  13.450  18.315  0.00  0.00    +0.000 OA
ATOM     19  H   UNL     1      -1.778  13.503  16.977  0.00  0.00    +0.000 HD
ENDBRANCH   9  11
BRANCH   5  20
ATOM     20  C   UNL     1       3.154   5.138  18.218  0.00  0.00    +0.000 A 
ATOM     21  C   UNL     1       2.483   4.147  17.488  0.00  0.00    +0.000 A 
ATOM     22  C   UNL     1       2.876   2.809  17.549  0.00  0.00    +0.000 A 
ATOM     23  C   UNL     1       4.009   2.461  18.273  0.00  0.00    +0.000 A 
ATOM     24 CL   UNL     1       4.487   0.813  18.372  0.00  0.00    +0.000 Cl
ATOM     25  C   UNL     1       4.755   3.445  18.923  0.00  0.00    +0.000 A 
ATOM     26  C   UNL     1       4.323   4.777  18.904  0.00  0.00    +0.000 A 
ENDBRANCH   5  20
BRANCH   1  28
ATOM     27  C   UNL     1      -0.120   9.546  23.325  0.00  0.00    +0.000 C 
ATOM     28  O   UNL     1       0.051   9.914  21.958  0.00  0.00    +0.000 OA
ENDBRANCH   1  28
BRANCH   3  29
ATOM     29  O   UNL     1       2.022   5.532  21.201  0.00  0.00    +0.000 OA
ATOM     30  C   UNL     1       1.220   4.404  20.889  0.00  0.00    +0.000 C 
ENDBRANCH   3  29
TORSDOF 4
ENDMDL
MODEL 3
REMARK VINA RESULT:      -6.6      3.846      5.718
REMARK  Name = 
REMARK  6 active torsions:
REMARK  status: ('A' for Active; 'I' for Inactive)
REMARK    1  A    between atoms: C_1  and  O_2
REMARK    2  A    between atoms: O_2  and  C_3
REMARK    3  A    between atoms: C_5  and  O_6
REMARK    4  A    between atoms: O_6  and  C_7
REMARK    5  A    between atoms: C_9  and  C_10
REMARK    6  A    between atoms: C_20  and  C_21
REMARK                            x       y       z     vdW  Elec       q    Type
REMARK                         _______ _______ _______ _____ _____    ______ ____
ROOT
ATOM      1  C   UNL     1      -2.897  12.497  20.126  0.00  0.00    +0.000 A 
ATOM      2  C   UNL     1      -2.551  11.795  18.973  0.00  0.00    +0.000 A 
ATOM      3  C   UNL     1      -1.489  10.881  18.961  0.00  0.00    +0.000 A 
ATOM      4  C   UNL     1      -0.688  10.731  20.130  0.00  0.00    +0.000 A 
ATOM      5  C   UNL     1       0.470   9.934  20.476  0.00  0.00    +0.000 A 
ATOM      6  C   UNL     1       0.760  10.201  21.799  0.00  0.00    +0.000 A 
ATOM      7  N   UNL     1      -0.141  11.121  22.265  0.00  0.00    +0.000 N 
ATOM      8  C   UNL     1      -1.038  11.463  21.273  0.00  0.00    +0.000 A 
ATOM      9  C   UNL     1      -2.145  12.334  21.302  0.00  0.00    +0.000 A 
ATOM     10  H   UNL     1      -0.164  11.489  23.205  0.00  0.00    +0.000 HD
ENDROOT
BRANCH   9  11
ATOM     11  C   UNL     1      -2.502  12.983  22.566  0.00  0.00    +0.000 C 
ATOM     12  C   UNL     1      -1.895  14.077  23.043  0.00  0.00    +0.000 C 
ATOM     13  S   UNL     1      -0.639  15.003  22.295  0.00  0.00    +0.000 S 
ATOM     14  C   UNL     1      -0.467  16.046  23.684  0.00  0.00    +0.000 C 
ATOM     15  S   UNL     1       0.627  17.276  23.862  0.00  0.00    +0.000 S 
ATOM     16  N   UNL     1      -1.383  15.705  24.635  0.00  0.00    +0.000 N 
ATOM     17  C   UNL     1      -2.219  14.658  24.376  0.00  0.00    +0.000 C 
ATOM     18  O   UNL     1      -3.103  14.266  25.125  0.00  0.00    +0.000 OA
ATOM     19  H   UNL     1      -1.446  16.205  25.506  0.00  0.00    +0.000 HD
ENDBRANCH   9  11
BRANCH   5  20
ATOM     20  C   UNL     1       1.219   8.970  19.671  0.00  0.00    +0.000 A 
ATOM     21  C   UNL     1       1.583   7.727  20.207  0.00  0.00    +0.000 A 
ATOM     22  C   UNL     1       2.468   6.879  19.539  0.00  0.00    +0.000 A 
ATOM     23  C   UNL     1       2.929   7.229  18.276  0.00  0.00    +0.000 A 
ATOM     24 CL   UNL     1       4.038   6.202  17.457  0.00  0.00    +0.000 Cl
ATOM     25  C   UNL     1       2.499   8.413  17.676  0.00  0.00    +0.000 A 
ATOM     26  C   UNL     1       1.655   9.284  18.375  0.00  0.00    +0.000 A 
ENDBRANCH   5  20
BRANCH   1  28
ATOM     27  C   UNL     1      -5.247  12.792  20.020  0.00  0.00    +0.000 C 
ATOM     28  O   UNL     1      -3.956  13.373  20.182  0.00  0.00    +0.000 OA
ENDBRANCH   1  28
BRANCH   3  29
ATOM     29  O   UNL     1      -1.204  10.089  17.879  0.00  0.00    +0.000 OA
ATOM     30  C   UNL     1      -2.154   9.986  16.830  0.00  0.00    +0.000 C 
ENDBRANCH   3  29
TORSDOF 4
ENDMDL
MODEL 4
REMARK VINA RESULT:      -6.6      2.152      2.570
REMARK  Name = 
REMARK  6 active torsions:
REMARK  status: ('A' for Active; 'I' for Inactive)
REMARK    1  A    between atoms: C_1  and  O_2
REMARK    2  A    between atoms: O_2  and  C_3
REMARK    3  A    between atoms: C_5  and  O_6
REMARK    4  A    between atoms: O_6  and  C_7
REMARK    5  A    between atoms: C_9  and  C_10
REMARK    6  A    between atoms: C_20  and  C_21
REMARK                            x       y       z     vdW  Elec       q    Type
REMARK                         _______ _______ _______ _____ _____    ______ ____
ROOT
ATOM      1  C   UNL     1       0.138   8.919  21.320  0.00  0.00    +0.000 A 
ATOM      2  C   UNL     1       0.850   7.727  21.438  0.00  0.00    +0.000 A 
ATOM      3  C   UNL     1       1.744   7.304  20.445  0.00  0.00    +0.000 A 
ATOM      4  C   UNL     1       1.861   8.065  19.246  0.00  0.00    +0.000 A 
ATOM      5  C   UNL     1       2.629   7.932  18.026  0.00  0.00    +0.000 A 
ATOM      6  C   UNL     1       2.338   9.033  17.246  0.00  0.00    +0.000 A 
ATOM      7  N   UNL     1       1.428   9.810  17.913  0.00  0.00    +0.000 N 
ATOM      8  C   UNL     1       1.118   9.249  19.136  0.00  0.00    +0.000 A 
ATOM      9  C   UNL     1       0.269   9.705  20.162  0.00  0.00    +0.000 A 
ATOM     10  H   UNL     1       1.047  10.681  17.573  0.00  0.00    +0.000 HD
ENDROOT
BRANCH   9  11
ATOM     11  C   UNL     1      -0.392  11.004  20.008  0.00  0.00    +0.000 C 
ATOM     12  C   UNL     1       0.183  12.177  20.303  0.00  0.00    +0.000 C 
ATOM     13  S   UNL     1       1.800  12.454  20.854  0.00  0.00    +0.000 S 
ATOM     14  C   UNL     1       1.524  14.164  21.065  0.00  0.00    +0.000 C 
ATOM     15  S   UNL     1       2.606  15.272  21.651  0.00  0.00    +0.000 S 
ATOM     16  N   UNL     1       0.257  14.480  20.671  0.00  0.00    +0.000 N 
ATOM     17  C   UNL     1      -0.547  13.472  20.223  0.00  0.00    +0.000 C 
ATOM     18  O   UNL     1      -1.690  13.618  19.812  0.00  0.00    +0.000 OA
ATOM     19  H   UNL     1      -0.083  15.426  20.706  0.00  0.00    +0.000 HD
ENDBRANCH   9  11
BRANCH   5  20
ATOM     20  C   UNL     1       3.591   6.903  17.632  0.00  0.00    +0.000 A 
ATOM     21  C   UNL     1       4.879   7.259  17.207  0.00  0.00    +0.000 A 
ATOM     22  C   UNL     1       5.739   6.321  16.633  0.00  0.00    +0.000 A 
ATOM     23  C   UNL     1       5.350   4.990  16.562  0.00  0.00    +0.000 A 
ATOM     24 CL   UNL     1       6.394   3.833  15.835  0.00  0.00    +0.000 Cl
ATOM     25  C   UNL     1       4.115   4.592  17.072  0.00  0.00    +0.000 A 
ATOM     26  C   UNL     1       3.235   5.547  17.596  0.00  0.00    +0.000 A 
ENDBRANCH   5  20
BRANCH   1  28
ATOM     27  C   UNL     1      -0.126   9.650  23.560  0.00  0.00    +0.000 C 
ATOM     28  O   UNL     1      -0.718   9.382  22.292  0.00  0.00    +0.000 OA
ENDBRANCH   1  28
BRANCH   3  29
ATOM     29  O   UNL     1       2.546   6.202  20.590  0.00  0.00    +0.000 OA
ATOM     30  C   UNL     1       1.951   4.952  20.898  0.00  0.00    +0.000 C 
ENDBRANCH   3  29
TORSDOF 4
ENDMDL
MODEL 5
REMARK VINA RESULT:      -6.6      2.072      3.368
REMARK  Name = 
REMARK  6 active torsions:
REMARK  status: ('A' for Active; 'I' for Inactive)
REMARK    1  A    between atoms: C_1  and  O_2
REMARK    2  A    between atoms: O_2  and  C_3
REMARK    3  A    between atoms: C_5  and  O_6
REMARK    4  A    between atoms: O_6  and  C_7
REMARK    5  A    between atoms: C_9  and  C_10
REMARK    6  A    between atoms: C_20  and  C_21
REMARK                            x       y       z     vdW  Elec       q    Type
REMARK                         _______ _______ _______ _____ _____    ______ ____
ROOT
ATOM      1  C   UNL     1       1.837  10.203  18.193  0.00  0.00    +0.000 A 
ATOM      2  C   UNL     1       2.568   9.193  17.572  0.00  0.00    +0.000 A 
ATOM      3  C   UNL     1       2.623   7.896  18.100  0.00  0.00    +0.000 A 
ATOM      4  C   UNL     1       1.991   7.627  19.348  0.00  0.00    +0.000 A 
ATOM      5  C   UNL     1       1.862   6.458  20.193  0.00  0.00    +0.000 A 
ATOM      6  C   UNL     1       1.077   6.825  21.268  0.00  0.00    +0.000 A 
ATOM      7  N   UNL     1       0.740   8.145  21.130  0.00  0.00    +0.000 N 
ATOM      8  C   UNL     1       1.280   8.662  19.970  0.00  0.00    +0.000 A 
ATOM      9  C   UNL     1       1.172   9.948  19.405  0.00  0.00    +0.000 A 
ATOM     10  H   UNL     1       0.164   8.669  21.773  0.00  0.00    +0.000 HD
ENDROOT
BRANCH   9  11
ATOM     11  C   UNL     1       0.326  10.943  20.069  0.00  0.00    +0.000 C 
ATOM     12  C   UNL     1      -0.920  11.245  19.682  0.00  0.00    +0.000 C 
ATOM     13  S   UNL     1      -1.833  10.527  18.400  0.00  0.00    +0.000 S 
ATOM     14  C   UNL     1      -3.162  11.638  18.613  0.00  0.00    +0.000 C 
ATOM     15  S   UNL     1      -4.545  11.706  17.703  0.00  0.00    +0.000 S 
ATOM     16  N   UNL     1      -2.905  12.471  19.661  0.00  0.00    +0.000 N 
ATOM     17  C   UNL     1      -1.719  12.327  20.321  0.00  0.00    +0.000 C 
ATOM     18  O   UNL     1      -1.375  12.985  21.294  0.00  0.00    +0.000 OA
ATOM     19  H   UNL     1      -3.566  13.175  19.946  0.00  0.00    +0.000 HD
ENDBRANCH   9  11
BRANCH   5  20
ATOM     20  C   UNL     1       2.378   5.102  20.003  0.00  0.00    +0.000 A 
ATOM     21  C   UNL     1       3.751   4.883  19.828  0.00  0.00    +0.000 A 
ATOM     22  C   UNL     1       4.243   3.635  19.442  0.00  0.00    +0.000 A 
ATOM     23  C   UNL     1       3.368   2.564  19.315  0.00  0.00    +0.000 A 
ATOM     24 CL   UNL     1       3.963   1.030  18.817  0.00  0.00    +0.000 Cl
ATOM     25  C   UNL     1       2.010   2.732  19.586  0.00  0.00    +0.000 A 
ATOM     26  C   UNL     1       1.516   3.999  19.919  0.00  0.00    +0.000 A 
ENDBRANCH   5  20
BRANCH   1  28
ATOM     27  C   UNL     1       2.718  12.404  18.126  0.00  0.00    +0.000 C 
ATOM     28  O   UNL     1       1.731  11.476  17.683  0.00  0.00    +0.000 OA
ENDBRANCH   1  28
BRANCH   3  29
ATOM     29  O   UNL     1       3.231   6.855  17.447  0.00  0.00    +0.000 OA
ATOM     30  C   UNL     1       4.591   6.982  17.063  0.00  0.00    +0.000 C 
ENDBRANCH   3  29
TORSDOF 4
ENDMDL
MODEL 6
REMARK VINA RESULT:      -6.6      4.328      7.797
REMARK  Name = 
REMARK  6 active torsions:
REMARK  status: ('A' for Active; 'I' for Inactive)
REMARK    1  A    between atoms: C_1  and  O_2
REMARK    2  A    between atoms: O_2  and  C_3
REMARK    3  A    between atoms: C_5  and  O_6
REMARK    4  A    between atoms: O_6  and  C_7
REMARK    5  A    between atoms: C_9  and  C_10
REMARK    6  A    between atoms: C_20  and  C_21
REMARK                            x       y       z     vdW  Elec       q    Type
REMARK                         _______ _______ _______ _____ _____    ______ ____
ROOT
ATOM      1  C   UNL     1       1.767   6.290  20.633  0.00  0.00    +0.000 A 
ATOM      2  C   UNL     1       1.307   7.334  21.433  0.00  0.00    +0.000 A 
ATOM      3  C   UNL     1       1.109   8.622  20.917  0.00  0.00    +0.000 A 
ATOM      4  C   UNL     1       1.472   8.892  19.566  0.00  0.00    +0.000 A 
ATOM      5  C   UNL     1       1.442  10.065  18.718  0.00  0.00    +0.000 A 
ATOM      6  C   UNL     1       1.887   9.672  17.472  0.00  0.00    +0.000 A 
ATOM      7  N   UNL     1       2.199   8.339  17.523  0.00  0.00    +0.000 N 
ATOM      8  C   UNL     1       1.955   7.834  18.784  0.00  0.00    +0.000 A 
ATOM      9  C   UNL     1       2.093   6.525  19.286  0.00  0.00    +0.000 A 
ATOM     10  H   UNL     1       2.542   7.793  16.746  0.00  0.00    +0.000 HD
ENDROOT
BRANCH   9  11
ATOM     11  C   UNL     1       2.508   5.457  18.373  0.00  0.00    +0.000 C 
ATOM     12  C   UNL     1       3.779   5.073  18.199  0.00  0.00    +0.000 C 
ATOM     13  S   UNL     1       5.185   5.665  19.016  0.00  0.00    +0.000 S 
ATOM     14  C   UNL     1       6.261   4.698  18.040  0.00  0.00    +0.000 C 
ATOM     15  S   UNL     1       7.916   4.683  18.117  0.00  0.00    +0.000 S 
ATOM     16  N   UNL     1       5.538   3.931  17.175  0.00  0.00    +0.000 N 
ATOM     17  C   UNL     1       4.178   4.048  17.196  0.00  0.00    +0.000 C 
ATOM     18  O   UNL     1       3.409   3.400  16.498  0.00  0.00    +0.000 OA
ATOM     19  H   UNL     1       5.986   3.294  16.538  0.00  0.00    +0.000 HD
ENDBRANCH   9  11
BRANCH   5  20
ATOM     20  C   UNL     1       0.995  11.426  19.017  0.00  0.00    +0.000 A 
ATOM     21  C   UNL     1      -0.364  11.760  18.939  0.00  0.00    +0.000 A 
ATOM     22  C   UNL     1      -0.791  13.087  19.016  0.00  0.00    +0.000 A 
ATOM     23  C   UNL     1       0.136  14.091  19.264  0.00  0.00    +0.000 A 
ATOM     24 CL   UNL     1      -0.378  15.730  19.335  0.00  0.00    +0.000 Cl
ATOM     25  C   UNL     1       1.482  13.772  19.448  0.00  0.00    +0.000 A 
ATOM     26  C   UNL     1       1.911  12.446  19.315  0.00  0.00    +0.000 A 
ENDBRANCH   5  20
BRANCH   1  28
ATOM     27  C   UNL     1       1.016   4.041  20.595  0.00  0.00    +0.000 C 
ATOM     28  O   UNL     1       1.937   5.006  21.097  0.00  0.00    +0.000 OA
ENDBRANCH   1  28
BRANCH   3  29
ATOM     29  O   UNL     1       0.543   9.634  21.648  0.00  0.00    +0.000 OA
ATOM     30  C   UNL     1      -0.408   9.313  22.650  0.00  0.00    +0.000 C 
ENDBRANCH   3  29
TORSDOF 4
ENDMDL
MODEL 7
REMARK VINA RESULT:      -6.5      3.509      5.061
REMARK  Name = 
REMARK  6 active torsions:
REMARK  status: ('A' for Active; 'I' for Inactive)
REMARK    1  A    between atoms: C_1  and  O_2
REMARK    2  A    between atoms: O_2  and  C_3
REMARK    3  A    between atoms: C_5  and  O_6
REMARK    4  A    between atoms: O_6  and  C_7
REMARK    5  A    between atoms: C_9  and  C_10
REMARK    6  A    between atoms: C_20  and  C_21
REMARK                            x       y       z     vdW  Elec       q    Type
REMARK                         _______ _______ _______ _____ _____    ______ ____
ROOT
ATOM      1  C   UNL     1      -0.300  13.224  21.799  0.00  0.00    +0.000 A 
ATOM      2  C   UNL     1       0.642  13.066  20.785  0.00  0.00    +0.000 A 
ATOM      3  C   UNL     1       0.992  11.799  20.298  0.00  0.00    +0.000 A 
ATOM      4  C   UNL     1       0.437  10.641  20.916  0.00  0.00    +0.000 A 
ATOM      5  C   UNL     1       0.578   9.214  20.716  0.00  0.00    +0.000 A 
ATOM      6  C   UNL     1      -0.270   8.598  21.614  0.00  0.00    +0.000 A 
ATOM      7  N   UNL     1      -0.899   9.564  22.353  0.00  0.00    +0.000 N 
ATOM      8  C   UNL     1      -0.491  10.820  21.951  0.00  0.00    +0.000 A 
ATOM      9  C   UNL     1      -0.889  12.097  22.395  0.00  0.00    +0.000 A 
ATOM     10  H   UNL     1      -1.580   9.391  23.078  0.00  0.00    +0.000 HD
ENDROOT
BRANCH   9  11
ATOM     11  C   UNL     1      -1.940  12.195  23.411  0.00  0.00    +0.000 C 
ATOM     12  C   UNL     1      -3.232  12.416  23.134  0.00  0.00    +0.000 C 
ATOM     13  S   UNL     1      -3.969  12.568  21.576  0.00  0.00    +0.000 S 
ATOM     14  C   UNL     1      -5.528  12.952  22.260  0.00  0.00    +0.000 C 
ATOM     15  S   UNL     1      -6.907  13.324  21.421  0.00  0.00    +0.000 S 
ATOM     16  N   UNL     1      -5.461  12.903  23.621  0.00  0.00    +0.000 N 
ATOM     17  C   UNL     1      -4.259  12.603  24.195  0.00  0.00    +0.000 C 
ATOM     18  O   UNL     1      -4.066  12.497  25.398  0.00  0.00    +0.000 OA
ATOM     19  H   UNL     1      -6.269  13.083  24.193  0.00  0.00    +0.000 HD
ENDBRANCH   9  11
BRANCH   5  20
ATOM     20  C   UNL     1       1.389   8.479  19.746  0.00  0.00    +0.000 A 
ATOM     21  C   UNL     1       2.043   7.296  20.118  0.00  0.00    +0.000 A 
ATOM     22  C   UNL     1       2.982   6.691  19.280  0.00  0.00    +0.000 A 
ATOM     23  C   UNL     1       3.210   7.218  18.015  0.00  0.00    +0.000 A 
ATOM     24 CL   UNL     1       4.382   6.493  16.987  0.00  0.00    +0.000 Cl
ATOM     25  C   UNL     1       2.495   8.335  17.582  0.00  0.00    +0.000 A 
ATOM     26  C   UNL     1       1.596   8.968  18.448  0.00  0.00    +0.000 A 
ENDBRANCH   5  20
BRANCH   1  28
ATOM     27  C   UNL     1       0.300  15.476  22.240  0.00  0.00    +0.000 C 
ATOM     28  O   UNL     1      -0.693  14.454  22.274  0.00  0.00    +0.000 OA
ENDBRANCH   1  28
BRANCH   3  29
ATOM     29  O   UNL     1       1.821  11.621  19.222  0.00  0.00    +0.000 OA
ATOM     30  C   UNL     1       2.238  12.755  18.477  0.00  0.00    +0.000 C 
ENDBRANCH   3  29
TORSDOF 4
ENDMDL
MODEL 8
REMARK VINA RESULT:      -6.5      4.419      7.939
REMARK  Name = 
REMARK  6 active torsions:
REMARK  status: ('A' for Active; 'I' for Inactive)
REMARK    1  A    between atoms: C_1  and  O_2
REMARK    2  A    between atoms: O_2  and  C_3
REMARK    3  A    between atoms: C_5  and  O_6
REMARK    4  A    between atoms: O_6  and  C_7
REMARK    5  A    between atoms: C_9  and  C_10
REMARK    6  A    between atoms: C_20  and  C_21
REMARK                            x       y       z     vdW  Elec       q    Type
REMARK                         _______ _______ _______ _____ _____    ______ ____
ROOT
ATOM      1  C   UNL     1       2.005   5.765  20.166  0.00  0.00    +0.000 A 
ATOM      2  C   UNL     1       1.328   6.541  21.104  0.00  0.00    +0.000 A 
ATOM      3  C   UNL     1       0.985   7.874  20.845  0.00  0.00    +0.000 A 
ATOM      4  C   UNL     1       1.418   8.479  19.629  0.00  0.00    +0.000 A 
ATOM      5  C   UNL     1       1.287   9.796  19.043  0.00  0.00    +0.000 A 
ATOM      6  C   UNL     1       1.890   9.746  17.803  0.00  0.00    +0.000 A 
ATOM      7  N   UNL     1       2.392   8.485  17.614  0.00  0.00    +0.000 N 
ATOM      8  C   UNL     1       2.119   7.688  18.707  0.00  0.00    +0.000 A 
ATOM      9  C   UNL     1       2.406   6.330  18.943  0.00  0.00    +0.000 A 
ATOM     10  H   UNL     1       2.877   8.171  16.787  0.00  0.00    +0.000 HD
ENDROOT
BRANCH   9  11
ATOM     11  C   UNL     1       3.053   5.550  17.884  0.00  0.00    +0.000 C 
ATOM     12  C   UNL     1       4.344   5.195  17.898  0.00  0.00    +0.000 C 
ATOM     13  S   UNL     1       5.511   5.493  19.140  0.00  0.00    +0.000 S 
ATOM     14  C   UNL     1       6.812   4.810  18.198  0.00  0.00    +0.000 C 
ATOM     15  S   UNL     1       8.407   4.727  18.636  0.00  0.00    +0.000 S 
ATOM     16  N   UNL     1       6.326   4.337  17.015  0.00  0.00    +0.000 N 
ATOM     17  C   UNL     1       4.993   4.482  16.763  0.00  0.00    +0.000 C 
ATOM     18  O   UNL     1       4.422   4.079  15.759  0.00  0.00    +0.000 OA
ATOM     19  H   UNL     1       6.928   3.893  16.341  0.00  0.00    +0.000 HD
ENDBRANCH   9  11
BRANCH   5  20
ATOM     20  C   UNL     1       0.618  10.990  19.561  0.00  0.00    +0.000 A 
ATOM     21  C   UNL     1       1.356  11.998  20.196  0.00  0.00    +0.000 A 
ATOM     22  C   UNL     1       0.725  13.041  20.877  0.00  0.00    +0.000 A 
ATOM     23  C   UNL     1      -0.661  13.135  20.851  0.00  0.00    +0.000 A 
ATOM     24 CL   UNL     1      -1.447  14.402  21.707  0.00  0.00    +0.000 Cl
ATOM     25  C   UNL     1      -1.414  12.201  20.139  0.00  0.00    +0.000 A 
ATOM     26  C   UNL     1      -0.777  11.127  19.505  0.00  0.00    +0.000 A 
ENDBRANCH   5  20
BRANCH   1  28
ATOM     27  C   UNL     1       1.250   3.608  20.797  0.00  0.00    +0.000 C 
ATOM     28  O   UNL     1       2.324   4.443  20.373  0.00  0.00    +0.000 OA
ENDBRANCH   1  28
BRANCH   3  29
ATOM     29  O   UNL     1       0.215   8.621  21.698  0.00  0.00    +0.000 OA
ATOM     30  C   UNL     1       0.843   9.327  22.756  0.00  0.00    +0.000 C 
ENDBRANCH   3  29
TORSDOF 4
ENDMDL
MODEL 9
REMARK VINA RESULT:      -6.5      2.326      3.470
REMARK  Name = 
REMARK  6 active torsions:
REMARK  status: ('A' for Active; 'I' for Inactive)
REMARK    1  A    between atoms: C_1  and  O_2
REMARK    2  A    between atoms: O_2  and  C_3
REMARK    3  A    between atoms: C_5  and  O_6
REMARK    4  A    between atoms: O_6  and  C_7
REMARK    5  A    between atoms: C_9  and  C_10
REMARK    6  A    between atoms: C_20  and  C_21
REMARK                            x       y       z     vdW  Elec       q    Type
REMARK                         _______ _______ _______ _____ _____    ______ ____
ROOT
ATOM      1  C   UNL     1       1.641  10.767  18.617  0.00  0.00    +0.000 A 
ATOM      2  C   UNL     1       2.315   9.909  17.750  0.00  0.00    +0.000 A 
ATOM      3  C   UNL     1       2.443   8.541  18.024  0.00  0.00    +0.000 A 
ATOM      4  C   UNL     1       1.953   8.031  19.260  0.00  0.00    +0.000 A 
ATOM      5  C   UNL     1       1.931   6.726  19.887  0.00  0.00    +0.000 A 
ATOM      6  C   UNL     1       1.261   6.867  21.085  0.00  0.00    +0.000 A 
ATOM      7  N   UNL     1       0.894   8.179  21.227  0.00  0.00    +0.000 N 
ATOM      8  C   UNL     1       1.299   8.914  20.131  0.00  0.00    +0.000 A 
ATOM      9  C   UNL     1       1.114  10.277  19.824  0.00  0.00    +0.000 A 
ATOM     10  H   UNL     1       0.383   8.559  22.010  0.00  0.00    +0.000 HD
ENDROOT
BRANCH   9  11
ATOM     11  C   UNL     1       0.331  11.107  20.742  0.00  0.00    +0.000 C 
ATOM     12  C   UNL     1      -0.938  11.476  20.522  0.00  0.00    +0.000 C 
ATOM     13  S   UNL     1      -1.953  11.032  19.193  0.00  0.00    +0.000 S 
ATOM     14  C   UNL     1      -3.251  12.067  19.732  0.00  0.00    +0.000 C 
ATOM     15  S   UNL     1      -4.698  12.313  18.965  0.00  0.00    +0.000 S 
ATOM     16  N   UNL     1      -2.907  12.667  20.907  0.00  0.00    +0.000 N 
ATOM     17  C   UNL     1      -1.676  12.396  21.430  0.00  0.00    +0.000 C 
ATOM     18  O   UNL     1      -1.252  12.841  22.489  0.00  0.00    +0.000 OA
ATOM     19  H   UNL     1      -3.537  13.292  21.382  0.00  0.00    +0.000 HD
ENDBRANCH   9  11
BRANCH   5  20
ATOM     20  C   UNL     1       2.442   5.444  19.401  0.00  0.00    +0.000 A 
ATOM     21  C   UNL     1       1.665   4.647  18.549  0.00  0.00    +0.000 A 
ATOM     22  C   UNL     1       2.038   3.338  18.239  0.00  0.00    +0.000 A 
ATOM     23  C   UNL     1       3.247   2.842  18.709  0.00  0.00    +0.000 A 
ATOM     24 CL   UNL     1       3.702   1.223  18.352  0.00  0.00    +0.000 Cl
ATOM     25  C   UNL     1       4.087   3.651  19.474  0.00  0.00    +0.000 A 
ATOM     26  C   UNL     1       3.681   4.944  19.826  0.00  0.00    +0.000 A 
ENDBRANCH   5  20
BRANCH   1  28
ATOM     27  C   UNL     1       2.656  12.882  18.276  0.00  0.00    +0.000 C 
ATOM     28  O   UNL     1       1.464  12.107  18.362  0.00  0.00    +0.000 OA
ENDBRANCH   1  28
BRANCH   3  29
ATOM     29  O   UNL     1       2.992   7.655  17.133  0.00  0.00    +0.000 OA
ATOM     30  C   UNL     1       4.390   7.416  17.171  0.00  0.00    +0.000 C 
ENDBRANCH   3  29
TORSDOF 4
ENDMDL
