MODEL 1
REMARK VINA RESULT:      -7.8      0.000      0.000
REMARK  Name = 
REMARK  9 active torsions:
REMARK  status: ('A' for Active; 'I' for Inactive)
REMARK    1  A    between atoms: C_1  and  O_2
REMARK    2  A    between atoms: O_2  and  C_3
REMARK    3  A    between atoms: C_6  and  O_7
REMARK    4  A    between atoms: O_7  and  C_8
REMARK    5  A    between atoms: C_8  and  C_9
REMARK    6  A    between atoms: N_11  and  C_12
REMARK    7  A    between atoms: C_19  and  C_20
REMARK    8  A    between atoms: C_20  and  N_21
REMARK    9  A    between atoms: N_26  and  C_27
REMARK                            x       y       z     vdW  Elec       q    Type
REMARK                         _______ _______ _______ _____ _____    ______ ____
ROOT
ATOM      1  C   UNL     1       5.885   6.388  16.899  0.00  0.00    +0.000 A 
ATOM      2  C   UNL     1       6.350   5.077  16.729  0.00  0.00    +0.000 A 
ATOM      3  C   UNL     1       5.491   3.959  16.840  0.00  0.00    +0.000 A 
ATOM      4  C   UNL     1       4.157   4.226  17.169  0.00  0.00    +0.000 A 
ATOM      5  C   UNL     1       3.671   5.524  17.215  0.00  0.00    +0.000 A 
ATOM      6  C   UNL     1       4.519   6.613  17.039  0.00  0.00    +0.000 A 
ATOM      7  N   UNL     1       2.360   5.555  17.554  0.00  0.00    +0.000 NA
ATOM      8  C   UNL     1       2.070   4.335  17.951  0.00  0.00    +0.000 A 
ATOM      9  N   UNL     1       3.074   3.454  17.568  0.00  0.00    +0.000 N 
ATOM     10  C   UNL     1       3.068   2.021  17.738  0.00  0.00    +0.000 C 
ENDROOT
BRANCH   1  13
ATOM     11  C   UNL     1       7.725   7.707  17.956  0.00  0.00    +0.000 C 
ATOM     12  O   UNL     1       8.137   6.863  18.743  0.00  0.00    +0.000 OA
ATOM     13  N   UNL     1       6.713   7.525  17.025  0.00  0.00    +0.000 N 
ATOM     14  H   UNL     1       6.406   8.347  16.520  0.00  0.00    +0.000 HD
BRANCH  11  15
ATOM     15  C   UNL     1       8.280   9.134  17.965  0.00  0.00    +0.000 C 
BRANCH  15  16
ATOM     16  O   UNL     1       9.070   9.268  19.138  0.00  0.00    +0.000 OA
BRANCH  16  20
ATOM     17  C   UNL     1      10.218  13.223  19.759  0.00  0.00    +0.000 A 
ATOM     18  C   UNL     1      10.290  12.620  18.503  0.00  0.00    +0.000 A 
ATOM     19  C   UNL     1       9.914  11.286  18.340  0.00  0.00    +0.000 A 
ATOM     20  C   UNL     1       9.497  10.530  19.436  0.00  0.00    +0.000 A 
ATOM     21  C   UNL     1       9.463  11.116  20.701  0.00  0.00    +0.000 A 
ATOM     22  C   UNL     1       9.821  12.463  20.860  0.00  0.00    +0.000 A 
BRANCH  17  24
ATOM     23  C   UNL     1       9.667  15.450  19.197  0.00  0.00    +0.000 C 
ATOM     24  O   UNL     1      10.584  14.540  19.795  0.00  0.00    +0.000 OA
ENDBRANCH  17  24
ENDBRANCH  16  20
ENDBRANCH  15  16
ENDBRANCH  11  15
ENDBRANCH   1  13
BRANCH   8  25
ATOM     25  C   UNL     1       0.953   4.053  18.922  0.00  0.00    +0.000 C 
BRANCH  25  26
ATOM     26  N   UNL     1       1.280   4.064  20.356  0.00  0.00    +0.000 NA
ATOM     27  C   UNL     1       2.584   4.639  20.660  0.00  0.00    +0.000 C 
ATOM     28  C   UNL     1       3.457   3.471  21.072  0.00  0.00    +0.000 C 
ATOM     29  C   UNL     1       2.478   2.572  21.799  0.00  0.00    +0.000 C 
ATOM     30  C   UNL     1       1.171   2.765  21.039  0.00  0.00    +0.000 C 
ENDBRANCH  25  26
ENDBRANCH   8  25
TORSDOF 7
ENDMDL
MODEL 2
REMARK VINA RESULT:      -7.6      3.523     11.452
REMARK  Name = 
REMARK  9 active torsions:
REMARK  status: ('A' for Active; 'I' for Inactive)
REMARK    1  A    between atoms: C_1  and  O_2
REMARK    2  A    between atoms: O_2  and  C_3
REMARK    3  A    between atoms: C_6  and  O_7
REMARK    4  A    between atoms: O_7  and  C_8
REMARK    5  A    between atoms: C_8  and  C_9
REMARK    6  A    between atoms: N_11  and  C_12
REMARK    7  A    between atoms: C_19  and  C_20
REMARK    8  A    between atoms: C_20  and  N_21
REMARK    9  A    between atoms: N_26  and  C_27
REMARK                            x       y       z     vdW  Elec       q    Type
REMARK                         _______ _______ _______ _____ _____    ______ ____
ROOT
ATOM      1  C   UNL     1       9.289  10.526  19.377  0.00  0.00    +0.000 A 
ATOM      2  C   UNL     1       9.467  11.039  20.669  0.00  0.00    +0.000 A 
ATOM      3  C   UNL     1       9.889  12.371  20.892  0.00  0.00    +0.000 A 
ATOM      4  C   UNL     1      10.161  13.140  19.755  0.00  0.00    +0.000 A 
ATOM      5  C   UNL     1       9.867  12.673  18.482  0.00  0.00    +0.000 A 
ATOM      6  C   UNL     1       9.390  11.381  18.285  0.00  0.00    +0.000 A 
ATOM      7  N   UNL     1      10.211  13.572  17.529  0.00  0.00    +0.000 NA
ATOM      8  C   UNL     1      10.926  14.487  18.148  0.00  0.00    +0.000 A 
ATOM      9  N   UNL     1      10.773  14.364  19.524  0.00  0.00    +0.000 N 
ATOM     10  C   UNL     1      11.320  15.244  20.529  0.00  0.00    +0.000 C 
ENDROOT
BRANCH   1  13
ATOM     11  C   UNL     1       8.166   8.642  18.180  0.00  0.00    +0.000 C 
ATOM     12  O   UNL     1       7.454   9.293  17.424  0.00  0.00    +0.000 OA
ATOM     13  N   UNL     1       9.090   9.161  19.075  0.00  0.00    +0.000 N 
ATOM     14  H   UNL     1       9.523   8.505  19.712  0.00  0.00    +0.000 HD
BRANCH  11  15
ATOM     15  C   UNL     1       8.056   7.116  18.250  0.00  0.00    +0.000 C 
BRANCH  15  16
ATOM     16  O   UNL     1       7.576   6.674  16.989  0.00  0.00    +0.000 OA
BRANCH  16  20
ATOM     17  C   UNL     1       4.147   4.309  17.006  0.00  0.00    +0.000 A 
ATOM     18  C   UNL     1       4.188   5.558  17.626  0.00  0.00    +0.000 A 
ATOM     19  C   UNL     1       5.363   6.311  17.615  0.00  0.00    +0.000 A 
ATOM     20  C   UNL     1       6.519   5.810  17.016  0.00  0.00    +0.000 A 
ATOM     21  C   UNL     1       6.495   4.545  16.431  0.00  0.00    +0.000 A 
ATOM     22  C   UNL     1       5.308   3.796  16.425  0.00  0.00    +0.000 A 
BRANCH  17  24
ATOM     23  C   UNL     1       1.898   4.379  17.726  0.00  0.00    +0.000 C 
ATOM     24  O   UNL     1       2.938   3.673  17.056  0.00  0.00    +0.000 OA
ENDBRANCH  17  24
ENDBRANCH  16  20
ENDBRANCH  15  16
ENDBRANCH  11  15
ENDBRANCH   1  13
BRANCH   8  25
ATOM     25  C   UNL     1      11.958  15.318  17.432  0.00  0.00    +0.000 C 
BRANCH  25  26
ATOM     26  N   UNL     1      11.569  16.676  17.019  0.00  0.00    +0.000 NA
ATOM     27  C   UNL     1      12.328  17.733  17.673  0.00  0.00    +0.000 C 
ATOM     28  C   UNL     1      11.362  18.387  18.640  0.00  0.00    +0.000 C 
ATOM     29  C   UNL     1      10.046  18.306  17.894  0.00  0.00    +0.000 C 
ATOM     30  C   UNL     1      10.134  16.985  17.139  0.00  0.00    +0.000 C 
ENDBRANCH  25  26
ENDBRANCH   8  25
TORSDOF 7
ENDMDL
MODEL 3
REMARK VINA RESULT:      -7.6      4.653      8.009
REMARK  Name = 
REMARK  9 active torsions:
REMARK  status: ('A' for Active; 'I' for Inactive)
REMARK    1  A    between atoms: C_1  and  O_2
REMARK    2  A    between atoms: O_2  and  C_3
REMARK    3  A    between atoms: C_6  and  O_7
REMARK    4  A    between atoms: O_7  and  C_8
REMARK    5  A    between atoms: C_8  and  C_9
REMARK    6  A    between atoms: N_11  and  C_12
REMARK    7  A    between atoms: C_19  and  C_20
REMARK    8  A    between atoms: C_20  and  N_21
REMARK    9  A    between atoms: N_26  and  C_27
REMARK                            x       y       z     vdW  Elec       q    Type
REMARK                         _______ _______ _______ _____ _____    ______ ____
ROOT
ATOM      1  C   UNL     1       2.073   7.126  19.978  0.00  0.00    +0.000 A 
ATOM      2  C   UNL     1       1.217   7.391  21.056  0.00  0.00    +0.000 A 
ATOM      3  C   UNL     1       0.502   8.607  21.161  0.00  0.00    +0.000 A 
ATOM      4  C   UNL     1       0.724   9.552  20.153  0.00  0.00    +0.000 A 
ATOM      5  C   UNL     1       1.472   9.243  19.027  0.00  0.00    +0.000 A 
ATOM      6  C   UNL     1       2.117   8.015  18.910  0.00  0.00    +0.000 A 
ATOM      7  N   UNL     1       1.563  10.298  18.183  0.00  0.00    +0.000 NA
ATOM      8  C   UNL     1       1.095  11.328  18.854  0.00  0.00    +0.000 A 
ATOM      9  N   UNL     1       0.411  10.893  19.983  0.00  0.00    +0.000 N 
ATOM     10  C   UNL     1      -0.322  11.720  20.913  0.00  0.00    +0.000 C 
ENDROOT
BRANCH   1  13
ATOM     11  C   UNL     1       2.740   4.799  19.359  0.00  0.00    +0.000 C 
ATOM     12  O   UNL     1       1.742   4.476  18.725  0.00  0.00    +0.000 OA
ATOM     13  N   UNL     1       2.980   6.045  19.918  0.00  0.00    +0.000 N 
ATOM     14  H   UNL     1       3.798   6.129  20.509  0.00  0.00    +0.000 HD
BRANCH  11  15
ATOM     15  C   UNL     1       3.849   3.786  19.656  0.00  0.00    +0.000 C 
BRANCH  15  16
ATOM     16  O   UNL     1       4.599   3.626  18.460  0.00  0.00    +0.000 OA
BRANCH  16  20
ATOM     17  C   UNL     1       6.935   6.834  17.195  0.00  0.00    +0.000 A 
ATOM     18  C   UNL     1       7.193   6.155  18.385  0.00  0.00    +0.000 A 
ATOM     19  C   UNL     1       6.374   5.097  18.784  0.00  0.00    +0.000 A 
ATOM     20  C   UNL     1       5.269   4.730  18.016  0.00  0.00    +0.000 A 
ATOM     21  C   UNL     1       4.982   5.433  16.847  0.00  0.00    +0.000 A 
ATOM     22  C   UNL     1       5.817   6.483  16.436  0.00  0.00    +0.000 A 
BRANCH  17  24
ATOM     23  C   UNL     1       8.122   8.729  17.955  0.00  0.00    +0.000 C 
ATOM     24  O   UNL     1       7.817   7.834  16.891  0.00  0.00    +0.000 OA
ENDBRANCH  17  24
ENDBRANCH  16  20
ENDBRANCH  15  16
ENDBRANCH  11  15
ENDBRANCH   1  13
BRANCH   8  25
ATOM     25  C   UNL     1       1.520  12.742  18.553  0.00  0.00    +0.000 C 
BRANCH  25  26
ATOM     26  N   UNL     1       2.740  13.238  19.208  0.00  0.00    +0.000 NA
ATOM     27  C   UNL     1       2.491  13.982  20.435  0.00  0.00    +0.000 C 
ATOM     28  C   UNL     1       2.790  15.429  20.100  0.00  0.00    +0.000 C 
ATOM     29  C   UNL     1       3.945  15.307  19.127  0.00  0.00    +0.000 C 
ATOM     30  C   UNL     1       3.638  14.030  18.353  0.00  0.00    +0.000 C 
ENDBRANCH  25  26
ENDBRANCH   8  25
TORSDOF 7
ENDMDL
MODEL 4
REMARK VINA RESULT:      -7.6      5.132      8.835
REMARK  Name = 
REMARK  9 active torsions:
REMARK  status: ('A' for Active; 'I' for Inactive)
REMARK    1  A    between atoms: C_1  and  O_2
REMARK    2  A    between atoms: O_2  and  C_3
REMARK    3  A    between atoms: C_6  and  O_7
REMARK    4  A    between atoms: O_7  and  C_8
REMARK    5  A    between atoms: C_8  and  C_9
REMARK    6  A    between atoms: N_11  and  C_12
REMARK    7  A    between atoms: C_19  and  C_20
REMARK    8  A    between atoms: C_20  and  N_21
REMARK    9  A    between atoms: N_26  and  C_27
REMARK                            x       y       z     vdW  Elec       q    Type
REMARK                         _______ _______ _______ _____ _____    ______ ____
ROOT
ATOM      1  C   UNL     1       1.895   7.644  20.097  0.00  0.00    +0.000 A 
ATOM      2  C   UNL     1       1.176   7.835  21.285  0.00  0.00    +0.000 A 
ATOM      3  C   UNL     1       0.381   8.985  21.500  0.00  0.00    +0.000 A 
ATOM      4  C   UNL     1       0.381   9.945  20.482  0.00  0.00    +0.000 A 
ATOM      5  C   UNL     1       0.991   9.701  19.261  0.00  0.00    +0.000 A 
ATOM      6  C   UNL     1       1.716   8.534  19.043  0.00  0.00    +0.000 A 
ATOM      7  N   UNL     1       0.874  10.760  18.424  0.00  0.00    +0.000 NA
ATOM      8  C   UNL     1       0.417  11.746  19.165  0.00  0.00    +0.000 A 
ATOM      9  N   UNL     1      -0.066  11.254  20.372  0.00  0.00    +0.000 N 
ATOM     10  C   UNL     1      -0.733  12.015  21.402  0.00  0.00    +0.000 C 
ENDROOT
BRANCH   1  13
ATOM     11  C   UNL     1       2.644   5.290  19.727  0.00  0.00    +0.000 C 
ATOM     12  O   UNL     1       1.547   4.759  19.598  0.00  0.00    +0.000 OA
ATOM     13  N   UNL     1       2.875   6.646  19.902  0.00  0.00    +0.000 N 
ATOM     14  H   UNL     1       3.827   6.923  20.106  0.00  0.00    +0.000 HD
BRANCH  11  15
ATOM     15  C   UNL     1       3.927   4.455  19.763  0.00  0.00    +0.000 C 
BRANCH  15  16
ATOM     16  O   UNL     1       3.998   3.744  18.535  0.00  0.00    +0.000 OA
BRANCH  16  20
ATOM     17  C   UNL     1       6.902   4.933  15.797  0.00  0.00    +0.000 A 
ATOM     18  C   UNL     1       5.661   4.441  15.393  0.00  0.00    +0.000 A 
ATOM     19  C   UNL     1       4.722   4.034  16.342  0.00  0.00    +0.000 A 
ATOM     20  C   UNL     1       5.026   4.081  17.702  0.00  0.00    +0.000 A 
ATOM     21  C   UNL     1       6.280   4.532  18.110  0.00  0.00    +0.000 A 
ATOM     22  C   UNL     1       7.217   4.960  17.156  0.00  0.00    +0.000 A 
BRANCH  17  24
ATOM     23  C   UNL     1       7.302   4.986  13.469  0.00  0.00    +0.000 C 
ATOM     24  O   UNL     1       7.732   5.327  14.783  0.00  0.00    +0.000 OA
ENDBRANCH  17  24
ENDBRANCH  16  20
ENDBRANCH  15  16
ENDBRANCH  11  15
ENDBRANCH   1  13
BRANCH   8  25
ATOM     25  C   UNL     1       0.674  13.191  18.824  0.00  0.00    +0.000 C 
BRANCH  25  26
ATOM     26  N   UNL     1       1.964  13.766  19.237  0.00  0.00    +0.000 NA
ATOM     27  C   UNL     1       1.871  15.136  19.724  0.00  0.00    +0.000 C 
ATOM     28  C   UNL     1       2.503  15.993  18.646  0.00  0.00    +0.000 C 
ATOM     29  C   UNL     1       3.616  15.104  18.132  0.00  0.00    +0.000 C 
ATOM     30  C   UNL     1       3.036  13.698  18.231  0.00  0.00    +0.000 C 
ENDBRANCH  25  26
ENDBRANCH   8  25
TORSDOF 7
ENDMDL
MODEL 5
REMARK VINA RESULT:      -7.6      1.583      2.209
REMARK  Name = 
REMARK  9 active torsions:
REMARK  status: ('A' for Active; 'I' for Inactive)
REMARK    1  A    between atoms: C_1  and  O_2
REMARK    2  A    between atoms: O_2  and  C_3
REMARK    3  A    between atoms: C_6  and  O_7
REMARK    4  A    between atoms: O_7  and  C_8
REMARK    5  A    between atoms: C_8  and  C_9
REMARK    6  A    between atoms: N_11  and  C_12
REMARK    7  A    between atoms: C_19  and  C_20
REMARK    8  A    between atoms: C_20  and  N_21
REMARK    9  A    between atoms: N_26  and  C_27
REMARK                            x       y       z     vdW  Elec       q    Type
REMARK                         _______ _______ _______ _____ _____    ______ ____
ROOT
ATOM      1  C   UNL     1       7.103   6.877  17.647  0.00  0.00    +0.000 A 
ATOM      2  C   UNL     1       7.480   6.173  18.800  0.00  0.00    +0.000 A 
ATOM      3  C   UNL     1       6.846   4.967  19.180  0.00  0.00    +0.000 A 
ATOM      4  C   UNL     1       5.793   4.531  18.368  0.00  0.00    +0.000 A 
ATOM      5  C   UNL     1       5.503   5.158  17.165  0.00  0.00    +0.000 A 
ATOM      6  C   UNL     1       6.181   6.308  16.774  0.00  0.00    +0.000 A 
ATOM      7  N   UNL     1       4.449   4.579  16.542  0.00  0.00    +0.000 NA
ATOM      8  C   UNL     1       3.922   3.760  17.427  0.00  0.00    +0.000 A 
ATOM      9  N   UNL     1       4.805   3.564  18.482  0.00  0.00    +0.000 N 
ATOM     10  C   UNL     1       4.624   2.660  19.594  0.00  0.00    +0.000 C 
ENDROOT
BRANCH   1  13
ATOM     11  C   UNL     1       8.336   9.000  18.107  0.00  0.00    +0.000 C 
ATOM     12  O   UNL     1       8.901   8.672  19.144  0.00  0.00    +0.000 OA
ATOM     13  N   UNL     1       7.529   8.184  17.328  0.00  0.00    +0.000 N 
ATOM     14  H   UNL     1       7.041   8.628  16.560  0.00  0.00    +0.000 HD
BRANCH  11  15
ATOM     15  C   UNL     1       8.427  10.434  17.576  0.00  0.00    +0.000 C 
BRANCH  15  16
ATOM     16  O   UNL     1       9.718  10.922  17.912  0.00  0.00    +0.000 OA
BRANCH  16  20
ATOM     17  C   UNL     1      10.044  15.060  18.261  0.00  0.00    +0.000 A 
ATOM     18  C   UNL     1      10.860  14.323  17.403  0.00  0.00    +0.000 A 
ATOM     19  C   UNL     1      10.733  12.935  17.330  0.00  0.00    +0.000 A 
ATOM     20  C   UNL     1       9.815  12.265  18.138  0.00  0.00    +0.000 A 
ATOM     21  C   UNL     1       9.026  12.992  19.028  0.00  0.00    +0.000 A 
ATOM     22  C   UNL     1       9.140  14.390  19.087  0.00  0.00    +0.000 A 
BRANCH  17  24
ATOM     23  C   UNL     1      10.862  16.919  17.055  0.00  0.00    +0.000 C 
ATOM     24  O   UNL     1      10.237  16.413  18.231  0.00  0.00    +0.000 OA
ENDBRANCH  17  24
ENDBRANCH  16  20
ENDBRANCH  15  16
ENDBRANCH  11  15
ENDBRANCH   1  13
BRANCH   8  25
ATOM     25  C   UNL     1       2.469   3.365  17.388  0.00  0.00    +0.000 C 
BRANCH  25  26
ATOM     26  N   UNL     1       1.529   4.154  18.199  0.00  0.00    +0.000 NA
ATOM     27  C   UNL     1       2.005   5.493  18.521  0.00  0.00    +0.000 C 
ATOM     28  C   UNL     1       2.337   5.461  19.999  0.00  0.00    +0.000 C 
ATOM     29  C   UNL     1       1.276   4.532  20.552  0.00  0.00    +0.000 C 
ATOM     30  C   UNL     1       1.071   3.508  19.441  0.00  0.00    +0.000 C 
ENDBRANCH  25  26
ENDBRANCH   8  25
TORSDOF 7
ENDMDL
MODEL 6
REMARK VINA RESULT:      -7.6      1.742      2.586
REMARK  Name = 
REMARK  9 active torsions:
REMARK  status: ('A' for Active; 'I' for Inactive)
REMARK    1  A    between atoms: C_1  and  O_2
REMARK    2  A    between atoms: O_2  and  C_3
REMARK    3  A    between atoms: C_6  and  O_7
REMARK    4  A    between atoms: O_7  and  C_8
REMARK    5  A    between atoms: C_8  and  C_9
REMARK    6  A    between atoms: N_11  and  C_12
REMARK    7  A    between atoms: C_19  and  C_20
REMARK    8  A    between atoms: C_20  and  N_21
REMARK    9  A    between atoms: N_26  and  C_27
REMARK                            x       y       z     vdW  Elec       q    Type
REMARK                         _______ _______ _______ _____ _____    ______ ____
ROOT
ATOM      1  C   UNL     1       7.372   7.033  17.730  0.00  0.00    +0.000 A 
ATOM      2  C   UNL     1       7.701   6.362  18.916  0.00  0.00    +0.000 A 
ATOM      3  C   UNL     1       7.052   5.167  19.304  0.00  0.00    +0.000 A 
ATOM      4  C   UNL     1       6.031   4.709  18.464  0.00  0.00    +0.000 A 
ATOM      5  C   UNL     1       5.789   5.302  17.233  0.00  0.00    +0.000 A 
ATOM      6  C   UNL     1       6.484   6.440  16.838  0.00  0.00    +0.000 A 
ATOM      7  N   UNL     1       4.760   4.706  16.586  0.00  0.00    +0.000 NA
ATOM      8  C   UNL     1       4.198   3.912  17.472  0.00  0.00    +0.000 A 
ATOM      9  N   UNL     1       5.038   3.745  18.566  0.00  0.00    +0.000 N 
ATOM     10  C   UNL     1       4.812   2.873  19.694  0.00  0.00    +0.000 C 
ENDROOT
BRANCH   1  13
ATOM     11  C   UNL     1       8.511   9.203  18.213  0.00  0.00    +0.000 C 
ATOM     12  O   UNL     1       8.958   8.941  19.323  0.00  0.00    +0.000 OA
ATOM     13  N   UNL     1       7.811   8.331  17.392  0.00  0.00    +0.000 N 
ATOM     14  H   UNL     1       7.408   8.723  16.551  0.00  0.00    +0.000 HD
BRANCH  11  15
ATOM     15  C   UNL     1       8.641  10.609  17.620  0.00  0.00    +0.000 C 
BRANCH  15  16
ATOM     16  O   UNL     1       9.891  11.129  18.049  0.00  0.00    +0.000 OA
BRANCH  16  20
ATOM     17  C   UNL     1      10.452  15.231  17.593  0.00  0.00    +0.000 A 
ATOM     18  C   UNL     1       9.315  14.703  18.203  0.00  0.00    +0.000 A 
ATOM     19  C   UNL     1       9.154  13.321  18.319  0.00  0.00    +0.000 A 
ATOM     20  C   UNL     1      10.112  12.453  17.795  0.00  0.00    +0.000 A 
ATOM     21  C   UNL     1      11.231  12.974  17.147  0.00  0.00    +0.000 A 
ATOM     22  C   UNL     1      11.401  14.364  17.049  0.00  0.00    +0.000 A 
BRANCH  17  24
ATOM     23  C   UNL     1       9.511  17.277  18.305  0.00  0.00    +0.000 C 
ATOM     24  O   UNL     1      10.516  16.597  17.560  0.00  0.00    +0.000 OA
ENDBRANCH  17  24
ENDBRANCH  16  20
ENDBRANCH  15  16
ENDBRANCH  11  15
ENDBRANCH   1  13
BRANCH   8  25
ATOM     25  C   UNL     1       2.746   3.516  17.387  0.00  0.00    +0.000 C 
BRANCH  25  26
ATOM     26  N   UNL     1       1.775   4.335  18.129  0.00  0.00    +0.000 NA
ATOM     27  C   UNL     1       2.223   5.697  18.385  0.00  0.00    +0.000 C 
ATOM     28  C   UNL     1       2.518   5.755  19.870  0.00  0.00    +0.000 C 
ATOM     29  C   UNL     1       1.458   4.841  20.449  0.00  0.00    +0.000 C 
ATOM     30  C   UNL     1       1.295   3.754  19.393  0.00  0.00    +0.000 C 
ENDBRANCH  25  26
ENDBRANCH   8  25
TORSDOF 7
ENDMDL
MODEL 7
REMARK VINA RESULT:      -7.5      4.658      8.482
REMARK  Name = 
REMARK  9 active torsions:
REMARK  status: ('A' for Active; 'I' for Inactive)
REMARK    1  A    between atoms: C_1  and  O_2
REMARK    2  A    between atoms: O_2  and  C_3
REMARK    3  A    between atoms: C_6  and  O_7
REMARK    4  A    between atoms: O_7  and  C_8
REMARK    5  A    between atoms: C_8  and  C_9
REMARK    6  A    between atoms: N_11  and  C_12
REMARK    7  A    between atoms: C_19  and  C_20
REMARK    8  A    between atoms: C_20  and  N_21
REMARK    9  A    between atoms: N_26  and  C_27
REMARK                            x       y       z     vdW  Elec       q    Type
REMARK                         _______ _______ _______ _____ _____    ______ ____
ROOT
ATOM      1  C   UNL     1       3.814   6.312  18.409  0.00  0.00    +0.000 A 
ATOM      2  C   UNL     1       3.201   6.033  19.638  0.00  0.00    +0.000 A 
ATOM      3  C   UNL     1       2.172   6.849  20.162  0.00  0.00    +0.000 A 
ATOM      4  C   UNL     1       1.824   7.977  19.411  0.00  0.00    +0.000 A 
ATOM      5  C   UNL     1       2.342   8.185  18.141  0.00  0.00    +0.000 A 
ATOM      6  C   UNL     1       3.307   7.334  17.612  0.00  0.00    +0.000 A 
ATOM      7  N   UNL     1       1.876   9.333  17.593  0.00  0.00    +0.000 NA
ATOM      8  C   UNL     1       1.269   9.969  18.572  0.00  0.00    +0.000 A 
ATOM      9  N   UNL     1       1.056   9.109  19.643  0.00  0.00    +0.000 N 
ATOM     10  C   UNL     1       0.335   9.413  20.856  0.00  0.00    +0.000 C 
ENDROOT
BRANCH   1  13
ATOM     11  C   UNL     1       6.106   6.313  17.414  0.00  0.00    +0.000 C 
ATOM     12  O   UNL     1       6.304   7.522  17.392  0.00  0.00    +0.000 OA
ATOM     13  N   UNL     1       4.985   5.683  17.933  0.00  0.00    +0.000 N 
ATOM     14  H   UNL     1       4.912   4.685  17.778  0.00  0.00    +0.000 HD
BRANCH  11  15
ATOM     15  C   UNL     1       7.105   5.337  16.786  0.00  0.00    +0.000 C 
BRANCH  15  16
ATOM     16  O   UNL     1       7.403   5.824  15.485  0.00  0.00    +0.000 OA
BRANCH  16  20
ATOM     17  C   UNL     1       5.909   3.495  12.372  0.00  0.00    +0.000 A 
ATOM     18  C   UNL     1       5.298   3.536  13.625  0.00  0.00    +0.000 A 
ATOM     19  C   UNL     1       5.841   4.314  14.649  0.00  0.00    +0.000 A 
ATOM     20  C   UNL     1       7.020   5.030  14.442  0.00  0.00    +0.000 A 
ATOM     21  C   UNL     1       7.658   4.960  13.205  0.00  0.00    +0.000 A 
ATOM     22  C   UNL     1       7.101   4.193  12.170  0.00  0.00    +0.000 A 
BRANCH  17  24
ATOM     23  C   UNL     1       3.946   3.117  11.114  0.00  0.00    +0.000 C 
ATOM     24  O   UNL     1       5.275   2.722  11.438  0.00  0.00    +0.000 OA
ENDBRANCH  17  24
ENDBRANCH  16  20
ENDBRANCH  15  16
ENDBRANCH  11  15
ENDBRANCH   1  13
BRANCH   8  25
ATOM     25  C   UNL     1       1.120  11.468  18.583  0.00  0.00    +0.000 C 
BRANCH  25  26
ATOM     26  N   UNL     1       2.268  12.261  19.048  0.00  0.00    +0.000 NA
ATOM     27  C   UNL     1       1.959  13.158  20.153  0.00  0.00    +0.000 C 
ATOM     28  C   UNL     1       1.986  14.554  19.563  0.00  0.00    +0.000 C 
ATOM     29  C   UNL     1       3.093  14.451  18.533  0.00  0.00    +0.000 C 
ATOM     30  C   UNL     1       2.970  13.027  18.005  0.00  0.00    +0.000 C 
ENDBRANCH  25  26
ENDBRANCH   8  25
TORSDOF 7
ENDMDL
MODEL 8
REMARK VINA RESULT:      -7.5      6.759      9.082
REMARK  Name = 
REMARK  9 active torsions:
REMARK  status: ('A' for Active; 'I' for Inactive)
REMARK    1  A    between atoms: C_1  and  O_2
REMARK    2  A    between atoms: O_2  and  C_3
REMARK    3  A    between atoms: C_6  and  O_7
REMARK    4  A    between atoms: O_7  and  C_8
REMARK    5  A    between atoms: C_8  and  C_9
REMARK    6  A    between atoms: N_11  and  C_12
REMARK    7  A    between atoms: C_19  and  C_20
REMARK    8  A    between atoms: C_20  and  N_21
REMARK    9  A    between atoms: N_26  and  C_27
REMARK                            x       y       z     vdW  Elec       q    Type
REMARK                         _______ _______ _______ _____ _____    ______ ____
ROOT
ATOM      1  C   UNL     1       1.020   8.642  19.939  0.00  0.00    +0.000 A 
ATOM      2  C   UNL     1       1.275   9.247  18.701  0.00  0.00    +0.000 A 
ATOM      3  C   UNL     1       2.224   8.721  17.793  0.00  0.00    +0.000 A 
ATOM      4  C   UNL     1       2.929   7.587  18.212  0.00  0.00    +0.000 A 
ATOM      5  C   UNL     1       2.591   6.919  19.380  0.00  0.00    +0.000 A 
ATOM      6  C   UNL     1       1.608   7.415  20.231  0.00  0.00    +0.000 A 
ATOM      7  N   UNL     1       3.399   5.854  19.597  0.00  0.00    +0.000 NA
ATOM      8  C   UNL     1       4.380   5.972  18.728  0.00  0.00    +0.000 A 
ATOM      9  N   UNL     1       4.045   6.903  17.752  0.00  0.00    +0.000 N 
ATOM     10  C   UNL     1       4.822   7.234  16.581  0.00  0.00    +0.000 C 
ENDROOT
BRANCH   1  13
ATOM     11  C   UNL     1       0.712   9.526  22.256  0.00  0.00    +0.000 C 
ATOM     12  O   UNL     1       1.869   9.439  22.649  0.00  0.00    +0.000 OA
ATOM     13  N   UNL     1       0.262   9.225  20.978  0.00  0.00    +0.000 N 
ATOM     14  H   UNL     1      -0.739   9.238  20.833  0.00  0.00    +0.000 HD
BRANCH  11  15
ATOM     15  C   UNL     1      -0.417   9.943  23.203  0.00  0.00    +0.000 C 
BRANCH  15  16
ATOM     16  O   UNL     1      -0.519  11.358  23.133  0.00  0.00    +0.000 OA
BRANCH  16  20
ATOM     17  C   UNL     1      -4.016  13.055  21.637  0.00  0.00    +0.000 A 
ATOM     18  C   UNL     1      -3.909  12.625  22.960  0.00  0.00    +0.000 A 
ATOM     19  C   UNL     1      -2.726  12.043  23.417  0.00  0.00    +0.000 A 
ATOM     20  C   UNL     1      -1.650  11.852  22.550  0.00  0.00    +0.000 A 
ATOM     21  C   UNL     1      -1.767  12.242  21.216  0.00  0.00    +0.000 A 
ATOM     22  C   UNL     1      -2.950  12.845  20.762  0.00  0.00    +0.000 A 
BRANCH  17  24
ATOM     23  C   UNL     1      -6.148  13.758  22.371  0.00  0.00    +0.000 C 
ATOM     24  O   UNL     1      -5.210  13.635  21.307  0.00  0.00    +0.000 OA
ENDBRANCH  17  24
ENDBRANCH  16  20
ENDBRANCH  15  16
ENDBRANCH  11  15
ENDBRANCH   1  13
BRANCH   8  25
ATOM     25  C   UNL     1       5.744   5.381  18.973  0.00  0.00    +0.000 C 
BRANCH  25  26
ATOM     26  N   UNL     1       6.161   4.259  18.118  0.00  0.00    +0.000 NA
ATOM     27  C   UNL     1       7.415   4.486  17.413  0.00  0.00    +0.000 C 
ATOM     28  C   UNL     1       7.034   4.683  15.960  0.00  0.00    +0.000 C 
ATOM     29  C   UNL     1       5.862   3.737  15.798  0.00  0.00    +0.000 C 
ATOM     30  C   UNL     1       5.155   3.797  17.148  0.00  0.00    +0.000 C 
ENDBRANCH  25  26
ENDBRANCH   8  25
TORSDOF 7
ENDMDL
MODEL 9
REMARK VINA RESULT:      -7.5      5.676      8.848
REMARK  Name = 
REMARK  9 active torsions:
REMARK  status: ('A' for Active; 'I' for Inactive)
REMARK    1  A    between atoms: C_1  and  O_2
REMARK    2  A    between atoms: O_2  and  C_3
REMARK    3  A    between atoms: C_6  and  O_7
REMARK    4  A    between atoms: O_7  and  C_8
REMARK    5  A    between atoms: C_8  and  C_9
REMARK    6  A    between atoms: N_11  and  C_12
REMARK    7  A    between atoms: C_19  and  C_20
REMARK    8  A    between atoms: C_20  and  N_21
REMARK    9  A    between atoms: N_26  and  C_27
REMARK                            x       y       z     vdW  Elec       q    Type
REMARK                         _______ _______ _______ _____ _____    ______ ____
ROOT
ATOM      1  C   UNL     1       2.498   7.163  18.632  0.00  0.00    +0.000 A 
ATOM      2  C   UNL     1       1.837   6.005  19.063  0.00  0.00    +0.000 A 
ATOM      3  C   UNL     1       2.366   4.714  18.836  0.00  0.00    +0.000 A 
ATOM      4  C   UNL     1       3.567   4.647  18.120  0.00  0.00    +0.000 A 
ATOM      5  C   UNL     1       4.281   5.792  17.802  0.00  0.00    +0.000 A 
ATOM      6  C   UNL     1       3.775   7.056  18.091  0.00  0.00    +0.000 A 
ATOM      7  N   UNL     1       5.407   5.501  17.108  0.00  0.00    +0.000 NA
ATOM      8  C   UNL     1       5.300   4.232  16.778  0.00  0.00    +0.000 A 
ATOM      9  N   UNL     1       4.292   3.628  17.519  0.00  0.00    +0.000 N 
ATOM     10  C   UNL     1       3.942   2.227  17.507  0.00  0.00    +0.000 C 
ENDROOT
BRANCH   1  13
ATOM     11  C   UNL     1       1.393   9.127  19.711  0.00  0.00    +0.000 C 
ATOM     12  O   UNL     1       1.427   8.749  20.875  0.00  0.00    +0.000 OA
ATOM     13  N   UNL     1       1.932   8.456  18.622  0.00  0.00    +0.000 N 
ATOM     14  H   UNL     1       1.727   8.837  17.707  0.00  0.00    +0.000 HD
BRANCH  11  15
ATOM     15  C   UNL     1       0.665  10.416  19.318  0.00  0.00    +0.000 C 
BRANCH  15  16
ATOM     16  O   UNL     1      -0.714  10.218  19.598  0.00  0.00    +0.000 OA
BRANCH  16  20
ATOM     17  C   UNL     1      -3.369  10.796  16.441  0.00  0.00    +0.000 A 
ATOM     18  C   UNL     1      -2.266   9.948  16.336  0.00  0.00    +0.000 A 
ATOM     19  C   UNL     1      -1.388   9.797  17.410  0.00  0.00    +0.000 A 
ATOM     20  C   UNL     1      -1.583  10.518  18.589  0.00  0.00    +0.000 A 
ATOM     21  C   UNL     1      -2.659  11.399  18.685  0.00  0.00    +0.000 A 
ATOM     22  C   UNL     1      -3.553  11.535  17.611  0.00  0.00    +0.000 A 
BRANCH  17  24
ATOM     23  C   UNL     1      -3.734  10.081  14.220  0.00  0.00    +0.000 C 
ATOM     24  O   UNL     1      -4.175  10.846  15.338  0.00  0.00    +0.000 OA
ENDBRANCH  17  24
ENDBRANCH  16  20
ENDBRANCH  15  16
ENDBRANCH  11  15
ENDBRANCH   1  13
BRANCH   8  25
ATOM     25  C   UNL     1       5.992   3.658  15.569  0.00  0.00    +0.000 C 
BRANCH  25  26
ATOM     26  N   UNL     1       5.931   4.433  14.320  0.00  0.00    +0.000 NA
ATOM     27  C   UNL     1       5.150   3.797  13.267  0.00  0.00    +0.000 C 
ATOM     28  C   UNL     1       6.160   3.331  12.238  0.00  0.00    +0.000 C 
ATOM     29  C   UNL     1       7.210   4.421  12.294  0.00  0.00    +0.000 C 
ATOM     30  C   UNL     1       7.233   4.833  13.761  0.00  0.00    +0.000 C 
ENDBRANCH  25  26
ENDBRANCH   8  25
TORSDOF 7
ENDMDL
