MODEL 1
REMARK VINA RESULT:      -9.3      0.000      0.000
REMARK  Name = 
REMARK  5 active torsions:
REMARK  status: ('A' for Active; 'I' for Inactive)
REMARK    1  A    between atoms: C_2  and  O_3
REMARK    2  A    between atoms: C_2  and  C_4
REMARK    3  A    between atoms: C_9  and  N_10
REMARK    4  A    between atoms: N_10  and  C_11
REMARK    5  A    between atoms: C_17  and  C_18
REMARK                            x       y       z     vdW  Elec       q    Type
REMARK                         _______ _______ _______ _____ _____    ______ ____
ROOT
ATOM      1  C   UNL     1       4.578   4.365  16.904  0.00  0.00    +0.000 A 
ATOM      2  C   UNL     1       5.588   3.704  16.144  0.00  0.00    +0.000 A 
ATOM      3  C   UNL     1       6.801   4.329  15.875  0.00  0.00    +0.000 A 
ATOM      4  C   UNL     1       6.974   5.655  16.246  0.00  0.00    +0.000 A 
ATOM      5  C   UNL     1       5.983   6.336  16.971  0.00  0.00    +0.000 A 
ATOM      6 CL   UNL     1       6.405   7.959  17.430  0.00  0.00    +0.000 Cl
ATOM      7  C   UNL     1       4.756   5.727  17.344  0.00  0.00    +0.000 A 
ENDROOT
BRANCH   7   8
ATOM      8  C   UNL     1       3.673   6.541  18.041  0.00  0.00    +0.000 A 
ATOM      9  C   UNL     1       3.267   6.231  19.354  0.00  0.00    +0.000 A 
ATOM     10  C   UNL     1       2.390   7.031  20.084  0.00  0.00    +0.000 A 
ATOM     11  C   UNL     1       1.822   8.164  19.517  0.00  0.00    +0.000 A 
ATOM     12  C   UNL     1       1.199   9.129  20.306  0.00  0.00    +0.000 A 
ATOM     13  C   UNL     1       0.712  10.301  19.719  0.00  0.00    +0.000 A 
ATOM     14  C   UNL     1      -0.038  10.130  18.581  0.00  0.00    +0.000 A 
ATOM     15  C   UNL     1       0.904   9.465  17.792  0.00  0.00    +0.000 A 
ATOM     16  C   UNL     1       1.928   8.424  18.172  0.00  0.00    +0.000 A 
ATOM     17  C   UNL     1       2.994   7.646  17.463  0.00  0.00    +0.000 A 
ENDBRANCH   7   8
BRANCH   1  18
ATOM     18  N   UNL     1       3.345   3.679  17.048  0.00  0.00    +0.000 N 
ATOM     19  H   UNL     1       2.983   3.271  16.192  0.00  0.00    +0.000 HD
BRANCH  18  25
ATOM     20  C   UNL     1       3.237   2.856  19.401  0.00  0.00    +0.000 A 
ATOM     21  C   UNL     1       2.444   2.510  20.500  0.00  0.00    +0.000 A 
ATOM     22  C   UNL     1       1.080   2.768  20.500  0.00  0.00    +0.000 A 
ATOM     23  C   UNL     1       0.505   3.447  19.431  0.00  0.00    +0.000 A 
ATOM     24  C   UNL     1       1.265   3.740  18.295  0.00  0.00    +0.000 A 
ATOM     25  C   UNL     1       2.644   3.438  18.248  0.00  0.00    +0.000 A 
BRANCH  20  27
ATOM     26  O   UNL     1       5.530   3.571  19.647  0.00  0.00    +0.000 OA
ATOM     27  C   UNL     1       4.715   2.669  19.592  0.00  0.00    +0.000 C 
BRANCH  27  28
ATOM     28  O   UNL     1       5.099   1.380  19.768  0.00  0.00    +0.000 OA
ATOM     29  H   UNL     1       6.063   1.264  19.861  0.00  0.00    +0.000 HD
ENDBRANCH  27  28
ENDBRANCH  20  27
ENDBRANCH  18  25
ENDBRANCH   1  18
TORSDOF 5
ENDMDL
MODEL 2
REMARK VINA RESULT:      -9.0      2.210      4.552
REMARK  Name = 
REMARK  5 active torsions:
REMARK  status: ('A' for Active; 'I' for Inactive)
REMARK    1  A    between atoms: C_2  and  O_3
REMARK    2  A    between atoms: C_2  and  C_4
REMARK    3  A    between atoms: C_9  and  N_10
REMARK    4  A    between atoms: N_10  and  C_11
REMARK    5  A    between atoms: C_17  and  C_18
REMARK                            x       y       z     vdW  Elec       q    Type
REMARK                         _______ _______ _______ _____ _____    ______ ____
ROOT
ATOM      1  C   UNL     1       3.661   4.152  17.755  0.00  0.00    +0.000 A 
ATOM      2  C   UNL     1       4.010   2.778  17.605  0.00  0.00    +0.000 A 
ATOM      3  C   UNL     1       3.319   1.787  18.294  0.00  0.00    +0.000 A 
ATOM      4  C   UNL     1       2.363   2.157  19.230  0.00  0.00    +0.000 A 
ATOM      5  C   UNL     1       2.021   3.506  19.415  0.00  0.00    +0.000 A 
ATOM      6 CL   UNL     1       0.741   3.781  20.561  0.00  0.00    +0.000 Cl
ATOM      7  C   UNL     1       2.636   4.557  18.685  0.00  0.00    +0.000 A 
ENDROOT
BRANCH   7   8
ATOM      8  C   UNL     1       2.301   6.011  18.997  0.00  0.00    +0.000 A 
ATOM      9  C   UNL     1       2.443   7.013  18.017  0.00  0.00    +0.000 A 
ATOM     10  C   UNL     1       2.014   8.325  18.208  0.00  0.00    +0.000 A 
ATOM     11  C   UNL     1       1.465   8.724  19.418  0.00  0.00    +0.000 A 
ATOM     12  C   UNL     1       0.760   9.921  19.530  0.00  0.00    +0.000 A 
ATOM     13  C   UNL     1       0.144  10.257  20.740  0.00  0.00    +0.000 A 
ATOM     14  C   UNL     1       0.921  10.112  21.864  0.00  0.00    +0.000 A 
ATOM     15  C   UNL     1       1.219   8.751  21.754  0.00  0.00    +0.000 A 
ATOM     16  C   UNL     1       1.516   7.918  20.531  0.00  0.00    +0.000 A 
ATOM     17  C   UNL     1       1.832   6.481  20.252  0.00  0.00    +0.000 A 
ENDBRANCH   7   8
BRANCH   1  18
ATOM     18  N   UNL     1       4.482   5.090  17.079  0.00  0.00    +0.000 N 
ATOM     19  H   UNL     1       4.455   6.031  17.460  0.00  0.00    +0.000 HD
BRANCH  18  25
ATOM     20  C   UNL     1       6.787   4.942  16.136  0.00  0.00    +0.000 A 
ATOM     21  C   UNL     1       7.598   4.811  15.003  0.00  0.00    +0.000 A 
ATOM     22  C   UNL     1       7.044   4.526  13.763  0.00  0.00    +0.000 A 
ATOM     23  C   UNL     1       5.678   4.290  13.654  0.00  0.00    +0.000 A 
ATOM     24  C   UNL     1       4.842   4.482  14.758  0.00  0.00    +0.000 A 
ATOM     25  C   UNL     1       5.376   4.827  16.020  0.00  0.00    +0.000 A 
BRANCH  20  27
ATOM     26  O   UNL     1       7.408   6.038  18.195  0.00  0.00    +0.000 OA
ATOM     27  C   UNL     1       7.522   5.093  17.436  0.00  0.00    +0.000 C 
BRANCH  27  28
ATOM     28  O   UNL     1       8.311   4.039  17.762  0.00  0.00    +0.000 OA
ATOM     29  H   UNL     1       8.100   3.638  18.626  0.00  0.00    +0.000 HD
ENDBRANCH  27  28
ENDBRANCH  20  27
ENDBRANCH  18  25
ENDBRANCH   1  18
TORSDOF 5
ENDMDL
MODEL 3
REMARK VINA RESULT:      -9.0      1.526      5.031
REMARK  Name = 
REMARK  5 active torsions:
REMARK  status: ('A' for Active; 'I' for Inactive)
REMARK    1  A    between atoms: C_2  and  O_3
REMARK    2  A    between atoms: C_2  and  C_4
REMARK    3  A    between atoms: C_9  and  N_10
REMARK    4  A    between atoms: N_10  and  C_11
REMARK    5  A    between atoms: C_17  and  C_18
REMARK                            x       y       z     vdW  Elec       q    Type
REMARK                         _______ _______ _______ _____ _____    ______ ____
ROOT
ATOM      1  C   UNL     1       2.152   6.495  20.127  0.00  0.00    +0.000 A 
ATOM      2  C   UNL     1       1.225   7.029  21.069  0.00  0.00    +0.000 A 
ATOM      3  C   UNL     1       0.682   8.297  20.895  0.00  0.00    +0.000 A 
ATOM      4  C   UNL     1       1.146   9.093  19.857  0.00  0.00    +0.000 A 
ATOM      5  C   UNL     1       2.080   8.599  18.932  0.00  0.00    +0.000 A 
ATOM      6 CL   UNL     1       2.482   9.700  17.647  0.00  0.00    +0.000 Cl
ATOM      7  C   UNL     1       2.612   7.285  19.012  0.00  0.00    +0.000 A 
ENDROOT
BRANCH   7   8
ATOM      8  C   UNL     1       3.698   6.834  18.043  0.00  0.00    +0.000 A 
ATOM      9  C   UNL     1       4.928   7.517  17.966  0.00  0.00    +0.000 A 
ATOM     10  C   UNL     1       6.002   7.058  17.206  0.00  0.00    +0.000 A 
ATOM     11  C   UNL     1       5.887   5.912  16.431  0.00  0.00    +0.000 A 
ATOM     12  C   UNL     1       7.013   5.274  15.916  0.00  0.00    +0.000 A 
ATOM     13  C   UNL     1       6.873   4.074  15.211  0.00  0.00    +0.000 A 
ATOM     14  C   UNL     1       5.896   4.061  14.245  0.00  0.00    +0.000 A 
ATOM     15  C   UNL     1       4.791   4.366  15.044  0.00  0.00    +0.000 A 
ATOM     16  C   UNL     1       4.669   5.312  16.214  0.00  0.00    +0.000 A 
ATOM     17  C   UNL     1       3.585   5.728  17.160  0.00  0.00    +0.000 A 
ENDBRANCH   7   8
BRANCH   1  18
ATOM     18  N   UNL     1       2.716   5.231  20.441  0.00  0.00    +0.000 N 
ATOM     19  H   UNL     1       3.427   5.252  21.165  0.00  0.00    +0.000 HD
BRANCH  18  25
ATOM     20  C   UNL     1       3.247   3.000  19.459  0.00  0.00    +0.000 A 
ATOM     21  C   UNL     1       2.781   1.844  18.823  0.00  0.00    +0.000 A 
ATOM     22  C   UNL     1       1.420   1.614  18.678  0.00  0.00    +0.000 A 
ATOM     23  C   UNL     1       0.505   2.499  19.237  0.00  0.00    +0.000 A 
ATOM     24  C   UNL     1       0.947   3.694  19.815  0.00  0.00    +0.000 A 
ATOM     25  C   UNL     1       2.327   3.977  19.925  0.00  0.00    +0.000 A 
BRANCH  20  27
ATOM     26  O   UNL     1       5.436   4.016  19.462  0.00  0.00    +0.000 OA
ATOM     27  C   UNL     1       4.729   3.052  19.690  0.00  0.00    +0.000 C 
BRANCH  27  28
ATOM     28  O   UNL     1       5.249   1.932  20.250  0.00  0.00    +0.000 OA
ATOM     29  H   UNL     1       4.792   1.110  19.990  0.00  0.00    +0.000 HD
ENDBRANCH  27  28
ENDBRANCH  20  27
ENDBRANCH  18  25
ENDBRANCH   1  18
TORSDOF 5
ENDMDL
MODEL 4
REMARK VINA RESULT:      -8.9      2.333      4.707
REMARK  Name = 
REMARK  5 active torsions:
REMARK  status: ('A' for Active; 'I' for Inactive)
REMARK    1  A    between atoms: C_2  and  O_3
REMARK    2  A    between atoms: C_2  and  C_4
REMARK    3  A    between atoms: C_9  and  N_10
REMARK    4  A    between atoms: N_10  and  C_11
REMARK    5  A    between atoms: C_17  and  C_18
REMARK                            x       y       z     vdW  Elec       q    Type
REMARK                         _______ _______ _______ _____ _____    ______ ____
ROOT
ATOM      1  C   UNL     1       4.361   4.207  19.136  0.00  0.00    +0.000 A 
ATOM      2  C   UNL     1       4.733   2.878  19.492  0.00  0.00    +0.000 A 
ATOM      3  C   UNL     1       3.816   2.015  20.085  0.00  0.00    +0.000 A 
ATOM      4  C   UNL     1       2.567   2.502  20.443  0.00  0.00    +0.000 A 
ATOM      5  C   UNL     1       2.188   3.816  20.128  0.00  0.00    +0.000 A 
ATOM      6 CL   UNL     1       0.557   4.228  20.571  0.00  0.00    +0.000 Cl
ATOM      7  C   UNL     1       3.051   4.719  19.454  0.00  0.00    +0.000 A 
ENDROOT
BRANCH   7   8
ATOM      8  C   UNL     1       2.628   6.166  19.227  0.00  0.00    +0.000 A 
ATOM      9  C   UNL     1       2.895   6.814  18.005  0.00  0.00    +0.000 A 
ATOM     10  C   UNL     1       2.401   8.081  17.697  0.00  0.00    +0.000 A 
ATOM     11  C   UNL     1       1.656   8.798  18.623  0.00  0.00    +0.000 A 
ATOM     12  C   UNL     1       0.907   9.909  18.240  0.00  0.00    +0.000 A 
ATOM     13  C   UNL     1       0.097  10.560  19.176  0.00  0.00    +0.000 A 
ATOM     14  C   UNL     1       0.690  10.840  20.384  0.00  0.00    +0.000 A 
ATOM     15  C   UNL     1       1.042   9.542  20.764  0.00  0.00    +0.000 A 
ATOM     16  C   UNL     1       1.554   8.392  19.932  0.00  0.00    +0.000 A 
ATOM     17  C   UNL     1       1.952   6.969  20.182  0.00  0.00    +0.000 A 
ENDBRANCH   7   8
BRANCH   1  18
ATOM     18  N   UNL     1       5.392   5.034  18.620  0.00  0.00    +0.000 N 
ATOM     19  H   UNL     1       5.792   5.683  19.290  0.00  0.00    +0.000 HD
BRANCH  18  25
ATOM     20  C   UNL     1       6.924   5.905  16.854  0.00  0.00    +0.000 A 
ATOM     21  C   UNL     1       7.327   5.875  15.515  0.00  0.00    +0.000 A 
ATOM     22  C   UNL     1       6.826   4.916  14.644  0.00  0.00    +0.000 A 
ATOM     23  C   UNL     1       5.974   3.927  15.122  0.00  0.00    +0.000 A 
ATOM     24  C   UNL     1       5.505   3.979  16.438  0.00  0.00    +0.000 A 
ATOM     25  C   UNL     1       5.958   4.978  17.329  0.00  0.00    +0.000 A 
BRANCH  20  27
ATOM     26  O   UNL     1       8.141   6.628  18.810  0.00  0.00    +0.000 OA
ATOM     27  C   UNL     1       7.658   6.886  17.722  0.00  0.00    +0.000 C 
BRANCH  27  28
ATOM     28  O   UNL     1       7.811   8.116  17.173  0.00  0.00    +0.000 OA
ATOM     29  H   UNL     1       8.741   8.394  17.079  0.00  0.00    +0.000 HD
ENDBRANCH  27  28
ENDBRANCH  20  27
ENDBRANCH  18  25
ENDBRANCH   1  18
TORSDOF 5
ENDMDL
MODEL 5
REMARK VINA RESULT:      -8.8      0.842      1.576
REMARK  Name = 
REMARK  5 active torsions:
REMARK  status: ('A' for Active; 'I' for Inactive)
REMARK    1  A    between atoms: C_2  and  O_3
REMARK    2  A    between atoms: C_2  and  C_4
REMARK    3  A    between atoms: C_9  and  N_10
REMARK    4  A    between atoms: N_10  and  C_11
REMARK    5  A    between atoms: C_17  and  C_18
REMARK                            x       y       z     vdW  Elec       q    Type
REMARK                         _______ _______ _______ _____ _____    ______ ____
ROOT
ATOM      1  C   UNL     1       4.248   4.495  17.217  0.00  0.00    +0.000 A 
ATOM      2  C   UNL     1       5.157   3.647  16.519  0.00  0.00    +0.000 A 
ATOM      3  C   UNL     1       6.415   4.106  16.143  0.00  0.00    +0.000 A 
ATOM      4  C   UNL     1       6.732   5.442  16.343  0.00  0.00    +0.000 A 
ATOM      5  C   UNL     1       5.842   6.304  17.003  0.00  0.00    +0.000 A 
ATOM      6 CL   UNL     1       6.440   7.919  17.247  0.00  0.00    +0.000 Cl
ATOM      7  C   UNL     1       4.576   5.874  17.481  0.00  0.00    +0.000 A 
ENDROOT
BRANCH   7   8
ATOM      8  C   UNL     1       3.607   6.873  18.100  0.00  0.00    +0.000 A 
ATOM      9  C   UNL     1       3.145   7.983  17.366  0.00  0.00    +0.000 A 
ATOM     10  C   UNL     1       2.150   8.840  17.834  0.00  0.00    +0.000 A 
ATOM     11  C   UNL     1       1.598   8.665  19.096  0.00  0.00    +0.000 A 
ATOM     12  C   UNL     1       0.413   9.303  19.458  0.00  0.00    +0.000 A 
ATOM     13  C   UNL     1      -0.166   9.042  20.704  0.00  0.00    +0.000 A 
ATOM     14  C   UNL     1       0.688   9.085  21.780  0.00  0.00    +0.000 A 
ATOM     15  C   UNL     1       1.601   8.106  21.377  0.00  0.00    +0.000 A 
ATOM     16  C   UNL     1       2.145   7.791  20.005  0.00  0.00    +0.000 A 
ATOM     17  C   UNL     1       3.093   6.789  19.421  0.00  0.00    +0.000 A 
ENDBRANCH   7   8
BRANCH   1  18
ATOM     18  N   UNL     1       2.959   3.962  17.478  0.00  0.00    +0.000 N 
ATOM     19  H   UNL     1       2.424   3.720  16.649  0.00  0.00    +0.000 HD
BRANCH  18  25
ATOM     20  C   UNL     1       2.905   2.634  19.589  0.00  0.00    +0.000 A 
ATOM     21  C   UNL     1       2.213   2.291  20.756  0.00  0.00    +0.000 A 
ATOM     22  C   UNL     1       1.059   2.971  21.123  0.00  0.00    +0.000 A 
ATOM     23  C   UNL     1       0.626   4.055  20.367  0.00  0.00    +0.000 A 
ATOM     24  C   UNL     1       1.262   4.370  19.162  0.00  0.00    +0.000 A 
ATOM     25  C   UNL     1       2.406   3.658  18.739  0.00  0.00    +0.000 A 
BRANCH  20  27
ATOM     26  O   UNL     1       5.220   2.131  20.052  0.00  0.00    +0.000 OA
ATOM     27  C   UNL     1       4.216   1.931  19.392  0.00  0.00    +0.000 C 
BRANCH  27  28
ATOM     28  O   UNL     1       4.202   0.974  18.432  0.00  0.00    +0.000 OA
ATOM     29  H   UNL     1       4.089   1.322  17.528  0.00  0.00    +0.000 HD
ENDBRANCH  27  28
ENDBRANCH  20  27
ENDBRANCH  18  25
ENDBRANCH   1  18
TORSDOF 5
ENDMDL
MODEL 6
REMARK VINA RESULT:      -8.8      2.817      6.467
REMARK  Name = 
REMARK  5 active torsions:
REMARK  status: ('A' for Active; 'I' for Inactive)
REMARK    1  A    between atoms: C_2  and  O_3
REMARK    2  A    between atoms: C_2  and  C_4
REMARK    3  A    between atoms: C_9  and  N_10
REMARK    4  A    between atoms: N_10  and  C_11
REMARK    5  A    between atoms: C_17  and  C_18
REMARK                            x       y       z     vdW  Elec       q    Type
REMARK                         _______ _______ _______ _____ _____    ______ ____
ROOT
ATOM      1  C   UNL     1       2.471   5.226  20.088  0.00  0.00    +0.000 A 
ATOM      2  C   UNL     1       1.373   4.851  20.915  0.00  0.00    +0.000 A 
ATOM      3  C   UNL     1       0.859   3.559  20.874  0.00  0.00    +0.000 A 
ATOM      4  C   UNL     1       1.345   2.669  19.927  0.00  0.00    +0.000 A 
ATOM      5  C   UNL     1       2.408   3.025  19.082  0.00  0.00    +0.000 A 
ATOM      6 CL   UNL     1       2.949   1.758  18.020  0.00  0.00    +0.000 Cl
ATOM      7  C   UNL     1       3.027   4.302  19.130  0.00  0.00    +0.000 A 
ENDROOT
BRANCH   7   8
ATOM      8  C   UNL     1       4.108   4.673  18.123  0.00  0.00    +0.000 A 
ATOM      9  C   UNL     1       5.191   5.495  18.493  0.00  0.00    +0.000 A 
ATOM     10  C   UNL     1       6.276   5.741  17.654  0.00  0.00    +0.000 A 
ATOM     11  C   UNL     1       6.313   5.220  16.368  0.00  0.00    +0.000 A 
ATOM     12  C   UNL     1       7.497   5.194  15.634  0.00  0.00    +0.000 A 
ATOM     13  C   UNL     1       7.524   4.586  14.375  0.00  0.00    +0.000 A 
ATOM     14  C   UNL     1       6.502   4.932  13.524  0.00  0.00    +0.000 A 
ATOM     15  C   UNL     1       5.416   4.534  14.308  0.00  0.00    +0.000 A 
ATOM     16  C   UNL     1       5.208   4.631  15.800  0.00  0.00    +0.000 A 
ATOM     17  C   UNL     1       4.133   4.245  16.769  0.00  0.00    +0.000 A 
ENDBRANCH   7   8
BRANCH   1  18
ATOM     18  N   UNL     1       2.864   6.589  20.139  0.00  0.00    +0.000 N 
ATOM     19  H   UNL     1       3.722   6.765  20.652  0.00  0.00    +0.000 HD
BRANCH  18  25
ATOM     20  C   UNL     1       1.283   8.518  20.102  0.00  0.00    +0.000 A 
ATOM     21  C   UNL     1       0.603   9.479  19.346  0.00  0.00    +0.000 A 
ATOM     22  C   UNL     1       0.887   9.653  17.998  0.00  0.00    +0.000 A 
ATOM     23  C   UNL     1       1.911   8.920  17.408  0.00  0.00    +0.000 A 
ATOM     24  C   UNL     1       2.555   7.908  18.126  0.00  0.00    +0.000 A 
ATOM     25  C   UNL     1       2.245   7.675  19.485  0.00  0.00    +0.000 A 
BRANCH  20  27
ATOM     26  O   UNL     1      -0.101   8.357  22.073  0.00  0.00    +0.000 OA
ATOM     27  C   UNL     1       0.995   8.541  21.575  0.00  0.00    +0.000 C 
BRANCH  27  28
ATOM     28  O   UNL     1       2.086   8.726  22.358  0.00  0.00    +0.000 OA
ATOM     29  H   UNL     1       2.932   8.543  21.908  0.00  0.00    +0.000 HD
ENDBRANCH  27  28
ENDBRANCH  20  27
ENDBRANCH  18  25
ENDBRANCH   1  18
TORSDOF 5
ENDMDL
MODEL 7
REMARK VINA RESULT:      -8.8      2.696      6.425
REMARK  Name = 
REMARK  5 active torsions:
REMARK  status: ('A' for Active; 'I' for Inactive)
REMARK    1  A    between atoms: C_2  and  O_3
REMARK    2  A    between atoms: C_2  and  C_4
REMARK    3  A    between atoms: C_9  and  N_10
REMARK    4  A    between atoms: N_10  and  C_11
REMARK    5  A    between atoms: C_17  and  C_18
REMARK                            x       y       z     vdW  Elec       q    Type
REMARK                         _______ _______ _______ _____ _____    ______ ____
ROOT
ATOM      1  C   UNL     1       2.597   5.131  20.093  0.00  0.00    +0.000 A 
ATOM      2  C   UNL     1       1.579   4.723  21.003  0.00  0.00    +0.000 A 
ATOM      3  C   UNL     1       1.241   3.381  21.141  0.00  0.00    +0.000 A 
ATOM      4  C   UNL     1       1.821   2.449  20.291  0.00  0.00    +0.000 A 
ATOM      5  C   UNL     1       2.807   2.831  19.368  0.00  0.00    +0.000 A 
ATOM      6 CL   UNL     1       3.487   1.521  18.448  0.00  0.00    +0.000 Cl
ATOM      7  C   UNL     1       3.249   4.173  19.235  0.00  0.00    +0.000 A 
ENDROOT
BRANCH   7   8
ATOM      8  C   UNL     1       4.248   4.551  18.147  0.00  0.00    +0.000 A 
ATOM      9  C   UNL     1       5.316   5.428  18.419  0.00  0.00    +0.000 A 
ATOM     10  C   UNL     1       6.334   5.687  17.503  0.00  0.00    +0.000 A 
ATOM     11  C   UNL     1       6.310   5.124  16.235  0.00  0.00    +0.000 A 
ATOM     12  C   UNL     1       7.445   5.119  15.426  0.00  0.00    +0.000 A 
ATOM     13  C   UNL     1       7.416   4.469  14.188  0.00  0.00    +0.000 A 
ATOM     14  C   UNL     1       6.328   4.744  13.395  0.00  0.00    +0.000 A 
ATOM     15  C   UNL     1       5.312   4.331  14.262  0.00  0.00    +0.000 A 
ATOM     16  C   UNL     1       5.197   4.471  15.760  0.00  0.00    +0.000 A 
ATOM     17  C   UNL     1       4.203   4.077  16.810  0.00  0.00    +0.000 A 
ENDBRANCH   7   8
BRANCH   1  18
ATOM     18  N   UNL     1       2.805   6.528  19.962  0.00  0.00    +0.000 N 
ATOM     19  H   UNL     1       3.730   6.792  19.636  0.00  0.00    +0.000 HD
BRANCH  18  25
ATOM     20  C   UNL     1       1.692   8.647  19.256  0.00  0.00    +0.000 A 
ATOM     21  C   UNL     1       0.827   9.697  19.582  0.00  0.00    +0.000 A 
ATOM     22  C   UNL     1       0.077   9.661  20.751  0.00  0.00    +0.000 A 
ATOM     23  C   UNL     1       0.126   8.538  21.569  0.00  0.00    +0.000 A 
ATOM     24  C   UNL     1       1.034   7.510  21.298  0.00  0.00    +0.000 A 
ATOM     25  C   UNL     1       1.848   7.549  20.144  0.00  0.00    +0.000 A 
BRANCH  20  27
ATOM     26  O   UNL     1       3.001   7.863  17.385  0.00  0.00    +0.000 OA
ATOM     27  C   UNL     1       2.321   8.734  17.896  0.00  0.00    +0.000 C 
BRANCH  27  28
ATOM     28  O   UNL     1       2.026   9.868  17.212  0.00  0.00    +0.000 OA
ATOM     29  H   UNL     1       2.568  10.637  17.468  0.00  0.00    +0.000 HD
ENDBRANCH  27  28
ENDBRANCH  20  27
ENDBRANCH  18  25
ENDBRANCH   1  18
TORSDOF 5
ENDMDL
MODEL 8
REMARK VINA RESULT:      -8.6      1.541      2.035
REMARK  Name = 
REMARK  5 active torsions:
REMARK  status: ('A' for Active; 'I' for Inactive)
REMARK    1  A    between atoms: C_2  and  O_3
REMARK    2  A    between atoms: C_2  and  C_4
REMARK    3  A    between atoms: C_9  and  N_10
REMARK    4  A    between atoms: N_10  and  C_11
REMARK    5  A    between atoms: C_17  and  C_18
REMARK                            x       y       z     vdW  Elec       q    Type
REMARK                         _______ _______ _______ _____ _____    ______ ____
ROOT
ATOM      1  C   UNL     1       5.046   4.328  17.210  0.00  0.00    +0.000 A 
ATOM      2  C   UNL     1       6.106   3.719  16.478  0.00  0.00    +0.000 A 
ATOM      3  C   UNL     1       7.221   4.456  16.091  0.00  0.00    +0.000 A 
ATOM      4  C   UNL     1       7.236   5.825  16.315  0.00  0.00    +0.000 A 
ATOM      5  C   UNL     1       6.190   6.453  17.010  0.00  0.00    +0.000 A 
ATOM      6 CL   UNL     1       6.416   8.156  17.280  0.00  0.00    +0.000 Cl
ATOM      7  C   UNL     1       5.063   5.741  17.500  0.00  0.00    +0.000 A 
ENDROOT
BRANCH   7   8
ATOM      8  C   UNL     1       3.908   6.486  18.158  0.00  0.00    +0.000 A 
ATOM      9  C   UNL     1       3.394   6.071  19.402  0.00  0.00    +0.000 A 
ATOM     10  C   UNL     1       2.442   6.802  20.110  0.00  0.00    +0.000 A 
ATOM     11  C   UNL     1       1.905   7.968  19.583  0.00  0.00    +0.000 A 
ATOM     12  C   UNL     1       1.198   8.862  20.384  0.00  0.00    +0.000 A 
ATOM     13  C   UNL     1       0.742  10.070  19.847  0.00  0.00    +0.000 A 
ATOM     14  C   UNL     1       0.097   9.978  18.637  0.00  0.00    +0.000 A 
ATOM     15  C   UNL     1       1.117   9.388  17.886  0.00  0.00    +0.000 A 
ATOM     16  C   UNL     1       2.124   8.333  18.275  0.00  0.00    +0.000 A 
ATOM     17  C   UNL     1       3.262   7.624  17.607  0.00  0.00    +0.000 A 
ENDBRANCH   7   8
BRANCH   1  18
ATOM     18  N   UNL     1       3.915   3.515  17.480  0.00  0.00    +0.000 N 
ATOM     19  H   UNL     1       3.403   3.212  16.657  0.00  0.00    +0.000 HD
BRANCH  18  25
ATOM     20  C   UNL     1       2.146   2.987  19.158  0.00  0.00    +0.000 A 
ATOM     21  C   UNL     1       1.829   2.631  20.474  0.00  0.00    +0.000 A 
ATOM     22  C   UNL     1       2.825   2.270  21.371  0.00  0.00    +0.000 A 
ATOM     23  C   UNL     1       4.144   2.185  20.941  0.00  0.00    +0.000 A 
ATOM     24  C   UNL     1       4.492   2.602  19.653  0.00  0.00    +0.000 A 
ATOM     25  C   UNL     1       3.503   3.027  18.738  0.00  0.00    +0.000 A 
BRANCH  20  27
ATOM     26  O   UNL     1       0.893   4.074  17.405  0.00  0.00    +0.000 OA
ATOM     27  C   UNL     1       0.970   3.202  18.251  0.00  0.00    +0.000 C 
BRANCH  27  28
ATOM     28  O   UNL     1      -0.023   2.289  18.393  0.00  0.00    +0.000 OA
ATOM     29  H   UNL     1      -0.875   2.567  18.006  0.00  0.00    +0.000 HD
ENDBRANCH  27  28
ENDBRANCH  20  27
ENDBRANCH  18  25
ENDBRANCH   1  18
TORSDOF 5
ENDMDL
MODEL 9
REMARK VINA RESULT:      -8.6      2.514      4.533
REMARK  Name = 
REMARK  5 active torsions:
REMARK  status: ('A' for Active; 'I' for Inactive)
REMARK    1  A    between atoms: C_2  and  O_3
REMARK    2  A    between atoms: C_2  and  C_4
REMARK    3  A    between atoms: C_9  and  N_10
REMARK    4  A    between atoms: N_10  and  C_11
REMARK    5  A    between atoms: C_17  and  C_18
REMARK                            x       y       z     vdW  Elec       q    Type
REMARK                         _______ _______ _______ _____ _____    ______ ____
ROOT
ATOM      1  C   UNL     1       3.436   3.809  17.799  0.00  0.00    +0.000 A 
ATOM      2  C   UNL     1       3.653   2.407  17.658  0.00  0.00    +0.000 A 
ATOM      3  C   UNL     1       2.809   1.489  18.273  0.00  0.00    +0.000 A 
ATOM      4  C   UNL     1       1.822   1.951  19.133  0.00  0.00    +0.000 A 
ATOM      5  C   UNL     1       1.607   3.327  19.310  0.00  0.00    +0.000 A 
ATOM      6 CL   UNL     1       0.273   3.726  20.352  0.00  0.00    +0.000 Cl
ATOM      7  C   UNL     1       2.386   4.313  18.648  0.00  0.00    +0.000 A 
ENDROOT
BRANCH   7   8
ATOM      8  C   UNL     1       2.178   5.792  18.954  0.00  0.00    +0.000 A 
ATOM      9  C   UNL     1       2.430   6.775  17.978  0.00  0.00    +0.000 A 
ATOM     10  C   UNL     1       2.118   8.121  18.160  0.00  0.00    +0.000 A 
ATOM     11  C   UNL     1       1.583   8.570  19.359  0.00  0.00    +0.000 A 
ATOM     12  C   UNL     1       0.988   9.826  19.457  0.00  0.00    +0.000 A 
ATOM     13  C   UNL     1       0.382  10.219  20.655  0.00  0.00    +0.000 A 
ATOM     14  C   UNL     1       1.120  10.006  21.795  0.00  0.00    +0.000 A 
ATOM     15  C   UNL     1       1.295   8.623  21.689  0.00  0.00    +0.000 A 
ATOM     16  C   UNL     1       1.539   7.765  20.473  0.00  0.00    +0.000 A 
ATOM     17  C   UNL     1       1.729   6.304  20.199  0.00  0.00    +0.000 A 
ENDBRANCH   7   8
BRANCH   1  18
ATOM     18  N   UNL     1       4.404   4.661  17.207  0.00  0.00    +0.000 N 
ATOM     19  H   UNL     1       4.087   5.150  16.375  0.00  0.00    +0.000 HD
BRANCH  18  25
ATOM     20  C   UNL     1       6.881   4.789  16.944  0.00  0.00    +0.000 A 
ATOM     21  C   UNL     1       8.130   4.959  17.552  0.00  0.00    +0.000 A 
ATOM     22  C   UNL     1       8.226   5.334  18.885  0.00  0.00    +0.000 A 
ATOM     23  C   UNL     1       7.072   5.622  19.606  0.00  0.00    +0.000 A 
ATOM     24  C   UNL     1       5.814   5.392  19.040  0.00  0.00    +0.000 A 
ATOM     25  C   UNL     1       5.691   4.957  17.702  0.00  0.00    +0.000 A 
BRANCH  20  27
ATOM     26  O   UNL     1       7.542   5.203  14.660  0.00  0.00    +0.000 OA
ATOM     27  C   UNL     1       6.917   4.538  15.465  0.00  0.00    +0.000 C 
BRANCH  27  28
ATOM     28  O   UNL     1       6.229   3.439  15.065  0.00  0.00    +0.000 OA
ATOM     29  H   UNL     1       6.416   2.641  15.594  0.00  0.00    +0.000 HD
ENDBRANCH  27  28
ENDBRANCH  20  27
ENDBRANCH  18  25
ENDBRANCH   1  18
TORSDOF 5
ENDMDL
