MODEL 1
REMARK VINA RESULT:      -8.6      0.000      0.000
REMARK  Name = 
REMARK  5 active torsions:
REMARK  status: ('A' for Active; 'I' for Inactive)
REMARK    1  A    between atoms: N_3  and  C_4
REMARK    2  A    between atoms: C_7  and  O_8
REMARK    3  A    between atoms: O_8  and  C_9
REMARK    4  A    between atoms: N_15  and  C_16
REMARK    5  A    between atoms: C_18  and  C_19
REMARK                            x       y       z     vdW  Elec       q    Type
REMARK                         _______ _______ _______ _____ _____    ______ ____
ROOT
ATOM      1  O   UNL     1       1.755   8.734  18.655  0.00  0.00    +0.000 OA
ATOM      2  C   UNL     1       1.877   7.894  19.550  0.00  0.00    +0.000 C 
ATOM      3  N   UNL     1       1.245   7.990  20.818  0.00  0.00    +0.000 N 
ATOM      4  N   UNL     1       2.666   6.718  19.410  0.00  0.00    +0.000 N 
ATOM      5  H   UNL     1       0.928   7.103  21.194  0.00  0.00    +0.000 HD
ATOM      6  H   UNL     1       3.098   6.353  20.247  0.00  0.00    +0.000 HD
ENDROOT
BRANCH   4   7
ATOM      7  C   UNL     1       2.931   6.026  18.160  0.00  0.00    +0.000 A 
ATOM      8  C   UNL     1       2.000   5.052  17.831  0.00  0.00    +0.000 A 
ATOM      9  C   UNL     1       2.572   3.784  17.858  0.00  0.00    +0.000 A 
ATOM     10  N   UNL     1       3.640   3.573  17.073  0.00  0.00    +0.000 NA
ATOM     11  C   UNL     1       4.536   4.551  17.079  0.00  0.00    +0.000 A 
ATOM     12  C   UNL     1       5.822   4.174  16.710  0.00  0.00    +0.000 A 
ATOM     13  C   UNL     1       6.866   5.077  16.665  0.00  0.00    +0.000 A 
ATOM     14  C   UNL     1       6.580   6.416  16.919  0.00  0.00    +0.000 A 
ATOM     15  C   UNL     1       5.311   6.795  17.402  0.00  0.00    +0.000 A 
ATOM     16  C   UNL     1       4.261   5.843  17.598  0.00  0.00    +0.000 A 
BRANCH   9  17
ATOM     17  C   UNL     1       2.720   3.110  19.231  0.00  0.00    +0.000 C 
ATOM     18  F   UNL     1       3.976   3.190  19.766  0.00  0.00    +0.000 F 
ATOM     19  F   UNL     1       1.873   3.613  20.166  0.00  0.00    +0.000 F 
ATOM     20  F   UNL     1       2.461   1.763  19.181  0.00  0.00    +0.000 F 
ENDBRANCH   9  17
ENDBRANCH   4   7
BRANCH   3  21
ATOM     21  C   UNL     1       0.694   9.162  21.456  0.00  0.00    +0.000 A 
ATOM     22  C   UNL     1      -0.020   9.128  22.658  0.00  0.00    +0.000 A 
ATOM     23  C   UNL     1      -0.669  10.276  23.168  0.00  0.00    +0.000 A 
ATOM     24  C   UNL     1      -0.621  11.513  22.533  0.00  0.00    +0.000 A 
ATOM     25  C   UNL     1       0.115  11.600  21.352  0.00  0.00    +0.000 A 
ATOM     26  C   UNL     1       0.759  10.428  20.831  0.00  0.00    +0.000 A 
BRANCH  24  27
ATOM     27  O   UNL     1      -1.401  12.473  23.114  0.00  0.00    +0.000 OA
BRANCH  27  28
ATOM     28  C   UNL     1      -2.809  12.541  22.973  0.00  0.00    +0.000 C 
ATOM     29  F   UNL     1      -3.279  12.131  21.784  0.00  0.00    +0.000 F 
ATOM     30  F   UNL     1      -3.401  11.804  23.949  0.00  0.00    +0.000 F 
ATOM     31  F   UNL     1      -3.199  13.830  23.164  0.00  0.00    +0.000 F 
ENDBRANCH  27  28
ENDBRANCH  24  27
ENDBRANCH   3  21
TORSDOF 5
ENDMDL
MODEL 2
REMARK VINA RESULT:      -8.6      3.396      9.627
REMARK  Name = 
REMARK  5 active torsions:
REMARK  status: ('A' for Active; 'I' for Inactive)
REMARK    1  A    between atoms: N_3  and  C_4
REMARK    2  A    between atoms: C_7  and  O_8
REMARK    3  A    between atoms: O_8  and  C_9
REMARK    4  A    between atoms: N_15  and  C_16
REMARK    5  A    between atoms: C_18  and  C_19
REMARK                            x       y       z     vdW  Elec       q    Type
REMARK                         _______ _______ _______ _____ _____    ______ ____
ROOT
ATOM      1  O   UNL     1       2.312   8.733  17.455  0.00  0.00    +0.000 OA
ATOM      2  C   UNL     1       2.103   8.221  18.558  0.00  0.00    +0.000 C 
ATOM      3  N   UNL     1       2.816   7.102  19.060  0.00  0.00    +0.000 N 
ATOM      4  N   UNL     1       1.118   8.706  19.465  0.00  0.00    +0.000 N 
ATOM      5  H   UNL     1       3.000   7.137  20.058  0.00  0.00    +0.000 HD
ATOM      6  H   UNL     1       0.681   8.027  20.072  0.00  0.00    +0.000 HD
ENDROOT
BRANCH   4   7
ATOM      7  C   UNL     1       0.665  10.082  19.559  0.00  0.00    +0.000 A 
ATOM      8  C   UNL     1       1.143  10.773  20.662  0.00  0.00    +0.000 A 
ATOM      9  C   UNL     1       0.110  11.096  21.536  0.00  0.00    +0.000 A 
ATOM     10  N   UNL     1      -0.910  11.818  21.045  0.00  0.00    +0.000 NA
ATOM     11  C   UNL     1      -1.337  11.435  19.850  0.00  0.00    +0.000 A 
ATOM     12  C   UNL     1      -2.644  11.798  19.547  0.00  0.00    +0.000 A 
ATOM     13  C   UNL     1      -3.235  11.474  18.341  0.00  0.00    +0.000 A 
ATOM     14  C   UNL     1      -2.449  10.839  17.382  0.00  0.00    +0.000 A 
ATOM     15  C   UNL     1      -1.162  10.367  17.712  0.00  0.00    +0.000 A 
ATOM     16  C   UNL     1      -0.595  10.563  19.010  0.00  0.00    +0.000 A 
BRANCH   9  17
ATOM     17  C   UNL     1      -0.370   9.994  22.494  0.00  0.00    +0.000 C 
ATOM     18  F   UNL     1      -1.324  10.399  23.386  0.00  0.00    +0.000 F 
ATOM     19  F   UNL     1      -0.882   8.913  21.850  0.00  0.00    +0.000 F 
ATOM     20  F   UNL     1       0.645   9.511  23.283  0.00  0.00    +0.000 F 
ENDBRANCH   9  17
ENDBRANCH   4   7
BRANCH   3  21
ATOM     21  C   UNL     1       3.596   6.134  18.324  0.00  0.00    +0.000 A 
ATOM     22  C   UNL     1       4.924   6.340  17.937  0.00  0.00    +0.000 A 
ATOM     23  C   UNL     1       5.598   5.431  17.090  0.00  0.00    +0.000 A 
ATOM     24  C   UNL     1       5.006   4.267  16.609  0.00  0.00    +0.000 A 
ATOM     25  C   UNL     1       3.695   4.004  17.004  0.00  0.00    +0.000 A 
ATOM     26  C   UNL     1       3.010   4.938  17.852  0.00  0.00    +0.000 A 
BRANCH  24  27
ATOM     27  O   UNL     1       5.773   3.575  15.715  0.00  0.00    +0.000 OA
BRANCH  27  28
ATOM     28  C   UNL     1       6.128   4.062  14.433  0.00  0.00    +0.000 C 
ATOM     29  F   UNL     1       6.199   3.127  13.472  0.00  0.00    +0.000 F 
ATOM     30  F   UNL     1       5.239   5.013  14.045  0.00  0.00    +0.000 F 
ATOM     31  F   UNL     1       7.341   4.671  14.524  0.00  0.00    +0.000 F 
ENDBRANCH  27  28
ENDBRANCH  24  27
ENDBRANCH   3  21
TORSDOF 5
ENDMDL
MODEL 3
REMARK VINA RESULT:      -8.5      0.453      1.359
REMARK  Name = 
REMARK  5 active torsions:
REMARK  status: ('A' for Active; 'I' for Inactive)
REMARK    1  A    between atoms: N_3  and  C_4
REMARK    2  A    between atoms: C_7  and  O_8
REMARK    3  A    between atoms: O_8  and  C_9
REMARK    4  A    between atoms: N_15  and  C_16
REMARK    5  A    between atoms: C_18  and  C_19
REMARK                            x       y       z     vdW  Elec       q    Type
REMARK                         _______ _______ _______ _____ _____    ______ ____
ROOT
ATOM      1  O   UNL     1       1.645   8.486  18.426  0.00  0.00    +0.000 OA
ATOM      2  C   UNL     1       1.970   7.772  19.378  0.00  0.00    +0.000 C 
ATOM      3  N   UNL     1       1.397   7.869  20.673  0.00  0.00    +0.000 N 
ATOM      4  N   UNL     1       2.962   6.755  19.283  0.00  0.00    +0.000 N 
ATOM      5  H   UNL     1       1.274   6.978  21.143  0.00  0.00    +0.000 HD
ATOM      6  H   UNL     1       3.498   6.557  20.117  0.00  0.00    +0.000 HD
ENDROOT
BRANCH   4   7
ATOM      7  C   UNL     1       3.289   6.009  18.081  0.00  0.00    +0.000 A 
ATOM      8  C   UNL     1       2.397   4.994  17.770  0.00  0.00    +0.000 A 
ATOM      9  C   UNL     1       3.000   3.745  17.883  0.00  0.00    +0.000 A 
ATOM     10  N   UNL     1       4.102   3.525  17.147  0.00  0.00    +0.000 NA
ATOM     11  C   UNL     1       4.971   4.526  17.134  0.00  0.00    +0.000 A 
ATOM     12  C   UNL     1       6.279   4.168  16.830  0.00  0.00    +0.000 A 
ATOM     13  C   UNL     1       7.300   5.096  16.775  0.00  0.00    +0.000 A 
ATOM     14  C   UNL     1       6.970   6.437  16.950  0.00  0.00    +0.000 A 
ATOM     15  C   UNL     1       5.675   6.805  17.368  0.00  0.00    +0.000 A 
ATOM     16  C   UNL     1       4.644   5.835  17.576  0.00  0.00    +0.000 A 
BRANCH   9  17
ATOM     17  C   UNL     1       3.117   3.145  19.293  0.00  0.00    +0.000 C 
ATOM     18  F   UNL     1       2.212   3.640  20.192  0.00  0.00    +0.000 F 
ATOM     19  F   UNL     1       2.975   1.794  19.310  0.00  0.00    +0.000 F 
ATOM     20  F   UNL     1       4.337   3.399  19.868  0.00  0.00    +0.000 F 
ENDBRANCH   9  17
ENDBRANCH   4   7
BRANCH   3  21
ATOM     21  C   UNL     1       0.666   8.974  21.247  0.00  0.00    +0.000 A 
ATOM     22  C   UNL     1       0.723  10.282  20.756  0.00  0.00    +0.000 A 
ATOM     23  C   UNL     1       0.111  11.358  21.438  0.00  0.00    +0.000 A 
ATOM     24  C   UNL     1      -0.607  11.191  22.618  0.00  0.00    +0.000 A 
ATOM     25  C   UNL     1      -0.723   9.896  23.121  0.00  0.00    +0.000 A 
ATOM     26  C   UNL     1      -0.086   8.809  22.432  0.00  0.00    +0.000 A 
BRANCH  24  27
ATOM     27  O   UNL     1      -1.028  12.359  23.190  0.00  0.00    +0.000 OA
BRANCH  27  28
ATOM     28  C   UNL     1      -2.386  12.751  23.284  0.00  0.00    +0.000 C 
ATOM     29  F   UNL     1      -3.185  11.877  23.916  0.00  0.00    +0.000 F 
ATOM     30  F   UNL     1      -2.471  13.951  23.917  0.00  0.00    +0.000 F 
ATOM     31  F   UNL     1      -2.868  12.936  22.026  0.00  0.00    +0.000 F 
ENDBRANCH  27  28
ENDBRANCH  24  27
ENDBRANCH   3  21
TORSDOF 5
ENDMDL
MODEL 4
REMARK VINA RESULT:      -8.5      0.468      1.415
REMARK  Name = 
REMARK  5 active torsions:
REMARK  status: ('A' for Active; 'I' for Inactive)
REMARK    1  A    between atoms: N_3  and  C_4
REMARK    2  A    between atoms: C_7  and  O_8
REMARK    3  A    between atoms: O_8  and  C_9
REMARK    4  A    between atoms: N_15  and  C_16
REMARK    5  A    between atoms: C_18  and  C_19
REMARK                            x       y       z     vdW  Elec       q    Type
REMARK                         _______ _______ _______ _____ _____    ______ ____
ROOT
ATOM      1  O   UNL     1       1.772   8.519  18.448  0.00  0.00    +0.000 OA
ATOM      2  C   UNL     1       1.991   7.744  19.381  0.00  0.00    +0.000 C 
ATOM      3  N   UNL     1       1.341   7.817  20.641  0.00  0.00    +0.000 N 
ATOM      4  N   UNL     1       2.927   6.674  19.299  0.00  0.00    +0.000 N 
ATOM      5  H   UNL     1       1.136   6.914  21.057  0.00  0.00    +0.000 HD
ATOM      6  H   UNL     1       3.394   6.407  20.154  0.00  0.00    +0.000 HD
ENDROOT
BRANCH   4   7
ATOM      7  C   UNL     1       3.290   5.966  18.084  0.00  0.00    +0.000 A 
ATOM      8  C   UNL     1       2.429   4.936  17.737  0.00  0.00    +0.000 A 
ATOM      9  C   UNL     1       3.062   3.701  17.829  0.00  0.00    +0.000 A 
ATOM     10  N   UNL     1       4.179   3.526  17.104  0.00  0.00    +0.000 NA
ATOM     11  C   UNL     1       5.022   4.549  17.127  0.00  0.00    +0.000 A 
ATOM     12  C   UNL     1       6.343   4.232  16.832  0.00  0.00    +0.000 A 
ATOM     13  C   UNL     1       7.341   5.187  16.814  0.00  0.00    +0.000 A 
ATOM     14  C   UNL     1       6.974   6.515  17.016  0.00  0.00    +0.000 A 
ATOM     15  C   UNL     1       5.663   6.839  17.424  0.00  0.00    +0.000 A 
ATOM     16  C   UNL     1       4.655   5.839  17.594  0.00  0.00    +0.000 A 
BRANCH   9  17
ATOM     17  C   UNL     1       3.175   3.071  19.226  0.00  0.00    +0.000 C 
ATOM     18  F   UNL     1       3.008   1.713  19.247  0.00  0.00    +0.000 F 
ATOM     19  F   UNL     1       4.367   3.320  19.828  0.00  0.00    +0.000 F 
ATOM     20  F   UNL     1       2.217   3.541  20.089  0.00  0.00    +0.000 F 
ENDBRANCH   9  17
ENDBRANCH   4   7
BRANCH   3  21
ATOM     21  C   UNL     1       0.638   8.936  21.221  0.00  0.00    +0.000 A 
ATOM     22  C   UNL     1       0.734  10.246  20.742  0.00  0.00    +0.000 A 
ATOM     23  C   UNL     1       0.149  11.333  21.432  0.00  0.00    +0.000 A 
ATOM     24  C   UNL     1      -0.579  11.176  22.607  0.00  0.00    +0.000 A 
ATOM     25  C   UNL     1      -0.733   9.880  23.097  0.00  0.00    +0.000 A 
ATOM     26  C   UNL     1      -0.124   8.782  22.402  0.00  0.00    +0.000 A 
BRANCH  24  27
ATOM     27  O   UNL     1      -0.969  12.350  23.188  0.00  0.00    +0.000 OA
BRANCH  27  28
ATOM     28  C   UNL     1      -2.305  12.822  23.198  0.00  0.00    +0.000 C 
ATOM     29  F   UNL     1      -2.471  14.040  23.738  0.00  0.00    +0.000 F 
ATOM     30  F   UNL     1      -2.790  12.844  21.928  0.00  0.00    +0.000 F 
ATOM     31  F   UNL     1      -3.069  11.940  23.895  0.00  0.00    +0.000 F 
ENDBRANCH  27  28
ENDBRANCH  24  27
ENDBRANCH   3  21
TORSDOF 5
ENDMDL
MODEL 5
REMARK VINA RESULT:      -8.3      2.608      3.792
REMARK  Name = 
REMARK  5 active torsions:
REMARK  status: ('A' for Active; 'I' for Inactive)
REMARK    1  A    between atoms: N_3  and  C_4
REMARK    2  A    between atoms: C_7  and  O_8
REMARK    3  A    between atoms: O_8  and  C_9
REMARK    4  A    between atoms: N_15  and  C_16
REMARK    5  A    between atoms: C_18  and  C_19
REMARK                            x       y       z     vdW  Elec       q    Type
REMARK                         _______ _______ _______ _____ _____    ______ ____
ROOT
ATOM      1  O   UNL     1       1.794   7.881  20.278  0.00  0.00    +0.000 OA
ATOM      2  C   UNL     1       2.179   7.899  19.106  0.00  0.00    +0.000 C 
ATOM      3  N   UNL     1       1.966   8.987  18.219  0.00  0.00    +0.000 N 
ATOM      4  N   UNL     1       2.892   6.823  18.506  0.00  0.00    +0.000 N 
ATOM      5  H   UNL     1       2.738   9.165  17.584  0.00  0.00    +0.000 HD
ATOM      6  H   UNL     1       2.760   6.681  17.515  0.00  0.00    +0.000 HD
ENDROOT
BRANCH   4   7
ATOM      7  C   UNL     1       3.760   5.894  19.208  0.00  0.00    +0.000 A 
ATOM      8  C   UNL     1       5.034   5.777  18.673  0.00  0.00    +0.000 A 
ATOM      9  C   UNL     1       5.242   4.506  18.149  0.00  0.00    +0.000 A 
ATOM     10  N   UNL     1       5.079   3.463  18.979  0.00  0.00    +0.000 NA
ATOM     11  C   UNL     1       4.011   3.538  19.762  0.00  0.00    +0.000 A 
ATOM     12  C   UNL     1       3.545   2.320  20.240  0.00  0.00    +0.000 A 
ATOM     13  C   UNL     1       2.442   2.229  21.068  0.00  0.00    +0.000 A 
ATOM     14  C   UNL     1       1.849   3.416  21.492  0.00  0.00    +0.000 A 
ATOM     15  C   UNL     1       2.239   4.649  20.930  0.00  0.00    +0.000 A 
ATOM     16  C   UNL     1       3.281   4.740  19.955  0.00  0.00    +0.000 A 
BRANCH   9  17
ATOM     17  C   UNL     1       4.680   4.222  16.747  0.00  0.00    +0.000 C 
ATOM     18  F   UNL     1       3.417   3.698  16.742  0.00  0.00    +0.000 F 
ATOM     19  F   UNL     1       4.640   5.327  15.956  0.00  0.00    +0.000 F 
ATOM     20  F   UNL     1       5.430   3.300  16.061  0.00  0.00    +0.000 F 
ENDBRANCH   9  17
ENDBRANCH   4   7
BRANCH   3  21
ATOM     21  C   UNL     1       1.000  10.054  18.328  0.00  0.00    +0.000 A 
ATOM     22  C   UNL     1       1.298  11.322  18.839  0.00  0.00    +0.000 A 
ATOM     23  C   UNL     1       0.288  12.285  19.067  0.00  0.00    +0.000 A 
ATOM     24  C   UNL     1      -1.053  12.055  18.776  0.00  0.00    +0.000 A 
ATOM     25  C   UNL     1      -1.387  10.818  18.227  0.00  0.00    +0.000 A 
ATOM     26  C   UNL     1      -0.360   9.838  18.012  0.00  0.00    +0.000 A 
BRANCH  24  27
ATOM     27  O   UNL     1      -1.893  13.058  19.169  0.00  0.00    +0.000 OA
BRANCH  27  28
ATOM     28  C   UNL     1      -2.844  12.931  20.211  0.00  0.00    +0.000 C 
ATOM     29  F   UNL     1      -3.205  14.087  20.792  0.00  0.00    +0.000 F 
ATOM     30  F   UNL     1      -3.961  12.319  19.736  0.00  0.00    +0.000 F 
ATOM     31  F   UNL     1      -2.328  12.117  21.169  0.00  0.00    +0.000 F 
ENDBRANCH  27  28
ENDBRANCH  24  27
ENDBRANCH   3  21
TORSDOF 5
ENDMDL
MODEL 6
REMARK VINA RESULT:      -8.2      3.349      9.728
REMARK  Name = 
REMARK  5 active torsions:
REMARK  status: ('A' for Active; 'I' for Inactive)
REMARK    1  A    between atoms: N_3  and  C_4
REMARK    2  A    between atoms: C_7  and  O_8
REMARK    3  A    between atoms: O_8  and  C_9
REMARK    4  A    between atoms: N_15  and  C_16
REMARK    5  A    between atoms: C_18  and  C_19
REMARK                            x       y       z     vdW  Elec       q    Type
REMARK                         _______ _______ _______ _____ _____    ______ ____
ROOT
ATOM      1  O   UNL     1       1.920   9.413  17.452  0.00  0.00    +0.000 OA
ATOM      2  C   UNL     1       1.814   8.792  18.512  0.00  0.00    +0.000 C 
ATOM      3  N   UNL     1       2.586   7.647  18.840  0.00  0.00    +0.000 N 
ATOM      4  N   UNL     1       0.901   9.161  19.540  0.00  0.00    +0.000 N 
ATOM      5  H   UNL     1       2.853   7.590  19.818  0.00  0.00    +0.000 HD
ATOM      6  H   UNL     1       0.528   8.416  20.112  0.00  0.00    +0.000 HD
ENDROOT
BRANCH   4   7
ATOM      7  C   UNL     1       0.435  10.510  19.807  0.00  0.00    +0.000 A 
ATOM      8  C   UNL     1       0.940  11.077  20.967  0.00  0.00    +0.000 A 
ATOM      9  C   UNL     1      -0.068  11.280  21.905  0.00  0.00    +0.000 A 
ATOM     10  N   UNL     1      -1.112  12.037  21.532  0.00  0.00    +0.000 NA
ATOM     11  C   UNL     1      -1.574  11.787  20.315  0.00  0.00    +0.000 A 
ATOM     12  C   UNL     1      -2.894  12.161  20.096  0.00  0.00    +0.000 A 
ATOM     13  C   UNL     1      -3.520  11.969  18.880  0.00  0.00    +0.000 A 
ATOM     14  C   UNL     1      -2.759  11.462  17.830  0.00  0.00    +0.000 A 
ATOM     15  C   UNL     1      -1.456  10.976  18.063  0.00  0.00    +0.000 A 
ATOM     16  C   UNL     1      -0.849  11.031  19.357  0.00  0.00    +0.000 A 
BRANCH   9  17
ATOM     17  C   UNL     1      -0.502  10.067  22.743  0.00  0.00    +0.000 C 
ATOM     18  F   UNL     1       0.477   9.563  23.554  0.00  0.00    +0.000 F 
ATOM     19  F   UNL     1      -1.567  10.329  23.546  0.00  0.00    +0.000 F 
ATOM     20  F   UNL     1      -0.877   9.002  21.964  0.00  0.00    +0.000 F 
ENDBRANCH   9  17
ENDBRANCH   4   7
BRANCH   3  21
ATOM     21  C   UNL     1       3.317   6.776  17.951  0.00  0.00    +0.000 A 
ATOM     22  C   UNL     1       3.133   5.390  17.896  0.00  0.00    +0.000 A 
ATOM     23  C   UNL     1       3.974   4.560  17.120  0.00  0.00    +0.000 A 
ATOM     24  C   UNL     1       5.015   5.058  16.343  0.00  0.00    +0.000 A 
ATOM     25  C   UNL     1       5.208   6.439  16.338  0.00  0.00    +0.000 A 
ATOM     26  C   UNL     1       4.360   7.275  17.140  0.00  0.00    +0.000 A 
BRANCH  24  27
ATOM     27  O   UNL     1       5.787   4.096  15.755  0.00  0.00    +0.000 OA
BRANCH  27  28
ATOM     28  C   UNL     1       6.149   4.099  14.386  0.00  0.00    +0.000 C 
ATOM     29  F   UNL     1       7.250   4.809  14.092  0.00  0.00    +0.000 F 
ATOM     30  F   UNL     1       6.333   2.821  13.961  0.00  0.00    +0.000 F 
ATOM     31  F   UNL     1       5.112   4.606  13.667  0.00  0.00    +0.000 F 
ENDBRANCH  27  28
ENDBRANCH  24  27
ENDBRANCH   3  21
TORSDOF 5
ENDMDL
MODEL 7
REMARK VINA RESULT:      -8.2      0.805      1.042
REMARK  Name = 
REMARK  5 active torsions:
REMARK  status: ('A' for Active; 'I' for Inactive)
REMARK    1  A    between atoms: N_3  and  C_4
REMARK    2  A    between atoms: C_7  and  O_8
REMARK    3  A    between atoms: O_8  and  C_9
REMARK    4  A    between atoms: N_15  and  C_16
REMARK    5  A    between atoms: C_18  and  C_19
REMARK                            x       y       z     vdW  Elec       q    Type
REMARK                         _______ _______ _______ _____ _____    ______ ____
ROOT
ATOM      1  O   UNL     1       1.645   8.557  18.574  0.00  0.00    +0.000 OA
ATOM      2  C   UNL     1       1.983   7.814  19.498  0.00  0.00    +0.000 C 
ATOM      3  N   UNL     1       1.477   7.914  20.821  0.00  0.00    +0.000 N 
ATOM      4  N   UNL     1       2.924   6.757  19.341  0.00  0.00    +0.000 N 
ATOM      5  H   UNL     1       1.339   7.021  21.284  0.00  0.00    +0.000 HD
ATOM      6  H   UNL     1       3.490   6.523  20.145  0.00  0.00    +0.000 HD
ENDROOT
BRANCH   4   7
ATOM      7  C   UNL     1       3.161   6.018  18.113  0.00  0.00    +0.000 A 
ATOM      8  C   UNL     1       2.211   5.048  17.831  0.00  0.00    +0.000 A 
ATOM      9  C   UNL     1       2.762   3.773  17.896  0.00  0.00    +0.000 A 
ATOM     10  N   UNL     1       3.817   3.516  17.106  0.00  0.00    +0.000 NA
ATOM     11  C   UNL     1       4.728   4.479  17.066  0.00  0.00    +0.000 A 
ATOM     12  C   UNL     1       6.003   4.069  16.693  0.00  0.00    +0.000 A 
ATOM     13  C   UNL     1       7.061   4.952  16.604  0.00  0.00    +0.000 A 
ATOM     14  C   UNL     1       6.800   6.303  16.814  0.00  0.00    +0.000 A 
ATOM     15  C   UNL     1       5.543   6.720  17.299  0.00  0.00    +0.000 A 
ATOM     16  C   UNL     1       4.481   5.793  17.542  0.00  0.00    +0.000 A 
BRANCH   9  17
ATOM     17  C   UNL     1       2.918   3.144  19.290  0.00  0.00    +0.000 C 
ATOM     18  F   UNL     1       4.114   3.410  19.897  0.00  0.00    +0.000 F 
ATOM     19  F   UNL     1       1.951   3.535  20.161  0.00  0.00    +0.000 F 
ATOM     20  F   UNL     1       2.855   1.774  19.254  0.00  0.00    +0.000 F 
ENDBRANCH   9  17
ENDBRANCH   4   7
BRANCH   3  21
ATOM     21  C   UNL     1       0.823   9.040  21.446  0.00  0.00    +0.000 A 
ATOM     22  C   UNL     1       0.265   9.000  22.727  0.00  0.00    +0.000 A 
ATOM     23  C   UNL     1      -0.497  10.076  23.238  0.00  0.00    +0.000 A 
ATOM     24  C   UNL     1      -0.718  11.249  22.523  0.00  0.00    +0.000 A 
ATOM     25  C   UNL     1      -0.144  11.346  21.256  0.00  0.00    +0.000 A 
ATOM     26  C   UNL     1       0.615  10.244  20.736  0.00  0.00    +0.000 A 
BRANCH  24  27
ATOM     27  O   UNL     1      -1.570  12.126  23.133  0.00  0.00    +0.000 OA
BRANCH  27  28
ATOM     28  C   UNL     1      -1.451  13.535  23.046  0.00  0.00    +0.000 C 
ATOM     29  F   UNL     1      -0.193  13.992  22.954  0.00  0.00    +0.000 F 
ATOM     30  F   UNL     1      -2.154  13.986  21.974  0.00  0.00    +0.000 F 
ATOM     31  F   UNL     1      -2.024  14.085  24.150  0.00  0.00    +0.000 F 
ENDBRANCH  27  28
ENDBRANCH  24  27
ENDBRANCH   3  21
TORSDOF 5
ENDMDL
MODEL 8
REMARK VINA RESULT:      -8.2      0.950      1.378
REMARK  Name = 
REMARK  5 active torsions:
REMARK  status: ('A' for Active; 'I' for Inactive)
REMARK    1  A    between atoms: N_3  and  C_4
REMARK    2  A    between atoms: C_7  and  O_8
REMARK    3  A    between atoms: O_8  and  C_9
REMARK    4  A    between atoms: N_15  and  C_16
REMARK    5  A    between atoms: C_18  and  C_19
REMARK                            x       y       z     vdW  Elec       q    Type
REMARK                         _______ _______ _______ _____ _____    ______ ____
ROOT
ATOM      1  O   UNL     1       2.066   8.463  18.568  0.00  0.00    +0.000 OA
ATOM      2  C   UNL     1       2.076   7.579  19.427  0.00  0.00    +0.000 C 
ATOM      3  N   UNL     1       1.300   7.619  20.615  0.00  0.00    +0.000 N 
ATOM      4  N   UNL     1       2.869   6.401  19.320  0.00  0.00    +0.000 N 
ATOM      5  H   UNL     1       0.935   6.718  20.906  0.00  0.00    +0.000 HD
ATOM      6  H   UNL     1       3.197   5.989  20.182  0.00  0.00    +0.000 HD
ENDROOT
BRANCH   4   7
ATOM      7  C   UNL     1       3.273   5.770  18.076  0.00  0.00    +0.000 A 
ATOM      8  C   UNL     1       2.473   4.709  17.680  0.00  0.00    +0.000 A 
ATOM      9  C   UNL     1       3.176   3.509  17.719  0.00  0.00    +0.000 A 
ATOM     10  N   UNL     1       4.302   3.431  16.992  0.00  0.00    +0.000 NA
ATOM     11  C   UNL     1       5.085   4.499  17.064  0.00  0.00    +0.000 A 
ATOM     12  C   UNL     1       6.422   4.270  16.761  0.00  0.00    +0.000 A 
ATOM     13  C   UNL     1       7.364   5.280  16.789  0.00  0.00    +0.000 A 
ATOM     14  C   UNL     1       6.921   6.575  17.048  0.00  0.00    +0.000 A 
ATOM     15  C   UNL     1       5.594   6.805  17.465  0.00  0.00    +0.000 A 
ATOM     16  C   UNL     1       4.644   5.743  17.587  0.00  0.00    +0.000 A 
BRANCH   9  17
ATOM     17  C   UNL     1       3.322   2.824  19.087  0.00  0.00    +0.000 C 
ATOM     18  F   UNL     1       2.366   3.177  19.999  0.00  0.00    +0.000 F 
ATOM     19  F   UNL     1       3.296   1.468  19.009  0.00  0.00    +0.000 F 
ATOM     20  F   UNL     1       4.508   3.139  19.703  0.00  0.00    +0.000 F 
ENDBRANCH   9  17
ENDBRANCH   4   7
BRANCH   3  21
ATOM     21  C   UNL     1       0.686   8.765  21.244  0.00  0.00    +0.000 A 
ATOM     22  C   UNL     1       0.568   8.920  22.628  0.00  0.00    +0.000 A 
ATOM     23  C   UNL     1      -0.173   9.983  23.195  0.00  0.00    +0.000 A 
ATOM     24  C   UNL     1      -0.807  10.954  22.426  0.00  0.00    +0.000 A 
ATOM     25  C   UNL     1      -0.680  10.859  21.041  0.00  0.00    +0.000 A 
ATOM     26  C   UNL     1       0.061   9.769  20.471  0.00  0.00    +0.000 A 
BRANCH  24  27
ATOM     27  O   UNL     1      -1.567  11.832  23.146  0.00  0.00    +0.000 OA
BRANCH  27  28
ATOM     28  C   UNL     1      -1.478  13.241  23.023  0.00  0.00    +0.000 C 
ATOM     29  F   UNL     1      -1.923  13.931  24.085  0.00  0.00    +0.000 F 
ATOM     30  F   UNL     1      -0.188  13.597  22.787  0.00  0.00    +0.000 F 
ATOM     31  F   UNL     1      -2.197  13.625  21.935  0.00  0.00    +0.000 F 
ENDBRANCH  27  28
ENDBRANCH  24  27
ENDBRANCH   3  21
TORSDOF 5
ENDMDL
MODEL 9
REMARK VINA RESULT:      -8.1      2.722      3.848
REMARK  Name = 
REMARK  5 active torsions:
REMARK  status: ('A' for Active; 'I' for Inactive)
REMARK    1  A    between atoms: N_3  and  C_4
REMARK    2  A    between atoms: C_7  and  O_8
REMARK    3  A    between atoms: O_8  and  C_9
REMARK    4  A    between atoms: N_15  and  C_16
REMARK    5  A    between atoms: C_18  and  C_19
REMARK                            x       y       z     vdW  Elec       q    Type
REMARK                         _______ _______ _______ _____ _____    ______ ____
ROOT
ATOM      1  O   UNL     1       1.754   7.972  20.224  0.00  0.00    +0.000 OA
ATOM      2  C   UNL     1       2.220   7.991  19.082  0.00  0.00    +0.000 C 
ATOM      3  N   UNL     1       2.183   9.125  18.230  0.00  0.00    +0.000 N 
ATOM      4  N   UNL     1       2.862   6.868  18.487  0.00  0.00    +0.000 N 
ATOM      5  H   UNL     1       3.012   9.244  17.656  0.00  0.00    +0.000 HD
ATOM      6  H   UNL     1       2.787   6.775  17.483  0.00  0.00    +0.000 HD
ENDROOT
BRANCH   4   7
ATOM      7  C   UNL     1       3.580   5.830  19.206  0.00  0.00    +0.000 A 
ATOM      8  C   UNL     1       4.894   5.648  18.799  0.00  0.00    +0.000 A 
ATOM      9  C   UNL     1       5.067   4.401  18.208  0.00  0.00    +0.000 A 
ATOM     10  N   UNL     1       4.740   3.323  18.938  0.00  0.00    +0.000 NA
ATOM     11  C   UNL     1       3.601   3.430  19.608  0.00  0.00    +0.000 A 
ATOM     12  C   UNL     1       2.999   2.224  19.945  0.00  0.00    +0.000 A 
ATOM     13  C   UNL     1       1.809   2.166  20.644  0.00  0.00    +0.000 A 
ATOM     14  C   UNL     1       1.259   3.366  21.089  0.00  0.00    +0.000 A 
ATOM     15  C   UNL     1       1.794   4.599  20.664  0.00  0.00    +0.000 A 
ATOM     16  C   UNL     1       2.941   4.671  19.812  0.00  0.00    +0.000 A 
BRANCH   9  17
ATOM     17  C   UNL     1       4.643   4.255  16.738  0.00  0.00    +0.000 C 
ATOM     18  F   UNL     1       5.482   3.484  15.983  0.00  0.00    +0.000 F 
ATOM     19  F   UNL     1       3.400   3.725  16.592  0.00  0.00    +0.000 F 
ATOM     20  F   UNL     1       4.612   5.461  16.082  0.00  0.00    +0.000 F 
ENDBRANCH   9  17
ENDBRANCH   4   7
BRANCH   3  21
ATOM     21  C   UNL     1       1.324  10.282  18.318  0.00  0.00    +0.000 A 
ATOM     22  C   UNL     1       1.794  11.584  18.522  0.00  0.00    +0.000 A 
ATOM     23  C   UNL     1       0.911  12.663  18.753  0.00  0.00    +0.000 A 
ATOM     24  C   UNL     1      -0.472  12.516  18.765  0.00  0.00    +0.000 A 
ATOM     25  C   UNL     1      -0.984  11.242  18.526  0.00  0.00    +0.000 A 
ATOM     26  C   UNL     1      -0.082  10.146  18.308  0.00  0.00    +0.000 A 
BRANCH  24  27
ATOM     27  O   UNL     1      -1.154  13.647  19.117  0.00  0.00    +0.000 OA
BRANCH  27  28
ATOM     28  C   UNL     1      -1.847  13.805  20.342  0.00  0.00    +0.000 C 
ATOM     29  F   UNL     1      -3.123  13.387  20.329  0.00  0.00    +0.000 F 
ATOM     30  F   UNL     1      -1.187  13.142  21.328  0.00  0.00    +0.000 F 
ATOM     31  F   UNL     1      -1.834  15.122  20.678  0.00  0.00    +0.000 F 
ENDBRANCH  27  28
ENDBRANCH  24  27
ENDBRANCH   3  21
TORSDOF 5
ENDMDL
