MODEL 1
REMARK VINA RESULT:      -7.8      0.000      0.000
REMARK  Name = 
REMARK  15 active torsions:
REMARK  status: ('A' for Active; 'I' for Inactive)
REMARK    1  A    between atoms: C_1  and  C_2
REMARK    2  A    between atoms: C_2  and  C_3
REMARK    3  A    between atoms: C_5  and  C_6
REMARK    4  A    between atoms: C_7  and  C_8
REMARK    5  A    between atoms: C_15  and  C_16
REMARK    6  A    between atoms: C_16  and  C_17
REMARK    7  A    between atoms: C_18  and  O_19
REMARK    8  A    between atoms: O_19  and  C_20
REMARK    9  A    between atoms: C_20  and  C_21
REMARK   10  A    between atoms: C_21  and  O_22
REMARK   11  A    between atoms: C_21  and  C_23
REMARK   12  A    between atoms: C_23  and  N_24
REMARK   13  A    between atoms: N_24  and  C_25
REMARK   14  A    between atoms: C_25  and  C_26
REMARK   15  A    between atoms: C_25  and  C_27
REMARK                            x       y       z     vdW  Elec       q    Type
REMARK                         _______ _______ _______ _____ _____    ______ ____
ROOT
ATOM      1  C   UNL     1       6.454   5.375  16.351  0.00  0.00    +0.000 A 
ATOM      2  C   UNL     1       7.351   6.441  16.596  0.00  0.00    +0.000 A 
ATOM      3  C   UNL     1       7.035   7.545  17.383  0.00  0.00    +0.000 A 
ATOM      4  C   UNL     1       5.737   7.659  17.859  0.00  0.00    +0.000 A 
ATOM      5  C   UNL     1       4.766   6.686  17.543  0.00  0.00    +0.000 A 
ATOM      6  C   UNL     1       5.118   5.523  16.798  0.00  0.00    +0.000 A 
ENDROOT
BRANCH   1   8
ATOM      7  C   UNL     1       6.461   3.883  14.261  0.00  0.00    +0.000 C 
ATOM      8  C   UNL     1       7.066   4.183  15.635  0.00  0.00    +0.000 C 
ENDBRANCH   1   8
BRANCH   3   9
ATOM      9  C   UNL     1       8.136   8.431  17.777  0.00  0.00    +0.000 C 
ATOM     10  C   UNL     1       8.011   9.685  18.230  0.00  0.00    +0.000 C 
BRANCH  10  11
ATOM     11  C   UNL     1       9.161  10.503  18.645  0.00  0.00    +0.000 A 
ATOM     12  C   UNL     1       9.352  10.755  20.009  0.00  0.00    +0.000 A 
ATOM     13  C   UNL     1      10.442  11.511  20.443  0.00  0.00    +0.000 A 
ATOM     14  C   UNL     1      11.359  12.014  19.521  0.00  0.00    +0.000 A 
ATOM     15  C   UNL     1      11.191  11.759  18.163  0.00  0.00    +0.000 A 
ATOM     16  C   UNL     1      10.103  11.000  17.731  0.00  0.00    +0.000 A 
ENDBRANCH  10  11
ENDBRANCH   3   9
BRANCH   5  17
ATOM     17  C   UNL     1       3.367   6.917  18.085  0.00  0.00    +0.000 C 
ATOM     18  C   UNL     1       2.833   8.299  17.738  0.00  0.00    +0.000 C 
ENDBRANCH   5  17
BRANCH   6  19
ATOM     19  O   UNL     1       4.054   4.668  16.640  0.00  0.00    +0.000 OA
BRANCH  19  20
ATOM     20  C   UNL     1       3.946   3.477  17.411  0.00  0.00    +0.000 C 
BRANCH  20  21
ATOM     21  C   UNL     1       2.497   2.963  17.421  0.00  0.00    +0.000 C 
BRANCH  21  22
ATOM     22  O   UNL     1       2.480   1.605  17.883  0.00  0.00    +0.000 OA
ATOM     23  H   UNL     1       2.375   1.654  18.853  0.00  0.00    +0.000 HD
ENDBRANCH  21  22
BRANCH  21  24
ATOM     24  C   UNL     1       1.559   3.805  18.300  0.00  0.00    +0.000 C 
BRANCH  24  25
ATOM     25  N   UNL     1       0.817   2.977  19.254  0.00  0.00    +0.000 NA
ATOM     26  H   UNL     1       1.177   2.023  19.220  0.00  0.00    +0.000 HD
BRANCH  25  27
ATOM     27  C   UNL     1       0.893   3.464  20.637  0.00  0.00    +0.000 C 
ATOM     28  C   UNL     1       1.703   2.540  21.551  0.00  0.00    +0.000 C 
ATOM     29  C   UNL     1       1.545   4.850  20.607  0.00  0.00    +0.000 C 
ENDBRANCH  25  27
ENDBRANCH  24  25
ENDBRANCH  21  24
ENDBRANCH  20  21
ENDBRANCH  19  20
ENDBRANCH   6  19
TORSDOF 11
ENDMDL
MODEL 2
REMARK VINA RESULT:      -7.4      1.365      2.745
REMARK  Name = 
REMARK  15 active torsions:
REMARK  status: ('A' for Active; 'I' for Inactive)
REMARK    1  A    between atoms: C_1  and  C_2
REMARK    2  A    between atoms: C_2  and  C_3
REMARK    3  A    between atoms: C_5  and  C_6
REMARK    4  A    between atoms: C_7  and  C_8
REMARK    5  A    between atoms: C_15  and  C_16
REMARK    6  A    between atoms: C_16  and  C_17
REMARK    7  A    between atoms: C_18  and  O_19
REMARK    8  A    between atoms: O_19  and  C_20
REMARK    9  A    between atoms: C_20  and  C_21
REMARK   10  A    between atoms: C_21  and  O_22
REMARK   11  A    between atoms: C_21  and  C_23
REMARK   12  A    between atoms: C_23  and  N_24
REMARK   13  A    between atoms: N_24  and  C_25
REMARK   14  A    between atoms: C_25  and  C_26
REMARK   15  A    between atoms: C_25  and  C_27
REMARK                            x       y       z     vdW  Elec       q    Type
REMARK                         _______ _______ _______ _____ _____    ______ ____
ROOT
ATOM      1  C   UNL     1       5.454   5.024  18.595  0.00  0.00    +0.000 A 
ATOM      2  C   UNL     1       6.430   6.012  18.865  0.00  0.00    +0.000 A 
ATOM      3  C   UNL     1       7.358   6.452  17.923  0.00  0.00    +0.000 A 
ATOM      4  C   UNL     1       7.396   5.811  16.695  0.00  0.00    +0.000 A 
ATOM      5  C   UNL     1       6.526   4.736  16.414  0.00  0.00    +0.000 A 
ATOM      6  C   UNL     1       5.533   4.341  17.357  0.00  0.00    +0.000 A 
ENDROOT
BRANCH   1   8
ATOM      7  C   UNL     1       3.283   5.862  19.680  0.00  0.00    +0.000 C 
ATOM      8  C   UNL     1       4.421   4.838  19.693  0.00  0.00    +0.000 C 
ENDBRANCH   1   8
BRANCH   3   9
ATOM      9  C   UNL     1       8.123   7.660  18.245  0.00  0.00    +0.000 C 
ATOM     10  C   UNL     1       7.832   8.905  17.842  0.00  0.00    +0.000 C 
BRANCH  10  11
ATOM     11  C   UNL     1       8.626  10.078  18.238  0.00  0.00    +0.000 A 
ATOM     12  C   UNL     1       8.489  11.263  17.503  0.00  0.00    +0.000 A 
ATOM     13  C   UNL     1       9.212  12.403  17.859  0.00  0.00    +0.000 A 
ATOM     14  C   UNL     1      10.070  12.375  18.957  0.00  0.00    +0.000 A 
ATOM     15  C   UNL     1      10.205  11.210  19.705  0.00  0.00    +0.000 A 
ATOM     16  C   UNL     1       9.479  10.072  19.352  0.00  0.00    +0.000 A 
ENDBRANCH  10  11
ENDBRANCH   3   9
BRANCH   5  17
ATOM     17  C   UNL     1       6.669   4.080  15.053  0.00  0.00    +0.000 C 
ATOM     18  C   UNL     1       5.704   4.659  14.028  0.00  0.00    +0.000 C 
ENDBRANCH   5  17
BRANCH   6  19
ATOM     19  O   UNL     1       4.749   3.317  16.884  0.00  0.00    +0.000 OA
BRANCH  19  20
ATOM     20  C   UNL     1       3.330   3.431  16.850  0.00  0.00    +0.000 C 
BRANCH  20  21
ATOM     21  C   UNL     1       2.667   2.152  17.385  0.00  0.00    +0.000 C 
BRANCH  21  22
ATOM     22  O   UNL     1       3.669   1.310  17.973  0.00  0.00    +0.000 OA
ATOM     23  H   UNL     1       3.930   1.748  18.806  0.00  0.00    +0.000 HD
ENDBRANCH  21  22
BRANCH  21  24
ATOM     24  C   UNL     1       1.567   2.424  18.423  0.00  0.00    +0.000 C 
BRANCH  24  25
ATOM     25  N   UNL     1       1.945   1.947  19.755  0.00  0.00    +0.000 NA
ATOM     26  H   UNL     1       2.954   2.036  19.869  0.00  0.00    +0.000 HD
BRANCH  25  27
ATOM     27  C   UNL     1       1.277   2.666  20.848  0.00  0.00    +0.000 C 
ATOM     28  C   UNL     1       2.237   3.069  21.970  0.00  0.00    +0.000 C 
ATOM     29  C   UNL     1       0.634   3.922  20.252  0.00  0.00    +0.000 C 
ENDBRANCH  25  27
ENDBRANCH  24  25
ENDBRANCH  21  24
ENDBRANCH  20  21
ENDBRANCH  19  20
ENDBRANCH   6  19
TORSDOF 11
ENDMDL
MODEL 3
REMARK VINA RESULT:      -7.4      0.932      2.617
REMARK  Name = 
REMARK  15 active torsions:
REMARK  status: ('A' for Active; 'I' for Inactive)
REMARK    1  A    between atoms: C_1  and  C_2
REMARK    2  A    between atoms: C_2  and  C_3
REMARK    3  A    between atoms: C_5  and  C_6
REMARK    4  A    between atoms: C_7  and  C_8
REMARK    5  A    between atoms: C_15  and  C_16
REMARK    6  A    between atoms: C_16  and  C_17
REMARK    7  A    between atoms: C_18  and  O_19
REMARK    8  A    between atoms: O_19  and  C_20
REMARK    9  A    between atoms: C_20  and  C_21
REMARK   10  A    between atoms: C_21  and  O_22
REMARK   11  A    between atoms: C_21  and  C_23
REMARK   12  A    between atoms: C_23  and  N_24
REMARK   13  A    between atoms: N_24  and  C_25
REMARK   14  A    between atoms: C_25  and  C_26
REMARK   15  A    between atoms: C_25  and  C_27
REMARK                            x       y       z     vdW  Elec       q    Type
REMARK                         _______ _______ _______ _____ _____    ______ ____
ROOT
ATOM      1  C   UNL     1       4.764   6.026  17.973  0.00  0.00    +0.000 A 
ATOM      2  C   UNL     1       5.901   6.777  18.351  0.00  0.00    +0.000 A 
ATOM      3  C   UNL     1       7.104   6.755  17.649  0.00  0.00    +0.000 A 
ATOM      4  C   UNL     1       7.227   5.869  16.590  0.00  0.00    +0.000 A 
ATOM      5  C   UNL     1       6.165   5.008  16.244  0.00  0.00    +0.000 A 
ATOM      6  C   UNL     1       4.914   5.088  16.922  0.00  0.00    +0.000 A 
ENDROOT
BRANCH   1   8
ATOM      7  C   UNL     1       2.573   7.361  18.081  0.00  0.00    +0.000 C 
ATOM      8  C   UNL     1       3.503   6.348  18.756  0.00  0.00    +0.000 C 
ENDBRANCH   1   8
BRANCH   3   9
ATOM      9  C   UNL     1       8.100   7.778  17.986  0.00  0.00    +0.000 C 
ATOM     10  C   UNL     1       7.887   9.101  18.018  0.00  0.00    +0.000 C 
BRANCH  10  11
ATOM     11  C   UNL     1       8.926  10.067  18.404  0.00  0.00    +0.000 A 
ATOM     12  C   UNL     1       9.173  10.284  19.766  0.00  0.00    +0.000 A 
ATOM     13  C   UNL     1      10.163  11.179  20.172  0.00  0.00    +0.000 A 
ATOM     14  C   UNL     1      10.924  11.861  19.224  0.00  0.00    +0.000 A 
ATOM     15  C   UNL     1      10.700  11.646  17.867  0.00  0.00    +0.000 A 
ATOM     16  C   UNL     1       9.713  10.747  17.462  0.00  0.00    +0.000 A 
ENDBRANCH  10  11
ENDBRANCH   3   9
BRANCH   5  17
ATOM     17  C   UNL     1       6.409   4.052  15.090  0.00  0.00    +0.000 C 
ATOM     18  C   UNL     1       7.039   4.744  13.889  0.00  0.00    +0.000 C 
ENDBRANCH   5  17
BRANCH   6  19
ATOM     19  O   UNL     1       3.990   4.211  16.409  0.00  0.00    +0.000 OA
BRANCH  19  20
ATOM     20  C   UNL     1       2.974   3.646  17.231  0.00  0.00    +0.000 C 
BRANCH  20  21
ATOM     21  C   UNL     1       3.462   2.345  17.886  0.00  0.00    +0.000 C 
BRANCH  21  22
ATOM     22  O   UNL     1       4.694   2.597  18.576  0.00  0.00    +0.000 OA
ATOM     23  H   UNL     1       5.156   3.283  18.057  0.00  0.00    +0.000 HD
ENDBRANCH  21  22
BRANCH  21  24
ATOM     24  C   UNL     1       2.449   1.741  18.870  0.00  0.00    +0.000 C 
BRANCH  24  25
ATOM     25  N   UNL     1       1.324   2.646  19.118  0.00  0.00    +0.000 NA
ATOM     26  H   UNL     1       0.460   2.197  18.815  0.00  0.00    +0.000 HD
BRANCH  25  27
ATOM     27  C   UNL     1       1.187   3.040  20.526  0.00  0.00    +0.000 C 
ATOM     28  C   UNL     1       2.398   2.648  21.376  0.00  0.00    +0.000 C 
ATOM     29  C   UNL     1       1.006   4.560  20.568  0.00  0.00    +0.000 C 
ENDBRANCH  25  27
ENDBRANCH  24  25
ENDBRANCH  21  24
ENDBRANCH  20  21
ENDBRANCH  19  20
ENDBRANCH   6  19
TORSDOF 11
ENDMDL
MODEL 4
REMARK VINA RESULT:      -7.3      0.815      1.285
REMARK  Name = 
REMARK  15 active torsions:
REMARK  status: ('A' for Active; 'I' for Inactive)
REMARK    1  A    between atoms: C_1  and  C_2
REMARK    2  A    between atoms: C_2  and  C_3
REMARK    3  A    between atoms: C_5  and  C_6
REMARK    4  A    between atoms: C_7  and  C_8
REMARK    5  A    between atoms: C_15  and  C_16
REMARK    6  A    between atoms: C_16  and  C_17
REMARK    7  A    between atoms: C_18  and  O_19
REMARK    8  A    between atoms: O_19  and  C_20
REMARK    9  A    between atoms: C_20  and  C_21
REMARK   10  A    between atoms: C_21  and  O_22
REMARK   11  A    between atoms: C_21  and  C_23
REMARK   12  A    between atoms: C_23  and  N_24
REMARK   13  A    between atoms: N_24  and  C_25
REMARK   14  A    between atoms: C_25  and  C_26
REMARK   15  A    between atoms: C_25  and  C_27
REMARK                            x       y       z     vdW  Elec       q    Type
REMARK                         _______ _______ _______ _____ _____    ______ ____
ROOT
ATOM      1  C   UNL     1       6.337   5.276  16.290  0.00  0.00    +0.000 A 
ATOM      2  C   UNL     1       7.249   6.317  16.584  0.00  0.00    +0.000 A 
ATOM      3  C   UNL     1       6.946   7.390  17.419  0.00  0.00    +0.000 A 
ATOM      4  C   UNL     1       5.649   7.500  17.897  0.00  0.00    +0.000 A 
ATOM      5  C   UNL     1       4.665   6.555  17.537  0.00  0.00    +0.000 A 
ATOM      6  C   UNL     1       5.003   5.422  16.741  0.00  0.00    +0.000 A 
ENDROOT
BRANCH   1   8
ATOM      7  C   UNL     1       6.342   3.892  14.127  0.00  0.00    +0.000 C 
ATOM      8  C   UNL     1       6.935   4.109  15.522  0.00  0.00    +0.000 C 
ENDBRANCH   1   8
BRANCH   3   9
ATOM      9  C   UNL     1       8.058   8.242  17.852  0.00  0.00    +0.000 C 
ATOM     10  C   UNL     1       8.000   9.565  18.058  0.00  0.00    +0.000 C 
BRANCH  10  11
ATOM     11  C   UNL     1       9.150  10.350  18.533  0.00  0.00    +0.000 A 
ATOM     12  C   UNL     1       9.998  10.942  17.589  0.00  0.00    +0.000 A 
ATOM     13  C   UNL     1      11.089  11.709  18.000  0.00  0.00    +0.000 A 
ATOM     14  C   UNL     1      11.339  11.902  19.358  0.00  0.00    +0.000 A 
ATOM     15  C   UNL     1      10.497  11.332  20.308  0.00  0.00    +0.000 A 
ATOM     16  C   UNL     1       9.404  10.569  19.896  0.00  0.00    +0.000 A 
ENDBRANCH  10  11
ENDBRANCH   3   9
BRANCH   5  17
ATOM     17  C   UNL     1       3.269   6.781  18.087  0.00  0.00    +0.000 C 
ATOM     18  C   UNL     1       2.732   8.166  17.753  0.00  0.00    +0.000 C 
ENDBRANCH   5  17
BRANCH   6  19
ATOM     19  O   UNL     1       3.928   4.590  16.543  0.00  0.00    +0.000 OA
BRANCH  19  20
ATOM     20  C   UNL     1       3.196   4.059  17.643  0.00  0.00    +0.000 C 
BRANCH  20  21
ATOM     21  C   UNL     1       3.847   2.766  18.159  0.00  0.00    +0.000 C 
BRANCH  21  22
ATOM     22  O   UNL     1       5.076   3.089  18.824  0.00  0.00    +0.000 OA
ATOM     23  H   UNL     1       4.954   2.821  19.755  0.00  0.00    +0.000 HD
ENDBRANCH  21  22
BRANCH  21  24
ATOM     24  C   UNL     1       2.948   1.974  19.121  0.00  0.00    +0.000 C 
BRANCH  24  25
ATOM     25  N   UNL     1       1.582   2.502  19.150  0.00  0.00    +0.000 NA
ATOM     26  H   UNL     1       0.934   1.773  18.853  0.00  0.00    +0.000 HD
BRANCH  25  27
ATOM     27  C   UNL     1       1.171   2.994  20.472  0.00  0.00    +0.000 C 
ATOM     28  C   UNL     1       2.097   2.524  21.597  0.00  0.00    +0.000 C 
ATOM     29  C   UNL     1       1.170   4.524  20.418  0.00  0.00    +0.000 C 
ENDBRANCH  25  27
ENDBRANCH  24  25
ENDBRANCH  21  24
ENDBRANCH  20  21
ENDBRANCH  19  20
ENDBRANCH   6  19
TORSDOF 11
ENDMDL
MODEL 5
REMARK VINA RESULT:      -7.3      0.755      1.213
REMARK  Name = 
REMARK  15 active torsions:
REMARK  status: ('A' for Active; 'I' for Inactive)
REMARK    1  A    between atoms: C_1  and  C_2
REMARK    2  A    between atoms: C_2  and  C_3
REMARK    3  A    between atoms: C_5  and  C_6
REMARK    4  A    between atoms: C_7  and  C_8
REMARK    5  A    between atoms: C_15  and  C_16
REMARK    6  A    between atoms: C_16  and  C_17
REMARK    7  A    between atoms: C_18  and  O_19
REMARK    8  A    between atoms: O_19  and  C_20
REMARK    9  A    between atoms: C_20  and  C_21
REMARK   10  A    between atoms: C_21  and  O_22
REMARK   11  A    between atoms: C_21  and  C_23
REMARK   12  A    between atoms: C_23  and  N_24
REMARK   13  A    between atoms: N_24  and  C_25
REMARK   14  A    between atoms: C_25  and  C_26
REMARK   15  A    between atoms: C_25  and  C_27
REMARK                            x       y       z     vdW  Elec       q    Type
REMARK                         _______ _______ _______ _____ _____    ______ ____
ROOT
ATOM      1  C   UNL     1       6.196   5.262  16.427  0.00  0.00    +0.000 A 
ATOM      2  C   UNL     1       7.136   6.279  16.715  0.00  0.00    +0.000 A 
ATOM      3  C   UNL     1       6.842   7.401  17.487  0.00  0.00    +0.000 A 
ATOM      4  C   UNL     1       5.532   7.582  17.903  0.00  0.00    +0.000 A 
ATOM      5  C   UNL     1       4.527   6.661  17.542  0.00  0.00    +0.000 A 
ATOM      6  C   UNL     1       4.851   5.480  16.813  0.00  0.00    +0.000 A 
ENDROOT
BRANCH   1   8
ATOM      7  C   UNL     1       6.299   3.827  14.301  0.00  0.00    +0.000 C 
ATOM      8  C   UNL     1       6.777   4.038  15.740  0.00  0.00    +0.000 C 
ENDBRANCH   1   8
BRANCH   3   9
ATOM      9  C   UNL     1       7.969   8.227  17.931  0.00  0.00    +0.000 C 
ATOM     10  C   UNL     1       7.989   9.567  17.980  0.00  0.00    +0.000 C 
BRANCH  10  11
ATOM     11  C   UNL     1       9.144  10.330  18.475  0.00  0.00    +0.000 A 
ATOM     12  C   UNL     1      10.009  10.922  17.547  0.00  0.00    +0.000 A 
ATOM     13  C   UNL     1      11.106  11.670  17.978  0.00  0.00    +0.000 A 
ATOM     14  C   UNL     1      11.346  11.842  19.341  0.00  0.00    +0.000 A 
ATOM     15  C   UNL     1      10.487  11.272  20.275  0.00  0.00    +0.000 A 
ATOM     16  C   UNL     1       9.388  10.529  19.843  0.00  0.00    +0.000 A 
ENDBRANCH  10  11
ENDBRANCH   3   9
BRANCH   5  17
ATOM     17  C   UNL     1       3.119   6.966  18.020  0.00  0.00    +0.000 C 
ATOM     18  C   UNL     1       2.770   8.442  17.887  0.00  0.00    +0.000 C 
ENDBRANCH   5  17
BRANCH   6  19
ATOM     19  O   UNL     1       3.752   4.682  16.605  0.00  0.00    +0.000 OA
BRANCH  19  20
ATOM     20  C   UNL     1       3.433   3.621  17.499  0.00  0.00    +0.000 C 
BRANCH  20  21
ATOM     21  C   UNL     1       2.037   3.822  18.109  0.00  0.00    +0.000 C 
BRANCH  21  22
ATOM     22  O   UNL     1       1.095   4.081  17.058  0.00  0.00    +0.000 OA
ATOM     23  H   UNL     1       1.265   3.404  16.375  0.00  0.00    +0.000 HD
ENDBRANCH  21  22
BRANCH  21  24
ATOM     24  C   UNL     1       1.553   2.619  18.932  0.00  0.00    +0.000 C 
BRANCH  24  25
ATOM     25  N   UNL     1       0.733   3.033  20.073  0.00  0.00    +0.000 NA
ATOM     26  H   UNL     1       0.100   2.275  20.324  0.00  0.00    +0.000 HD
BRANCH  25  27
ATOM     27  C   UNL     1       1.518   3.408  21.256  0.00  0.00    +0.000 C 
ATOM     28  C   UNL     1       2.757   2.530  21.451  0.00  0.00    +0.000 C 
ATOM     29  C   UNL     1       1.950   4.867  21.084  0.00  0.00    +0.000 C 
ENDBRANCH  25  27
ENDBRANCH  24  25
ENDBRANCH  21  24
ENDBRANCH  20  21
ENDBRANCH  19  20
ENDBRANCH   6  19
TORSDOF 11
ENDMDL
MODEL 6
REMARK VINA RESULT:      -7.2      3.482      7.467
REMARK  Name = 
REMARK  15 active torsions:
REMARK  status: ('A' for Active; 'I' for Inactive)
REMARK    1  A    between atoms: C_1  and  C_2
REMARK    2  A    between atoms: C_2  and  C_3
REMARK    3  A    between atoms: C_5  and  C_6
REMARK    4  A    between atoms: C_7  and  C_8
REMARK    5  A    between atoms: C_15  and  C_16
REMARK    6  A    between atoms: C_16  and  C_17
REMARK    7  A    between atoms: C_18  and  O_19
REMARK    8  A    between atoms: O_19  and  C_20
REMARK    9  A    between atoms: C_20  and  C_21
REMARK   10  A    between atoms: C_21  and  O_22
REMARK   11  A    between atoms: C_21  and  C_23
REMARK   12  A    between atoms: C_23  and  N_24
REMARK   13  A    between atoms: N_24  and  C_25
REMARK   14  A    between atoms: C_25  and  C_26
REMARK   15  A    between atoms: C_25  and  C_27
REMARK                            x       y       z     vdW  Elec       q    Type
REMARK                         _______ _______ _______ _____ _____    ______ ____
ROOT
ATOM      1  C   UNL     1       3.726   4.721  17.426  0.00  0.00    +0.000 A 
ATOM      2  C   UNL     1       2.869   5.668  18.035  0.00  0.00    +0.000 A 
ATOM      3  C   UNL     1       3.214   7.003  18.228  0.00  0.00    +0.000 A 
ATOM      4  C   UNL     1       4.503   7.399  17.905  0.00  0.00    +0.000 A 
ATOM      5  C   UNL     1       5.439   6.469  17.407  0.00  0.00    +0.000 A 
ATOM      6  C   UNL     1       5.056   5.121  17.147  0.00  0.00    +0.000 A 
ENDROOT
BRANCH   1   8
ATOM      7  C   UNL     1       1.785   3.111  17.907  0.00  0.00    +0.000 C 
ATOM      8  C   UNL     1       3.081   3.377  17.136  0.00  0.00    +0.000 C 
ENDBRANCH   1   8
BRANCH   3   9
ATOM      9  C   UNL     1       2.142   7.927  18.615  0.00  0.00    +0.000 C 
ATOM     10  C   UNL     1       1.637   8.907  17.853  0.00  0.00    +0.000 C 
BRANCH  10  11
ATOM     11  C   UNL     1       0.532   9.771  18.295  0.00  0.00    +0.000 A 
ATOM     12  C   UNL     1       0.727  10.600  19.407  0.00  0.00    +0.000 A 
ATOM     13  C   UNL     1      -0.291  11.448  19.846  0.00  0.00    +0.000 A 
ATOM     14  C   UNL     1      -1.511  11.485  19.173  0.00  0.00    +0.000 A 
ATOM     15  C   UNL     1      -1.715  10.679  18.057  0.00  0.00    +0.000 A 
ATOM     16  C   UNL     1      -0.695   9.835  17.617  0.00  0.00    +0.000 A 
ENDBRANCH  10  11
ENDBRANCH   3   9
BRANCH   5  17
ATOM     17  C   UNL     1       6.833   6.993  17.115  0.00  0.00    +0.000 C 
ATOM     18  C   UNL     1       7.781   6.802  18.291  0.00  0.00    +0.000 C 
ENDBRANCH   5  17
BRANCH   6  19
ATOM     19  O   UNL     1       6.086   4.384  16.614  0.00  0.00    +0.000 OA
BRANCH  19  20
ATOM     20  C   UNL     1       6.003   3.845  15.299  0.00  0.00    +0.000 C 
BRANCH  20  21
ATOM     21  C   UNL     1       6.442   4.884  14.255  0.00  0.00    +0.000 C 
BRANCH  21  22
ATOM     22  O   UNL     1       7.780   5.312  14.549  0.00  0.00    +0.000 OA
ATOM     23  H   UNL     1       8.170   4.609  15.102  0.00  0.00    +0.000 HD
ENDBRANCH  21  22
BRANCH  21  24
ATOM     24  C   UNL     1       6.389   4.357  12.812  0.00  0.00    +0.000 C 
BRANCH  24  25
ATOM     25  N   UNL     1       6.510   2.899  12.760  0.00  0.00    +0.000 NA
ATOM     26  H   UNL     1       6.454   2.523  13.706  0.00  0.00    +0.000 HD
BRANCH  25  27
ATOM     27  C   UNL     1       5.482   2.254  11.932  0.00  0.00    +0.000 C 
ATOM     28  C   UNL     1       4.575   3.258  11.217  0.00  0.00    +0.000 C 
ATOM     29  C   UNL     1       6.199   1.386  10.893  0.00  0.00    +0.000 C 
ENDBRANCH  25  27
ENDBRANCH  24  25
ENDBRANCH  21  24
ENDBRANCH  20  21
ENDBRANCH  19  20
ENDBRANCH   6  19
TORSDOF 11
ENDMDL
MODEL 7
REMARK VINA RESULT:      -7.2      0.869      1.156
REMARK  Name = 
REMARK  15 active torsions:
REMARK  status: ('A' for Active; 'I' for Inactive)
REMARK    1  A    between atoms: C_1  and  C_2
REMARK    2  A    between atoms: C_2  and  C_3
REMARK    3  A    between atoms: C_5  and  C_6
REMARK    4  A    between atoms: C_7  and  C_8
REMARK    5  A    between atoms: C_15  and  C_16
REMARK    6  A    between atoms: C_16  and  C_17
REMARK    7  A    between atoms: C_18  and  O_19
REMARK    8  A    between atoms: O_19  and  C_20
REMARK    9  A    between atoms: C_20  and  C_21
REMARK   10  A    between atoms: C_21  and  O_22
REMARK   11  A    between atoms: C_21  and  C_23
REMARK   12  A    between atoms: C_23  and  N_24
REMARK   13  A    between atoms: N_24  and  C_25
REMARK   14  A    between atoms: C_25  and  C_26
REMARK   15  A    between atoms: C_25  and  C_27
REMARK                            x       y       z     vdW  Elec       q    Type
REMARK                         _______ _______ _______ _____ _____    ______ ____
ROOT
ATOM      1  C   UNL     1       6.453   5.388  16.249  0.00  0.00    +0.000 A 
ATOM      2  C   UNL     1       7.341   6.434  16.594  0.00  0.00    +0.000 A 
ATOM      3  C   UNL     1       7.004   7.472  17.459  0.00  0.00    +0.000 A 
ATOM      4  C   UNL     1       5.698   7.544  17.918  0.00  0.00    +0.000 A 
ATOM      5  C   UNL     1       4.737   6.596  17.509  0.00  0.00    +0.000 A 
ATOM      6  C   UNL     1       5.108   5.496  16.681  0.00  0.00    +0.000 A 
ENDROOT
BRANCH   1   8
ATOM      7  C   UNL     1       6.367   3.923  14.142  0.00  0.00    +0.000 C 
ATOM      8  C   UNL     1       7.083   4.258  15.453  0.00  0.00    +0.000 C 
ENDBRANCH   1   8
BRANCH   3   9
ATOM      9  C   UNL     1       8.094   8.327  17.942  0.00  0.00    +0.000 C 
ATOM     10  C   UNL     1       8.089   9.667  17.967  0.00  0.00    +0.000 C 
BRANCH  10  11
ATOM     11  C   UNL     1       9.206  10.459  18.503  0.00  0.00    +0.000 A 
ATOM     12  C   UNL     1       9.325  10.602  19.891  0.00  0.00    +0.000 A 
ATOM     13  C   UNL     1      10.381  11.331  20.440  0.00  0.00    +0.000 A 
ATOM     14  C   UNL     1      11.336  11.917  19.609  0.00  0.00    +0.000 A 
ATOM     15  C   UNL     1      11.238  11.771  18.228  0.00  0.00    +0.000 A 
ATOM     16  C   UNL     1      10.185  11.039  17.681  0.00  0.00    +0.000 A 
ENDBRANCH  10  11
ENDBRANCH   3   9
BRANCH   5  17
ATOM     17  C   UNL     1       3.328   6.779  18.041  0.00  0.00    +0.000 C 
ATOM     18  C   UNL     1       2.768   8.161  17.734  0.00  0.00    +0.000 C 
ENDBRANCH   5  17
BRANCH   6  19
ATOM     19  O   UNL     1       4.051   4.654  16.435  0.00  0.00    +0.000 OA
BRANCH  19  20
ATOM     20  C   UNL     1       3.305   4.078  17.503  0.00  0.00    +0.000 C 
BRANCH  20  21
ATOM     21  C   UNL     1       4.009   2.826  18.048  0.00  0.00    +0.000 C 
BRANCH  21  22
ATOM     22  O   UNL     1       5.136   3.225  18.842  0.00  0.00    +0.000 OA
ATOM     23  H   UNL     1       4.783   3.833  19.520  0.00  0.00    +0.000 HD
ENDBRANCH  21  22
BRANCH  21  24
ATOM     24  C   UNL     1       3.091   1.930  18.894  0.00  0.00    +0.000 C 
BRANCH  24  25
ATOM     25  N   UNL     1       1.903   2.651  19.357  0.00  0.00    +0.000 NA
ATOM     26  H   UNL     1       1.134   1.992  19.472  0.00  0.00    +0.000 HD
BRANCH  25  27
ATOM     27  C   UNL     1       2.107   3.367  20.623  0.00  0.00    +0.000 C 
ATOM     28  C   UNL     1       1.464   4.756  20.633  0.00  0.00    +0.000 C 
ATOM     29  C   UNL     1       1.498   2.517  21.742  0.00  0.00    +0.000 C 
ENDBRANCH  25  27
ENDBRANCH  24  25
ENDBRANCH  21  24
ENDBRANCH  20  21
ENDBRANCH  19  20
ENDBRANCH   6  19
TORSDOF 11
ENDMDL
MODEL 8
REMARK VINA RESULT:      -7.2      1.034      2.811
REMARK  Name = 
REMARK  15 active torsions:
REMARK  status: ('A' for Active; 'I' for Inactive)
REMARK    1  A    between atoms: C_1  and  C_2
REMARK    2  A    between atoms: C_2  and  C_3
REMARK    3  A    between atoms: C_5  and  C_6
REMARK    4  A    between atoms: C_7  and  C_8
REMARK    5  A    between atoms: C_15  and  C_16
REMARK    6  A    between atoms: C_16  and  C_17
REMARK    7  A    between atoms: C_18  and  O_19
REMARK    8  A    between atoms: O_19  and  C_20
REMARK    9  A    between atoms: C_20  and  C_21
REMARK   10  A    between atoms: C_21  and  O_22
REMARK   11  A    between atoms: C_21  and  C_23
REMARK   12  A    between atoms: C_23  and  N_24
REMARK   13  A    between atoms: N_24  and  C_25
REMARK   14  A    between atoms: C_25  and  C_26
REMARK   15  A    between atoms: C_25  and  C_27
REMARK                            x       y       z     vdW  Elec       q    Type
REMARK                         _______ _______ _______ _____ _____    ______ ____
ROOT
ATOM      1  C   UNL     1       4.622   6.733  17.458  0.00  0.00    +0.000 A 
ATOM      2  C   UNL     1       5.718   7.543  17.838  0.00  0.00    +0.000 A 
ATOM      3  C   UNL     1       7.033   7.282  17.458  0.00  0.00    +0.000 A 
ATOM      4  C   UNL     1       7.293   6.110  16.765  0.00  0.00    +0.000 A 
ATOM      5  C   UNL     1       6.254   5.204  16.465  0.00  0.00    +0.000 A 
ATOM      6  C   UNL     1       4.902   5.514  16.794  0.00  0.00    +0.000 A 
ENDROOT
BRANCH   1   8
ATOM      7  C   UNL     1       2.763   6.952  19.216  0.00  0.00    +0.000 C 
ATOM      8  C   UNL     1       3.259   7.305  17.811  0.00  0.00    +0.000 C 
ENDBRANCH   1   8
BRANCH   3   9
ATOM      9  C   UNL     1       8.022   8.340  17.687  0.00  0.00    +0.000 C 
ATOM     10  C   UNL     1       7.752   9.632  17.915  0.00  0.00    +0.000 C 
BRANCH  10  11
ATOM     11  C   UNL     1       8.798  10.633  18.176  0.00  0.00    +0.000 A 
ATOM     12  C   UNL     1       8.664  11.910  17.617  0.00  0.00    +0.000 A 
ATOM     13  C   UNL     1       9.626  12.892  17.856  0.00  0.00    +0.000 A 
ATOM     14  C   UNL     1      10.727  12.613  18.665  0.00  0.00    +0.000 A 
ATOM     15  C   UNL     1      10.866  11.353  19.240  0.00  0.00    +0.000 A 
ATOM     16  C   UNL     1       9.902  10.373  19.003  0.00  0.00    +0.000 A 
ENDBRANCH  10  11
ENDBRANCH   3   9
BRANCH   5  17
ATOM     17  C   UNL     1       6.646   3.935  15.731  0.00  0.00    +0.000 C 
ATOM     18  C   UNL     1       6.478   4.062  14.223  0.00  0.00    +0.000 C 
ENDBRANCH   5  17
BRANCH   6  19
ATOM     19  O   UNL     1       4.031   4.539  16.373  0.00  0.00    +0.000 OA
BRANCH  19  20
ATOM     20  C   UNL     1       3.176   3.869  17.293  0.00  0.00    +0.000 C 
BRANCH  20  21
ATOM     21  C   UNL     1       3.860   2.616  17.861  0.00  0.00    +0.000 C 
BRANCH  21  22
ATOM     22  O   UNL     1       4.959   3.013  18.692  0.00  0.00    +0.000 OA
ATOM     23  H   UNL     1       5.414   2.188  18.948  0.00  0.00    +0.000 HD
ENDBRANCH  21  22
BRANCH  21  24
ATOM     24  C   UNL     1       2.912   1.721  18.676  0.00  0.00    +0.000 C 
BRANCH  24  25
ATOM     25  N   UNL     1       1.604   2.348  18.870  0.00  0.00    +0.000 NA
ATOM     26  H   UNL     1       0.876   1.720  18.531  0.00  0.00    +0.000 HD
BRANCH  25  27
ATOM     27  C   UNL     1       1.319   2.691  20.270  0.00  0.00    +0.000 C 
ATOM     28  C   UNL     1       2.532   2.511  21.186  0.00  0.00    +0.000 C 
ATOM     29  C   UNL     1       0.865   4.153  20.308  0.00  0.00    +0.000 C 
ENDBRANCH  25  27
ENDBRANCH  24  25
ENDBRANCH  21  24
ENDBRANCH  20  21
ENDBRANCH  19  20
ENDBRANCH   6  19
TORSDOF 11
ENDMDL
MODEL 9
REMARK VINA RESULT:      -7.2      0.917      2.883
REMARK  Name = 
REMARK  15 active torsions:
REMARK  status: ('A' for Active; 'I' for Inactive)
REMARK    1  A    between atoms: C_1  and  C_2
REMARK    2  A    between atoms: C_2  and  C_3
REMARK    3  A    between atoms: C_5  and  C_6
REMARK    4  A    between atoms: C_7  and  C_8
REMARK    5  A    between atoms: C_15  and  C_16
REMARK    6  A    between atoms: C_16  and  C_17
REMARK    7  A    between atoms: C_18  and  O_19
REMARK    8  A    between atoms: O_19  and  C_20
REMARK    9  A    between atoms: C_20  and  C_21
REMARK   10  A    between atoms: C_21  and  O_22
REMARK   11  A    between atoms: C_21  and  C_23
REMARK   12  A    between atoms: C_23  and  N_24
REMARK   13  A    between atoms: N_24  and  C_25
REMARK   14  A    between atoms: C_25  and  C_26
REMARK   15  A    between atoms: C_25  and  C_27
REMARK                            x       y       z     vdW  Elec       q    Type
REMARK                         _______ _______ _______ _____ _____    ______ ____
ROOT
ATOM      1  C   UNL     1       4.490   6.264  17.778  0.00  0.00    +0.000 A 
ATOM      2  C   UNL     1       5.645   6.963  18.202  0.00  0.00    +0.000 A 
ATOM      3  C   UNL     1       6.907   6.767  17.647  0.00  0.00    +0.000 A 
ATOM      4  C   UNL     1       7.059   5.758  16.708  0.00  0.00    +0.000 A 
ATOM      5  C   UNL     1       5.965   4.948  16.337  0.00  0.00    +0.000 A 
ATOM      6  C   UNL     1       4.663   5.203  16.857  0.00  0.00    +0.000 A 
ENDROOT
BRANCH   1   8
ATOM      7  C   UNL     1       2.709   8.113  17.815  0.00  0.00    +0.000 C 
ATOM      8  C   UNL     1       3.188   6.772  18.376  0.00  0.00    +0.000 C 
ENDBRANCH   1   8
BRANCH   3   9
ATOM      9  C   UNL     1       7.950   7.740  17.984  0.00  0.00    +0.000 C 
ATOM     10  C   UNL     1       7.807   9.073  17.993  0.00  0.00    +0.000 C 
BRANCH  10  11
ATOM     11  C   UNL     1       8.890   9.989  18.381  0.00  0.00    +0.000 A 
ATOM     12  C   UNL     1       9.557  10.708  17.380  0.00  0.00    +0.000 A 
ATOM     13  C   UNL     1      10.578  11.600  17.710  0.00  0.00    +0.000 A 
ATOM     14  C   UNL     1      10.937  11.793  19.044  0.00  0.00    +0.000 A 
ATOM     15  C   UNL     1      10.274  11.097  20.050  0.00  0.00    +0.000 A 
ATOM     16  C   UNL     1       9.251  10.209  19.720  0.00  0.00    +0.000 A 
ENDBRANCH  10  11
ENDBRANCH   3   9
BRANCH   5  17
ATOM     17  C   UNL     1       6.241   3.850  15.325  0.00  0.00    +0.000 C 
ATOM     18  C   UNL     1       6.652   4.403  13.968  0.00  0.00    +0.000 C 
ENDBRANCH   5  17
BRANCH   6  19
ATOM     19  O   UNL     1       3.721   4.347  16.338  0.00  0.00    +0.000 OA
BRANCH  19  20
ATOM     20  C   UNL     1       3.191   3.278  17.113  0.00  0.00    +0.000 C 
BRANCH  20  21
ATOM     21  C   UNL     1       1.913   3.716  17.845  0.00  0.00    +0.000 C 
BRANCH  21  22
ATOM     22  O   UNL     1       1.016   4.326  16.905  0.00  0.00    +0.000 OA
ATOM     23  H   UNL     1       0.770   3.623  16.275  0.00  0.00    +0.000 HD
ENDBRANCH  21  22
BRANCH  21  24
ATOM     24  C   UNL     1       1.189   2.560  18.552  0.00  0.00    +0.000 C 
BRANCH  24  25
ATOM     25  N   UNL     1       0.734   2.940  19.891  0.00  0.00    +0.000 NA
ATOM     26  H   UNL     1       0.201   2.171  20.296  0.00  0.00    +0.000 HD
BRANCH  25  27
ATOM     27  C   UNL     1       1.828   3.292  20.806  0.00  0.00    +0.000 C 
ATOM     28  C   UNL     1       1.886   4.790  21.118  0.00  0.00    +0.000 C 
ATOM     29  C   UNL     1       1.618   2.509  22.105  0.00  0.00    +0.000 C 
ENDBRANCH  25  27
ENDBRANCH  24  25
ENDBRANCH  21  24
ENDBRANCH  20  21
ENDBRANCH  19  20
ENDBRANCH   6  19
TORSDOF 11
ENDMDL
