MODEL 1
REMARK VINA RESULT:      -7.3      0.000      0.000
REMARK  Name = 
REMARK  6 active torsions:
REMARK  status: ('A' for Active; 'I' for Inactive)
REMARK    1  A    between atoms: C_2  and  O_3
REMARK    2  A    between atoms: C_2  and  C_4
REMARK    3  A    between atoms: C_4  and  C_5
REMARK    4  A    between atoms: C_5  and  C_6
REMARK    5  A    between atoms: C_6  and  C_7
REMARK    6  A    between atoms: C_9  and  C_10
REMARK                            x       y       z     vdW  Elec       q    Type
REMARK                         _______ _______ _______ _____ _____    ______ ____
ROOT
ATOM      1  C   UNL     1       6.600   4.530  15.933  0.00  0.00    +0.000 A 
ATOM      2  N   UNL     1       5.466   4.081  16.445  0.00  0.00    +0.000 NA
ATOM      3  C   UNL     1       5.618   4.306  17.803  0.00  0.00    +0.000 A 
ATOM      4  C   UNL     1       6.871   4.828  18.041  0.00  0.00    +0.000 A 
ATOM      5  O   UNL     1       7.507   4.973  16.848  0.00  0.00    +0.000 OA
ENDROOT
BRANCH   3   6
ATOM      6  C   UNL     1       4.596   4.021  18.800  0.00  0.00    +0.000 A 
ATOM      7  C   UNL     1       4.500   2.733  19.349  0.00  0.00    +0.000 A 
ATOM      8  C   UNL     1       3.532   2.436  20.315  0.00  0.00    +0.000 A 
ATOM      9  C   UNL     1       2.641   3.421  20.746  0.00  0.00    +0.000 A 
ATOM     10 CL   UNL     1       1.479   2.991  21.947  0.00  0.00    +0.000 Cl
ATOM     11  C   UNL     1       2.718   4.704  20.200  0.00  0.00    +0.000 A 
ATOM     12 CL   UNL     1       1.645   5.977  20.669  0.00  0.00    +0.000 Cl
ATOM     13  C   UNL     1       3.689   5.000  19.232  0.00  0.00    +0.000 A 
ENDBRANCH   3   6
BRANCH   1  14
ATOM     14  C   UNL     1       7.024   4.549  14.511  0.00  0.00    +0.000 C 
BRANCH  14  15
ATOM     15  C   UNL     1       5.939   3.994  13.584  0.00  0.00    +0.000 C 
BRANCH  15  16
ATOM     16  C   UNL     1       6.445   3.460  12.244  0.00  0.00    +0.000 C 
BRANCH  16  18
ATOM     17  O   UNL     1       4.364   2.812  11.215  0.00  0.00    +0.000 OA
ATOM     18  C   UNL     1       5.477   2.496  11.606  0.00  0.00    +0.000 C 
BRANCH  18  19
ATOM     19  O   UNL     1       5.939   1.228  11.548  0.00  0.00    +0.000 OA
ATOM     20  H   UNL     1       6.045   0.789  12.422  0.00  0.00    +0.000 HD
ENDBRANCH  18  19
ENDBRANCH  16  18
ENDBRANCH  15  16
ENDBRANCH  14  15
ENDBRANCH   1  14
TORSDOF 6
ENDMDL
MODEL 2
REMARK VINA RESULT:      -7.0      1.254      1.316
REMARK  Name = 
REMARK  6 active torsions:
REMARK  status: ('A' for Active; 'I' for Inactive)
REMARK    1  A    between atoms: C_2  and  O_3
REMARK    2  A    between atoms: C_2  and  C_4
REMARK    3  A    between atoms: C_4  and  C_5
REMARK    4  A    between atoms: C_5  and  C_6
REMARK    5  A    between atoms: C_6  and  C_7
REMARK    6  A    between atoms: C_9  and  C_10
REMARK                            x       y       z     vdW  Elec       q    Type
REMARK                         _______ _______ _______ _____ _____    ______ ____
ROOT
ATOM      1  C   UNL     1       6.065   5.043  15.156  0.00  0.00    +0.000 A 
ATOM      2  N   UNL     1       5.551   4.176  16.012  0.00  0.00    +0.000 NA
ATOM      3  C   UNL     1       4.721   4.956  16.799  0.00  0.00    +0.000 A 
ATOM      4  C   UNL     1       4.829   6.273  16.408  0.00  0.00    +0.000 A 
ATOM      5  O   UNL     1       5.690   6.338  15.357  0.00  0.00    +0.000 OA
ENDROOT
BRANCH   3   6
ATOM      6  C   UNL     1       3.881   4.438  17.869  0.00  0.00    +0.000 A 
ATOM      7  C   UNL     1       3.769   3.053  18.056  0.00  0.00    +0.000 A 
ATOM      8  C   UNL     1       2.974   2.530  19.083  0.00  0.00    +0.000 A 
ATOM      9  C   UNL     1       2.275   3.384  19.936  0.00  0.00    +0.000 A 
ATOM     10 CL   UNL     1       1.321   2.675  21.188  0.00  0.00    +0.000 Cl
ATOM     11  C   UNL     1       2.367   4.766  19.754  0.00  0.00    +0.000 A 
ATOM     12 CL   UNL     1       1.524   5.893  20.760  0.00  0.00    +0.000 Cl
ATOM     13  C   UNL     1       3.165   5.288  18.726  0.00  0.00    +0.000 A 
ENDBRANCH   3   6
BRANCH   1  14
ATOM     14  C   UNL     1       7.037   4.793  14.063  0.00  0.00    +0.000 C 
BRANCH  14  15
ATOM     15  C   UNL     1       6.539   3.720  13.090  0.00  0.00    +0.000 C 
BRANCH  15  16
ATOM     16  C   UNL     1       5.117   3.932  12.569  0.00  0.00    +0.000 C 
BRANCH  16  18
ATOM     17  O   UNL     1       3.675   2.925  10.922  0.00  0.00    +0.000 OA
ATOM     18  C   UNL     1       4.706   2.877  11.574  0.00  0.00    +0.000 C 
BRANCH  18  19
ATOM     19  O   UNL     1       5.568   1.838  11.502  0.00  0.00    +0.000 OA
ATOM     20  H   UNL     1       5.650   1.435  10.608  0.00  0.00    +0.000 HD
ENDBRANCH  18  19
ENDBRANCH  16  18
ENDBRANCH  15  16
ENDBRANCH  14  15
ENDBRANCH   1  14
TORSDOF 6
ENDMDL
MODEL 3
REMARK VINA RESULT:      -6.9      4.388      6.736
REMARK  Name = 
REMARK  6 active torsions:
REMARK  status: ('A' for Active; 'I' for Inactive)
REMARK    1  A    between atoms: C_2  and  O_3
REMARK    2  A    between atoms: C_2  and  C_4
REMARK    3  A    between atoms: C_4  and  C_5
REMARK    4  A    between atoms: C_5  and  C_6
REMARK    5  A    between atoms: C_6  and  C_7
REMARK    6  A    between atoms: C_9  and  C_10
REMARK                            x       y       z     vdW  Elec       q    Type
REMARK                         _______ _______ _______ _____ _____    ______ ____
ROOT
ATOM      1  C   UNL     1       2.895   4.378  17.728  0.00  0.00    +0.000 A 
ATOM      2  N   UNL     1       1.978   5.241  18.133  0.00  0.00    +0.000 NA
ATOM      3  C   UNL     1       2.700   6.405  18.333  0.00  0.00    +0.000 A 
ATOM      4  C   UNL     1       4.034   6.161  18.092  0.00  0.00    +0.000 A 
ATOM      5  O   UNL     1       4.168   4.864  17.705  0.00  0.00    +0.000 OA
ENDROOT
BRANCH   3   6
ATOM      6  C   UNL     1       2.113   7.674  18.739  0.00  0.00    +0.000 A 
ATOM      7  C   UNL     1       1.903   8.680  17.785  0.00  0.00    +0.000 A 
ATOM      8  C   UNL     1       1.333   9.906  18.149  0.00  0.00    +0.000 A 
ATOM      9  C   UNL     1       0.967  10.146  19.474  0.00  0.00    +0.000 A 
ATOM     10 CL   UNL     1       0.259  11.674  19.854  0.00  0.00    +0.000 Cl
ATOM     11  C   UNL     1       1.180   9.158  20.437  0.00  0.00    +0.000 A 
ATOM     12 CL   UNL     1       0.766   9.379  22.102  0.00  0.00    +0.000 Cl
ATOM     13  C   UNL     1       1.751   7.930  20.070  0.00  0.00    +0.000 A 
ENDBRANCH   3   6
BRANCH   1  14
ATOM     14  C   UNL     1       2.719   2.951  17.363  0.00  0.00    +0.000 C 
BRANCH  14  15
ATOM     15  C   UNL     1       1.928   2.183  18.425  0.00  0.00    +0.000 C 
BRANCH  15  16
ATOM     16  C   UNL     1       2.506   2.254  19.839  0.00  0.00    +0.000 C 
BRANCH  16  18
ATOM     17  O   UNL     1       1.587   2.572  22.044  0.00  0.00    +0.000 OA
ATOM     18  C   UNL     1       1.510   2.777  20.842  0.00  0.00    +0.000 C 
BRANCH  18  19
ATOM     19  O   UNL     1       0.487   3.459  20.282  0.00  0.00    +0.000 OA
ATOM     20  H   UNL     1      -0.402   3.067  20.438  0.00  0.00    +0.000 HD
ENDBRANCH  18  19
ENDBRANCH  16  18
ENDBRANCH  15  16
ENDBRANCH  14  15
ENDBRANCH   1  14
TORSDOF 6
ENDMDL
MODEL 4
REMARK VINA RESULT:      -6.9      1.573      1.885
REMARK  Name = 
REMARK  6 active torsions:
REMARK  status: ('A' for Active; 'I' for Inactive)
REMARK    1  A    between atoms: C_2  and  O_3
REMARK    2  A    between atoms: C_2  and  C_4
REMARK    3  A    between atoms: C_4  and  C_5
REMARK    4  A    between atoms: C_5  and  C_6
REMARK    5  A    between atoms: C_6  and  C_7
REMARK    6  A    between atoms: C_9  and  C_10
REMARK                            x       y       z     vdW  Elec       q    Type
REMARK                         _______ _______ _______ _____ _____    ______ ____
ROOT
ATOM      1  C   UNL     1       5.900   5.136  15.306  0.00  0.00    +0.000 A 
ATOM      2  N   UNL     1       5.389   4.287  16.181  0.00  0.00    +0.000 NA
ATOM      3  C   UNL     1       4.578   5.086  16.968  0.00  0.00    +0.000 A 
ATOM      4  C   UNL     1       4.693   6.396  16.556  0.00  0.00    +0.000 A 
ATOM      5  O   UNL     1       5.539   6.437  15.492  0.00  0.00    +0.000 OA
ENDROOT
BRANCH   3   6
ATOM      6  C   UNL     1       3.749   4.592  18.058  0.00  0.00    +0.000 A 
ATOM      7  C   UNL     1       4.006   5.009  19.372  0.00  0.00    +0.000 A 
ATOM      8  C   UNL     1       3.217   4.555  20.436  0.00  0.00    +0.000 A 
ATOM      9  C   UNL     1       2.161   3.673  20.203  0.00  0.00    +0.000 A 
ATOM     10 CL   UNL     1       1.221   3.160  21.557  0.00  0.00    +0.000 Cl
ATOM     11  C   UNL     1       1.900   3.240  18.900  0.00  0.00    +0.000 A 
ATOM     12 CL   UNL     1       0.619   2.140  18.528  0.00  0.00    +0.000 Cl
ATOM     13  C   UNL     1       2.691   3.697  17.836  0.00  0.00    +0.000 A 
ENDBRANCH   3   6
BRANCH   1  14
ATOM     14  C   UNL     1       6.853   4.860  14.203  0.00  0.00    +0.000 C 
BRANCH  14  15
ATOM     15  C   UNL     1       6.381   3.706  13.315  0.00  0.00    +0.000 C 
BRANCH  15  16
ATOM     16  C   UNL     1       5.060   3.951  12.586  0.00  0.00    +0.000 C 
BRANCH  16  18
ATOM     17  O   UNL     1       3.756   2.874  10.869  0.00  0.00    +0.000 OA
ATOM     18  C   UNL     1       4.751   2.875  11.576  0.00  0.00    +0.000 C 
BRANCH  18  19
ATOM     19  O   UNL     1       5.662   1.877  11.556  0.00  0.00    +0.000 OA
ATOM     20  H   UNL     1       5.280   0.971  11.597  0.00  0.00    +0.000 HD
ENDBRANCH  18  19
ENDBRANCH  16  18
ENDBRANCH  15  16
ENDBRANCH  14  15
ENDBRANCH   1  14
TORSDOF 6
ENDMDL
MODEL 5
REMARK VINA RESULT:      -6.8      1.750      2.293
REMARK  Name = 
REMARK  6 active torsions:
REMARK  status: ('A' for Active; 'I' for Inactive)
REMARK    1  A    between atoms: C_2  and  O_3
REMARK    2  A    between atoms: C_2  and  C_4
REMARK    3  A    between atoms: C_4  and  C_5
REMARK    4  A    between atoms: C_5  and  C_6
REMARK    5  A    between atoms: C_6  and  C_7
REMARK    6  A    between atoms: C_9  and  C_10
REMARK                            x       y       z     vdW  Elec       q    Type
REMARK                         _______ _______ _______ _____ _____    ______ ____
ROOT
ATOM      1  C   UNL     1       6.578   4.914  15.586  0.00  0.00    +0.000 A 
ATOM      2  N   UNL     1       5.359   5.303  15.921  0.00  0.00    +0.000 NA
ATOM      3  C   UNL     1       5.462   5.547  17.280  0.00  0.00    +0.000 A 
ATOM      4  C   UNL     1       6.735   5.232  17.703  0.00  0.00    +0.000 A 
ATOM      5  O   UNL     1       7.456   4.824  16.625  0.00  0.00    +0.000 OA
ENDROOT
BRANCH   3   6
ATOM      6  C   UNL     1       4.377   6.054  18.106  0.00  0.00    +0.000 A 
ATOM      7  C   UNL     1       4.068   5.416  19.317  0.00  0.00    +0.000 A 
ATOM      8  C   UNL     1       3.034   5.889  20.133  0.00  0.00    +0.000 A 
ATOM      9  C   UNL     1       2.289   7.006  19.751  0.00  0.00    +0.000 A 
ATOM     10 CL   UNL     1       1.035   7.543  20.808  0.00  0.00    +0.000 Cl
ATOM     11  C   UNL     1       2.577   7.644  18.542  0.00  0.00    +0.000 A 
ATOM     12 CL   UNL     1       1.695   9.025  17.989  0.00  0.00    +0.000 Cl
ATOM     13  C   UNL     1       3.614   7.169  17.726  0.00  0.00    +0.000 A 
ENDBRANCH   3   6
BRANCH   1  14
ATOM     14  C   UNL     1       7.081   4.508  14.251  0.00  0.00    +0.000 C 
BRANCH  14  15
ATOM     15  C   UNL     1       5.984   3.863  13.399  0.00  0.00    +0.000 C 
BRANCH  15  16
ATOM     16  C   UNL     1       6.456   3.296  12.060  0.00  0.00    +0.000 C 
BRANCH  16  18
ATOM     17  O   UNL     1       4.346   2.583  11.140  0.00  0.00    +0.000 OA
ATOM     18  C   UNL     1       5.483   2.300  11.482  0.00  0.00    +0.000 C 
BRANCH  18  19
ATOM     19  O   UNL     1       5.973   1.042  11.420  0.00  0.00    +0.000 OA
ATOM     20  H   UNL     1       6.057   0.591  12.290  0.00  0.00    +0.000 HD
ENDBRANCH  18  19
ENDBRANCH  16  18
ENDBRANCH  15  16
ENDBRANCH  14  15
ENDBRANCH   1  14
TORSDOF 6
ENDMDL
MODEL 6
REMARK VINA RESULT:      -6.7      4.578      7.378
REMARK  Name = 
REMARK  6 active torsions:
REMARK  status: ('A' for Active; 'I' for Inactive)
REMARK    1  A    between atoms: C_2  and  O_3
REMARK    2  A    between atoms: C_2  and  C_4
REMARK    3  A    between atoms: C_4  and  C_5
REMARK    4  A    between atoms: C_5  and  C_6
REMARK    5  A    between atoms: C_6  and  C_7
REMARK    6  A    between atoms: C_9  and  C_10
REMARK                            x       y       z     vdW  Elec       q    Type
REMARK                         _______ _______ _______ _____ _____    ______ ____
ROOT
ATOM      1  C   UNL     1       3.129   2.714  18.791  0.00  0.00    +0.000 A 
ATOM      2  N   UNL     1       3.437   2.976  17.532  0.00  0.00    +0.000 NA
ATOM      3  C   UNL     1       4.674   3.591  17.627  0.00  0.00    +0.000 A 
ATOM      4  C   UNL     1       5.018   3.719  18.955  0.00  0.00    +0.000 A 
ATOM      5  O   UNL     1       4.033   3.161  19.708  0.00  0.00    +0.000 OA
ENDROOT
BRANCH   3   6
ATOM      6  C   UNL     1       5.462   4.027  16.483  0.00  0.00    +0.000 A 
ATOM      7  C   UNL     1       6.555   4.883  16.678  0.00  0.00    +0.000 A 
ATOM      8  C   UNL     1       7.334   5.310  15.596  0.00  0.00    +0.000 A 
ATOM      9  C   UNL     1       7.028   4.891  14.300  0.00  0.00    +0.000 A 
ATOM     10 CL   UNL     1       8.034   5.445  13.012  0.00  0.00    +0.000 Cl
ATOM     11  C   UNL     1       5.935   4.047  14.089  0.00  0.00    +0.000 A 
ATOM     12 CL   UNL     1       5.482   3.491  12.515  0.00  0.00    +0.000 Cl
ATOM     13  C   UNL     1       5.157   3.620  15.175  0.00  0.00    +0.000 A 
ENDBRANCH   3   6
BRANCH   1  14
ATOM     14  C   UNL     1       1.908   2.060  19.324  0.00  0.00    +0.000 C 
BRANCH  14  15
ATOM     15  C   UNL     1       1.208   2.926  20.375  0.00  0.00    +0.000 C 
BRANCH  15  16
ATOM     16  C   UNL     1       0.930   4.366  19.944  0.00  0.00    +0.000 C 
BRANCH  16  18
ATOM     17  O   UNL     1       1.519   6.578  20.698  0.00  0.00    +0.000 OA
ATOM     18  C   UNL     1       1.690   5.371  20.771  0.00  0.00    +0.000 C 
BRANCH  18  19
ATOM     19  O   UNL     1       2.622   4.814  21.576  0.00  0.00    +0.000 OA
ATOM     20  H   UNL     1       3.277   5.448  21.946  0.00  0.00    +0.000 HD
ENDBRANCH  18  19
ENDBRANCH  16  18
ENDBRANCH  15  16
ENDBRANCH  14  15
ENDBRANCH   1  14
TORSDOF 6
ENDMDL
MODEL 7
REMARK VINA RESULT:      -6.7      1.809      2.339
REMARK  Name = 
REMARK  6 active torsions:
REMARK  status: ('A' for Active; 'I' for Inactive)
REMARK    1  A    between atoms: C_2  and  O_3
REMARK    2  A    between atoms: C_2  and  C_4
REMARK    3  A    between atoms: C_4  and  C_5
REMARK    4  A    between atoms: C_5  and  C_6
REMARK    5  A    between atoms: C_6  and  C_7
REMARK    6  A    between atoms: C_9  and  C_10
REMARK                            x       y       z     vdW  Elec       q    Type
REMARK                         _______ _______ _______ _____ _____    ______ ____
ROOT
ATOM      1  C   UNL     1       6.085   4.535  14.570  0.00  0.00    +0.000 A 
ATOM      2  N   UNL     1       5.336   3.925  15.473  0.00  0.00    +0.000 NA
ATOM      3  C   UNL     1       4.837   4.969  16.233  0.00  0.00    +0.000 A 
ATOM      4  C   UNL     1       5.367   6.157  15.778  0.00  0.00    +0.000 A 
ATOM      5  O   UNL     1       6.168   5.888  14.713  0.00  0.00    +0.000 OA
ENDROOT
BRANCH   3   6
ATOM      6  C   UNL     1       3.904   4.805  17.338  0.00  0.00    +0.000 A 
ATOM      7  C   UNL     1       3.879   5.753  18.372  0.00  0.00    +0.000 A 
ATOM      8  C   UNL     1       2.985   5.622  19.442  0.00  0.00    +0.000 A 
ATOM      9  C   UNL     1       2.105   4.540  19.497  0.00  0.00    +0.000 A 
ATOM     10 CL   UNL     1       1.022   4.444  20.838  0.00  0.00    +0.000 Cl
ATOM     11  C   UNL     1       2.127   3.583  18.480  0.00  0.00    +0.000 A 
ATOM     12 CL   UNL     1       1.080   2.207  18.478  0.00  0.00    +0.000 Cl
ATOM     13  C   UNL     1       3.023   3.716  17.409  0.00  0.00    +0.000 A 
ENDBRANCH   3   6
BRANCH   1  14
ATOM     14  C   UNL     1       6.885   3.930  13.476  0.00  0.00    +0.000 C 
BRANCH  14  15
ATOM     15  C   UNL     1       6.089   3.832  12.172  0.00  0.00    +0.000 C 
BRANCH  15  16
ATOM     16  C   UNL     1       5.470   2.462  11.894  0.00  0.00    +0.000 C 
BRANCH  16  18
ATOM     17  O   UNL     1       7.548   1.796  10.870  0.00  0.00    +0.000 OA
ATOM     18  C   UNL     1       6.475   1.475  11.358  0.00  0.00    +0.000 C 
BRANCH  18  19
ATOM     19  O   UNL     1       6.058   0.191  11.423  0.00  0.00    +0.000 OA
ATOM     20  H   UNL     1       6.751  -0.452  11.696  0.00  0.00    +0.000 HD
ENDBRANCH  18  19
ENDBRANCH  16  18
ENDBRANCH  15  16
ENDBRANCH  14  15
ENDBRANCH   1  14
TORSDOF 6
ENDMDL
MODEL 8
REMARK VINA RESULT:      -6.7      3.894      5.711
REMARK  Name = 
REMARK  6 active torsions:
REMARK  status: ('A' for Active; 'I' for Inactive)
REMARK    1  A    between atoms: C_2  and  O_3
REMARK    2  A    between atoms: C_2  and  C_4
REMARK    3  A    between atoms: C_4  and  C_5
REMARK    4  A    between atoms: C_5  and  C_6
REMARK    5  A    between atoms: C_6  and  C_7
REMARK    6  A    between atoms: C_9  and  C_10
REMARK                            x       y       z     vdW  Elec       q    Type
REMARK                         _______ _______ _______ _____ _____    ______ ____
ROOT
ATOM      1  C   UNL     1       4.819   4.991  17.723  0.00  0.00    +0.000 A 
ATOM      2  N   UNL     1       4.183   6.128  17.495  0.00  0.00    +0.000 NA
ATOM      3  C   UNL     1       3.394   6.285  18.622  0.00  0.00    +0.000 A 
ATOM      4  C   UNL     1       3.556   5.193  19.447  0.00  0.00    +0.000 A 
ATOM      5  O   UNL     1       4.467   4.358  18.877  0.00  0.00    +0.000 OA
ENDROOT
BRANCH   3   6
ATOM      6  C   UNL     1       2.534   7.433  18.868  0.00  0.00    +0.000 A 
ATOM      7  C   UNL     1       2.301   8.360  17.841  0.00  0.00    +0.000 A 
ATOM      8  C   UNL     1       1.472   9.468  18.049  0.00  0.00    +0.000 A 
ATOM      9  C   UNL     1       0.865   9.670  19.290  0.00  0.00    +0.000 A 
ATOM     10 CL   UNL     1      -0.154  11.050  19.477  0.00  0.00    +0.000 Cl
ATOM     11  C   UNL     1       1.097   8.762  20.326  0.00  0.00    +0.000 A 
ATOM     12 CL   UNL     1       0.395   8.946  21.895  0.00  0.00    +0.000 Cl
ATOM     13  C   UNL     1       1.928   7.652  20.114  0.00  0.00    +0.000 A 
ENDBRANCH   3   6
BRANCH   1  14
ATOM     14  C   UNL     1       5.806   4.299  16.858  0.00  0.00    +0.000 C 
BRANCH  14  15
ATOM     15  C   UNL     1       7.238   4.758  17.144  0.00  0.00    +0.000 C 
BRANCH  15  16
ATOM     16  C   UNL     1       7.390   5.689  18.347  0.00  0.00    +0.000 C 
BRANCH  16  18
ATOM     17  O   UNL     1       8.455   7.840  18.565  0.00  0.00    +0.000 OA
ATOM     18  C   UNL     1       7.703   7.107  17.942  0.00  0.00    +0.000 C 
BRANCH  18  19
ATOM     19  O   UNL     1       7.032   7.514  16.842  0.00  0.00    +0.000 OA
ATOM     20  H   UNL     1       6.603   8.396  16.926  0.00  0.00    +0.000 HD
ENDBRANCH  18  19
ENDBRANCH  16  18
ENDBRANCH  15  16
ENDBRANCH  14  15
ENDBRANCH   1  14
TORSDOF 6
ENDMDL
MODEL 9
REMARK VINA RESULT:      -6.7      3.645      5.903
REMARK  Name = 
REMARK  6 active torsions:
REMARK  status: ('A' for Active; 'I' for Inactive)
REMARK    1  A    between atoms: C_2  and  O_3
REMARK    2  A    between atoms: C_2  and  C_4
REMARK    3  A    between atoms: C_4  and  C_5
REMARK    4  A    between atoms: C_5  and  C_6
REMARK    5  A    between atoms: C_6  and  C_7
REMARK    6  A    between atoms: C_9  and  C_10
REMARK                            x       y       z     vdW  Elec       q    Type
REMARK                         _______ _______ _______ _____ _____    ______ ____
ROOT
ATOM      1  C   UNL     1       7.344   6.518  18.036  0.00  0.00    +0.000 A 
ATOM      2  N   UNL     1       6.261   6.129  18.687  0.00  0.00    +0.000 NA
ATOM      3  C   UNL     1       5.624   5.299  17.781  0.00  0.00    +0.000 A 
ATOM      4  C   UNL     1       6.336   5.281  16.602  0.00  0.00    +0.000 A 
ATOM      5  O   UNL     1       7.439   6.061  16.756  0.00  0.00    +0.000 OA
ENDROOT
BRANCH   3   6
ATOM      6  C   UNL     1       4.392   4.574  18.059  0.00  0.00    +0.000 A 
ATOM      7  C   UNL     1       3.736   3.894  17.022  0.00  0.00    +0.000 A 
ATOM      8  C   UNL     1       2.555   3.183  17.265  0.00  0.00    +0.000 A 
ATOM      9  C   UNL     1       2.008   3.144  18.548  0.00  0.00    +0.000 A 
ATOM     10 CL   UNL     1       0.556   2.242  18.782  0.00  0.00    +0.000 Cl
ATOM     11  C   UNL     1       2.644   3.827  19.589  0.00  0.00    +0.000 A 
ATOM     12 CL   UNL     1       2.026   3.839  21.204  0.00  0.00    +0.000 Cl
ATOM     13  C   UNL     1       3.827   4.537  19.343  0.00  0.00    +0.000 A 
ENDBRANCH   3   6
BRANCH   1  14
ATOM     14  C   UNL     1       8.419   7.430  18.499  0.00  0.00    +0.000 C 
BRANCH  14  15
ATOM     15  C   UNL     1       8.202   8.865  18.011  0.00  0.00    +0.000 C 
BRANCH  15  16
ATOM     16  C   UNL     1       8.962   9.936  18.793  0.00  0.00    +0.000 C 
BRANCH  16  18
ATOM     17  O   UNL     1       8.305  11.927  17.606  0.00  0.00    +0.000 OA
ATOM     18  C   UNL     1       9.198  11.183  17.981  0.00  0.00    +0.000 C 
BRANCH  18  19
ATOM     19  O   UNL     1      10.496  11.381  17.660  0.00  0.00    +0.000 OA
ATOM     20  H   UNL     1      10.774  12.325  17.640  0.00  0.00    +0.000 HD
ENDBRANCH  18  19
ENDBRANCH  16  18
ENDBRANCH  15  16
ENDBRANCH  14  15
ENDBRANCH   1  14
TORSDOF 6
ENDMDL
