MODEL 1
REMARK VINA RESULT:      -6.2      0.000      0.000
REMARK  Name = 
REMARK  7 active torsions:
REMARK  status: ('A' for Active; 'I' for Inactive)
REMARK    1  A    between atoms: C_1  and  O_2
REMARK    2  A    between atoms: O_2  and  C_3
REMARK    3  A    between atoms: C_7  and  N_8
REMARK    4  A    between atoms: N_8  and  C_9
REMARK    5  A    between atoms: C_9  and  S_14
REMARK    6  A    between atoms: C_10  and  N_11
REMARK    7  A    between atoms: S_14  and  C_15
REMARK                            x       y       z     vdW  Elec       q    Type
REMARK                         _______ _______ _______ _____ _____    ______ ____
ROOT
ATOM      1  N   UNL     1       5.882   3.745  18.162  0.00  0.00    +0.000 N 
ATOM      2  H   UNL     1       6.057   2.797  17.851  0.00  0.00    +0.000 HD
ENDROOT
BRANCH   1   7
ATOM      3  C   UNL     1       2.448   3.262  19.487  0.00  0.00    +0.000 A 
ATOM      4  C   UNL     1       1.760   4.210  18.733  0.00  0.00    +0.000 A 
ATOM      5  C   UNL     1       2.459   5.112  17.932  0.00  0.00    +0.000 A 
ATOM      6  C   UNL     1       3.846   5.005  17.820  0.00  0.00    +0.000 A 
ATOM      7  C   UNL     1       4.546   4.016  18.527  0.00  0.00    +0.000 A 
ATOM      8  C   UNL     1       3.841   3.219  19.440  0.00  0.00    +0.000 A 
BRANCH   3  10
ATOM      9  C   UNL     1       1.563   2.687  21.608  0.00  0.00    +0.000 C 
ATOM     10  O   UNL     1       1.663   2.407  20.213  0.00  0.00    +0.000 OA
ENDBRANCH   3  10
ENDBRANCH   1   7
BRANCH   1  11
ATOM     11  C   UNL     1       6.858   4.669  17.827  0.00  0.00    +0.000 C 
ATOM     12  C   UNL     1       7.345   4.955  16.598  0.00  0.00    +0.000 C 
BRANCH  12  13
ATOM     13  N   UNL     1       6.774   4.490  15.364  0.00  0.00    +0.000 N 
ATOM     14  O   UNL     1       6.052   3.478  15.346  0.00  0.00    +0.000 OA
ATOM     15  O   UNL     1       6.982   5.209  14.376  0.00  0.00    +0.000 OA
ENDBRANCH  12  13
BRANCH  11  16
ATOM     16  S   UNL     1       7.505   5.755  19.078  0.00  0.00    +0.000 S 
ATOM     17  C   UNL     1       7.873   7.258  18.146  0.00  0.00    +0.000 C 
ENDBRANCH  11  16
ENDBRANCH   1  11
TORSDOF 5
ENDMDL
MODEL 2
REMARK VINA RESULT:      -6.1      2.270      2.536
REMARK  Name = 
REMARK  7 active torsions:
REMARK  status: ('A' for Active; 'I' for Inactive)
REMARK    1  A    between atoms: C_1  and  O_2
REMARK    2  A    between atoms: O_2  and  C_3
REMARK    3  A    between atoms: C_7  and  N_8
REMARK    4  A    between atoms: N_8  and  C_9
REMARK    5  A    between atoms: C_9  and  S_14
REMARK    6  A    between atoms: C_10  and  N_11
REMARK    7  A    between atoms: S_14  and  C_15
REMARK                            x       y       z     vdW  Elec       q    Type
REMARK                         _______ _______ _______ _____ _____    ______ ____
ROOT
ATOM      1  N   UNL     1       5.403   3.451  17.073  0.00  0.00    +0.000 N 
ATOM      2  H   UNL     1       5.608   2.477  16.883  0.00  0.00    +0.000 HD
ENDROOT
BRANCH   1   7
ATOM      3  C   UNL     1       3.025   3.181  19.911  0.00  0.00    +0.000 A 
ATOM      4  C   UNL     1       1.844   3.560  19.276  0.00  0.00    +0.000 A 
ATOM      5  C   UNL     1       1.877   4.066  17.977  0.00  0.00    +0.000 A 
ATOM      6  C   UNL     1       3.086   4.111  17.283  0.00  0.00    +0.000 A 
ATOM      7  C   UNL     1       4.274   3.676  17.889  0.00  0.00    +0.000 A 
ATOM      8  C   UNL     1       4.242   3.312  19.242  0.00  0.00    +0.000 A 
BRANCH   3  10
ATOM      9  C   UNL     1       1.550   2.682  21.696  0.00  0.00    +0.000 C 
ATOM     10  O   UNL     1       2.876   2.668  21.171  0.00  0.00    +0.000 OA
ENDBRANCH   3  10
ENDBRANCH   1   7
BRANCH   1  11
ATOM     11  C   UNL     1       6.013   4.361  16.225  0.00  0.00    +0.000 C 
ATOM     12  C   UNL     1       6.897   5.333  16.545  0.00  0.00    +0.000 C 
BRANCH  12  13
ATOM     13  N   UNL     1       7.540   5.465  17.824  0.00  0.00    +0.000 N 
ATOM     14  O   UNL     1       7.943   4.458  18.432  0.00  0.00    +0.000 OA
ATOM     15  O   UNL     1       7.731   6.627  18.207  0.00  0.00    +0.000 OA
ENDBRANCH  12  13
BRANCH  11  16
ATOM     16  S   UNL     1       5.773   4.220  14.468  0.00  0.00    +0.000 S 
ATOM     17  C   UNL     1       7.285   4.951  13.802  0.00  0.00    +0.000 C 
ENDBRANCH  11  16
ENDBRANCH   1  11
TORSDOF 5
ENDMDL
MODEL 3
REMARK VINA RESULT:      -6.1      2.324      2.588
REMARK  Name = 
REMARK  7 active torsions:
REMARK  status: ('A' for Active; 'I' for Inactive)
REMARK    1  A    between atoms: C_1  and  O_2
REMARK    2  A    between atoms: O_2  and  C_3
REMARK    3  A    between atoms: C_7  and  N_8
REMARK    4  A    between atoms: N_8  and  C_9
REMARK    5  A    between atoms: C_9  and  S_14
REMARK    6  A    between atoms: C_10  and  N_11
REMARK    7  A    between atoms: S_14  and  C_15
REMARK                            x       y       z     vdW  Elec       q    Type
REMARK                         _______ _______ _______ _____ _____    ______ ____
ROOT
ATOM      1  N   UNL     1       5.613   3.925  18.464  0.00  0.00    +0.000 N 
ATOM      2  H   UNL     1       6.026   3.083  18.846  0.00  0.00    +0.000 HD
ENDROOT
BRANCH   1   7
ATOM      3  C   UNL     1       2.166   3.200  19.637  0.00  0.00    +0.000 A 
ATOM      4  C   UNL     1       1.431   3.915  18.693  0.00  0.00    +0.000 A 
ATOM      5  C   UNL     1       2.079   4.764  17.797  0.00  0.00    +0.000 A 
ATOM      6  C   UNL     1       3.473   4.829  17.790  0.00  0.00    +0.000 A 
ATOM      7  C   UNL     1       4.228   4.069  18.695  0.00  0.00    +0.000 A 
ATOM      8  C   UNL     1       3.553   3.338  19.683  0.00  0.00    +0.000 A 
BRANCH   3  10
ATOM      9  C   UNL     1       1.613   2.558  21.850  0.00  0.00    +0.000 C 
ATOM     10  O   UNL     1       1.435   2.373  20.447  0.00  0.00    +0.000 OA
ENDBRANCH   3  10
ENDBRANCH   1   7
BRANCH   1  11
ATOM     11  C   UNL     1       6.367   4.570  17.497  0.00  0.00    +0.000 C 
ATOM     12  C   UNL     1       7.228   5.598  17.663  0.00  0.00    +0.000 C 
BRANCH  12  13
ATOM     13  N   UNL     1       7.688   6.082  18.936  0.00  0.00    +0.000 N 
ATOM     14  O   UNL     1       7.472   5.431  19.972  0.00  0.00    +0.000 OA
ATOM     15  O   UNL     1       8.369   7.117  18.898  0.00  0.00    +0.000 OA
ENDBRANCH  12  13
BRANCH  11  16
ATOM     16  S   UNL     1       6.373   3.947  15.830  0.00  0.00    +0.000 S 
ATOM     17  C   UNL     1       5.642   5.310  14.896  0.00  0.00    +0.000 C 
ENDBRANCH  11  16
ENDBRANCH   1  11
TORSDOF 5
ENDMDL
MODEL 4
REMARK VINA RESULT:      -6.1      0.710      1.051
REMARK  Name = 
REMARK  7 active torsions:
REMARK  status: ('A' for Active; 'I' for Inactive)
REMARK    1  A    between atoms: C_1  and  O_2
REMARK    2  A    between atoms: O_2  and  C_3
REMARK    3  A    between atoms: C_7  and  N_8
REMARK    4  A    between atoms: N_8  and  C_9
REMARK    5  A    between atoms: C_9  and  S_14
REMARK    6  A    between atoms: C_10  and  N_11
REMARK    7  A    between atoms: S_14  and  C_15
REMARK                            x       y       z     vdW  Elec       q    Type
REMARK                         _______ _______ _______ _____ _____    ______ ____
ROOT
ATOM      1  N   UNL     1       5.694   3.823  17.807  0.00  0.00    +0.000 N 
ATOM      2  H   UNL     1       5.747   2.922  17.347  0.00  0.00    +0.000 HD
ENDROOT
BRANCH   1   7
ATOM      3  C   UNL     1       2.750   4.077  20.055  0.00  0.00    +0.000 A 
ATOM      4  C   UNL     1       1.739   4.258  19.113  0.00  0.00    +0.000 A 
ATOM      5  C   UNL     1       2.058   4.470  17.773  0.00  0.00    +0.000 A 
ATOM      6  C   UNL     1       3.391   4.414  17.363  0.00  0.00    +0.000 A 
ATOM      7  C   UNL     1       4.415   4.172  18.290  0.00  0.00    +0.000 A 
ATOM      8  C   UNL     1       4.085   4.111  19.652  0.00  0.00    +0.000 A 
BRANCH   3  10
ATOM      9  C   UNL     1       1.391   2.780  21.499  0.00  0.00    +0.000 C 
ATOM     10  O   UNL     1       2.325   3.846  21.335  0.00  0.00    +0.000 OA
ENDBRANCH   3  10
ENDBRANCH   1   7
BRANCH   1  11
ATOM     11  C   UNL     1       6.752   4.680  17.555  0.00  0.00    +0.000 C 
ATOM     12  C   UNL     1       7.317   4.975  16.363  0.00  0.00    +0.000 C 
BRANCH  12  13
ATOM     13  N   UNL     1       6.774   4.602  15.086  0.00  0.00    +0.000 N 
ATOM     14  O   UNL     1       7.008   5.292  14.078  0.00  0.00    +0.000 OA
ATOM     15  O   UNL     1       6.155   3.529  15.062  0.00  0.00    +0.000 OA
ENDBRANCH  12  13
BRANCH  11  16
ATOM     16  S   UNL     1       7.418   5.665  18.879  0.00  0.00    +0.000 S 
ATOM     17  C   UNL     1       7.784   7.233  18.061  0.00  0.00    +0.000 C 
ENDBRANCH  11  16
ENDBRANCH   1  11
TORSDOF 5
ENDMDL
MODEL 5
REMARK VINA RESULT:      -6.0      2.451      2.705
REMARK  Name = 
REMARK  7 active torsions:
REMARK  status: ('A' for Active; 'I' for Inactive)
REMARK    1  A    between atoms: C_1  and  O_2
REMARK    2  A    between atoms: O_2  and  C_3
REMARK    3  A    between atoms: C_7  and  N_8
REMARK    4  A    between atoms: N_8  and  C_9
REMARK    5  A    between atoms: C_9  and  S_14
REMARK    6  A    between atoms: C_10  and  N_11
REMARK    7  A    between atoms: S_14  and  C_15
REMARK                            x       y       z     vdW  Elec       q    Type
REMARK                         _______ _______ _______ _____ _____    ______ ____
ROOT
ATOM      1  N   UNL     1       5.803   3.873  18.561  0.00  0.00    +0.000 N 
ATOM      2  H   UNL     1       6.196   2.954  18.721  0.00  0.00    +0.000 HD
ENDROOT
BRANCH   1   7
ATOM      3  C   UNL     1       2.350   3.435  19.853  0.00  0.00    +0.000 A 
ATOM      4  C   UNL     1       1.975   4.769  20.005  0.00  0.00    +0.000 A 
ATOM      5  C   UNL     1       2.918   5.784  19.850  0.00  0.00    +0.000 A 
ATOM      6  C   UNL     1       4.218   5.466  19.456  0.00  0.00    +0.000 A 
ATOM      7  C   UNL     1       4.594   4.132  19.241  0.00  0.00    +0.000 A 
ATOM      8  C   UNL     1       3.673   3.119  19.547  0.00  0.00    +0.000 A 
BRANCH   3  10
ATOM      9  C   UNL     1       0.649   2.165  18.801  0.00  0.00    +0.000 C 
ATOM     10  O   UNL     1       1.341   2.522  19.997  0.00  0.00    +0.000 OA
ENDBRANCH   3  10
ENDBRANCH   1   7
BRANCH   1  11
ATOM     11  C   UNL     1       6.296   4.545  17.454  0.00  0.00    +0.000 C 
ATOM     12  C   UNL     1       7.123   5.614  17.431  0.00  0.00    +0.000 C 
BRANCH  12  13
ATOM     13  N   UNL     1       7.825   6.130  18.575  0.00  0.00    +0.000 N 
ATOM     14  O   UNL     1       8.087   5.390  19.538  0.00  0.00    +0.000 OA
ATOM     15  O   UNL     1       8.209   7.304  18.479  0.00  0.00    +0.000 OA
ENDBRANCH  12  13
BRANCH  11  16
ATOM     16  S   UNL     1       5.969   3.910  15.825  0.00  0.00    +0.000 S 
ATOM     17  C   UNL     1       7.030   4.934  14.781  0.00  0.00    +0.000 C 
ENDBRANCH  11  16
ENDBRANCH   1  11
TORSDOF 5
ENDMDL
MODEL 6
REMARK VINA RESULT:      -5.9      1.490      1.882
REMARK  Name = 
REMARK  7 active torsions:
REMARK  status: ('A' for Active; 'I' for Inactive)
REMARK    1  A    between atoms: C_1  and  O_2
REMARK    2  A    between atoms: O_2  and  C_3
REMARK    3  A    between atoms: C_7  and  N_8
REMARK    4  A    between atoms: N_8  and  C_9
REMARK    5  A    between atoms: C_9  and  S_14
REMARK    6  A    between atoms: C_10  and  N_11
REMARK    7  A    between atoms: S_14  and  C_15
REMARK                            x       y       z     vdW  Elec       q    Type
REMARK                         _______ _______ _______ _____ _____    ______ ____
ROOT
ATOM      1  N   UNL     1       4.471   4.586  16.832  0.00  0.00    +0.000 N 
ATOM      2  H   UNL     1       4.214   5.219  16.084  0.00  0.00    +0.000 HD
ENDROOT
BRANCH   1   7
ATOM      3  C   UNL     1       1.767   4.081  19.327  0.00  0.00    +0.000 A 
ATOM      4  C   UNL     1       1.677   2.691  19.310  0.00  0.00    +0.000 A 
ATOM      5  C   UNL     1       2.378   1.954  18.357  0.00  0.00    +0.000 A 
ATOM      6  C   UNL     1       3.238   2.606  17.474  0.00  0.00    +0.000 A 
ATOM      7  C   UNL     1       3.386   4.000  17.518  0.00  0.00    +0.000 A 
ATOM      8  C   UNL     1       2.561   4.734  18.383  0.00  0.00    +0.000 A 
BRANCH   3  10
ATOM      9  C   UNL     1       1.594   5.949  20.773  0.00  0.00    +0.000 C 
ATOM     10  O   UNL     1       1.065   4.704  20.322  0.00  0.00    +0.000 OA
ENDBRANCH   3  10
ENDBRANCH   1   7
BRANCH   1  11
ATOM     11  C   UNL     1       5.777   4.696  17.279  0.00  0.00    +0.000 C 
ATOM     12  C   UNL     1       6.915   4.578  16.560  0.00  0.00    +0.000 C 
BRANCH  12  13
ATOM     13  N   UNL     1       6.974   4.525  15.124  0.00  0.00    +0.000 N 
ATOM     14  O   UNL     1       6.275   3.710  14.497  0.00  0.00    +0.000 OA
ATOM     15  O   UNL     1       7.683   5.387  14.587  0.00  0.00    +0.000 OA
ENDBRANCH  12  13
BRANCH  11  16
ATOM     16  S   UNL     1       6.090   5.190  18.960  0.00  0.00    +0.000 S 
ATOM     17  C   UNL     1       7.674   6.050  18.831  0.00  0.00    +0.000 C 
ENDBRANCH  11  16
ENDBRANCH   1  11
TORSDOF 5
ENDMDL
MODEL 7
REMARK VINA RESULT:      -5.9      1.146      1.342
REMARK  Name = 
REMARK  7 active torsions:
REMARK  status: ('A' for Active; 'I' for Inactive)
REMARK    1  A    between atoms: C_1  and  O_2
REMARK    2  A    between atoms: O_2  and  C_3
REMARK    3  A    between atoms: C_7  and  N_8
REMARK    4  A    between atoms: N_8  and  C_9
REMARK    5  A    between atoms: C_9  and  S_14
REMARK    6  A    between atoms: C_10  and  N_11
REMARK    7  A    between atoms: S_14  and  C_15
REMARK                            x       y       z     vdW  Elec       q    Type
REMARK                         _______ _______ _______ _____ _____    ______ ____
ROOT
ATOM      1  N   UNL     1       4.996   5.448  17.128  0.00  0.00    +0.000 N 
ATOM      2  H   UNL     1       4.788   6.383  16.796  0.00  0.00    +0.000 HD
ENDROOT
BRANCH   1   7
ATOM      3  C   UNL     1       2.545   4.172  19.608  0.00  0.00    +0.000 A 
ATOM      4  C   UNL     1       2.171   2.980  18.991  0.00  0.00    +0.000 A 
ATOM      5  C   UNL     1       2.594   2.700  17.692  0.00  0.00    +0.000 A 
ATOM      6  C   UNL     1       3.465   3.577  17.045  0.00  0.00    +0.000 A 
ATOM      7  C   UNL     1       3.898   4.752  17.677  0.00  0.00    +0.000 A 
ATOM      8  C   UNL     1       3.344   5.087  18.921  0.00  0.00    +0.000 A 
BRANCH   3  10
ATOM      9  C   UNL     1       1.766   3.135  21.590  0.00  0.00    +0.000 C 
ATOM     10  O   UNL     1       2.101   4.333  20.893  0.00  0.00    +0.000 OA
ENDBRANCH   3  10
ENDBRANCH   1   7
BRANCH   1  11
ATOM     11  C   UNL     1       6.339   5.173  17.324  0.00  0.00    +0.000 C 
ATOM     12  C   UNL     1       7.227   4.685  16.430  0.00  0.00    +0.000 C 
BRANCH  12  13
ATOM     13  N   UNL     1       6.981   4.557  15.019  0.00  0.00    +0.000 N 
ATOM     14  O   UNL     1       6.106   3.780  14.601  0.00  0.00    +0.000 OA
ATOM     15  O   UNL     1       7.629   5.324  14.294  0.00  0.00    +0.000 OA
ENDBRANCH  12  13
BRANCH  11  16
ATOM     16  S   UNL     1       7.109   5.617  18.866  0.00  0.00    +0.000 S 
ATOM     17  C   UNL     1       8.011   7.123  18.438  0.00  0.00    +0.000 C 
ENDBRANCH  11  16
ENDBRANCH   1  11
TORSDOF 5
ENDMDL
MODEL 8
REMARK VINA RESULT:      -5.8      1.873      2.533
REMARK  Name = 
REMARK  7 active torsions:
REMARK  status: ('A' for Active; 'I' for Inactive)
REMARK    1  A    between atoms: C_1  and  O_2
REMARK    2  A    between atoms: O_2  and  C_3
REMARK    3  A    between atoms: C_7  and  N_8
REMARK    4  A    between atoms: N_8  and  C_9
REMARK    5  A    between atoms: C_9  and  S_14
REMARK    6  A    between atoms: C_10  and  N_11
REMARK    7  A    between atoms: S_14  and  C_15
REMARK                            x       y       z     vdW  Elec       q    Type
REMARK                         _______ _______ _______ _____ _____    ______ ____
ROOT
ATOM      1  N   UNL     1       5.637   3.661  16.923  0.00  0.00    +0.000 N 
ATOM      2  H   UNL     1       5.773   2.746  16.509  0.00  0.00    +0.000 HD
ENDROOT
BRANCH   1   7
ATOM      3  C   UNL     1       2.669   5.600  18.028  0.00  0.00    +0.000 A 
ATOM      4  C   UNL     1       1.780   4.559  18.286  0.00  0.00    +0.000 A 
ATOM      5  C   UNL     1       2.107   3.252  17.926  0.00  0.00    +0.000 A 
ATOM      6  C   UNL     1       3.363   2.977  17.386  0.00  0.00    +0.000 A 
ATOM      7  C   UNL     1       4.292   4.007  17.177  0.00  0.00    +0.000 A 
ATOM      8  C   UNL     1       3.889   5.330  17.406  0.00  0.00    +0.000 A 
BRANCH   3  10
ATOM      9  C   UNL     1       2.913   7.949  17.835  0.00  0.00    +0.000 C 
ATOM     10  O   UNL     1       2.263   6.837  18.449  0.00  0.00    +0.000 OA
ENDBRANCH   3  10
ENDBRANCH   1   7
BRANCH   1  11
ATOM     11  C   UNL     1       6.713   4.526  16.818  0.00  0.00    +0.000 C 
ATOM     12  C   UNL     1       7.291   5.001  15.692  0.00  0.00    +0.000 C 
BRANCH  12  13
ATOM     13  N   UNL     1       6.747   4.858  14.370  0.00  0.00    +0.000 N 
ATOM     14  O   UNL     1       5.598   4.412  14.208  0.00  0.00    +0.000 OA
ATOM     15  O   UNL     1       7.459   5.286  13.451  0.00  0.00    +0.000 OA
ENDBRANCH  12  13
BRANCH  11  16
ATOM     16  S   UNL     1       7.394   5.262  18.288  0.00  0.00    +0.000 S 
ATOM     17  C   UNL     1       7.542   7.003  17.826  0.00  0.00    +0.000 C 
ENDBRANCH  11  16
ENDBRANCH   1  11
TORSDOF 5
ENDMDL
MODEL 9
REMARK VINA RESULT:      -5.8      2.630      3.136
REMARK  Name = 
REMARK  7 active torsions:
REMARK  status: ('A' for Active; 'I' for Inactive)
REMARK    1  A    between atoms: C_1  and  O_2
REMARK    2  A    between atoms: O_2  and  C_3
REMARK    3  A    between atoms: C_7  and  N_8
REMARK    4  A    between atoms: N_8  and  C_9
REMARK    5  A    between atoms: C_9  and  S_14
REMARK    6  A    between atoms: C_10  and  N_11
REMARK    7  A    between atoms: S_14  and  C_15
REMARK                            x       y       z     vdW  Elec       q    Type
REMARK                         _______ _______ _______ _____ _____    ______ ____
ROOT
ATOM      1  N   UNL     1       5.482   3.755  18.681  0.00  0.00    +0.000 N 
ATOM      2  H   UNL     1       6.047   3.033  19.113  0.00  0.00    +0.000 HD
ENDROOT
BRANCH   1   7
ATOM      3  C   UNL     1       2.139   4.535  20.097  0.00  0.00    +0.000 A 
ATOM      4  C   UNL     1       1.553   3.272  20.049  0.00  0.00    +0.000 A 
ATOM      5  C   UNL     1       2.198   2.224  19.393  0.00  0.00    +0.000 A 
ATOM      6  C   UNL     1       3.471   2.422  18.859  0.00  0.00    +0.000 A 
ATOM      7  C   UNL     1       4.099   3.673  18.953  0.00  0.00    +0.000 A 
ATOM      8  C   UNL     1       3.374   4.749  19.483  0.00  0.00    +0.000 A 
BRANCH   3  10
ATOM      9  C   UNL     1       1.807   6.838  20.546  0.00  0.00    +0.000 C 
ATOM     10  O   UNL     1       1.437   5.482  20.792  0.00  0.00    +0.000 OA
ENDBRANCH   3  10
ENDBRANCH   1   7
BRANCH   1  11
ATOM     11  C   UNL     1       6.087   4.439  17.640  0.00  0.00    +0.000 C 
ATOM     12  C   UNL     1       6.924   5.497  17.715  0.00  0.00    +0.000 C 
BRANCH  12  13
ATOM     13  N   UNL     1       7.518   5.986  18.929  0.00  0.00    +0.000 N 
ATOM     14  O   UNL     1       7.302   5.411  20.010  0.00  0.00    +0.000 OA
ATOM     15  O   UNL     1       8.304   6.934  18.794  0.00  0.00    +0.000 OA
ENDBRANCH  12  13
BRANCH  11  16
ATOM     16  S   UNL     1       5.912   3.834  15.975  0.00  0.00    +0.000 S 
ATOM     17  C   UNL     1       5.907   5.356  15.001  0.00  0.00    +0.000 C 
ENDBRANCH  11  16
ENDBRANCH   1  11
TORSDOF 5
ENDMDL
