MODEL 1
REMARK VINA RESULT:      -7.6      0.000      0.000
REMARK  Name = 
REMARK  9 active torsions:
REMARK  status: ('A' for Active; 'I' for Inactive)
REMARK    1  A    between atoms: C_1  and  C_2
REMARK    2  A    between atoms: C_2  and  O_3
REMARK    3  A    between atoms: O_3  and  C_4
REMARK    4  A    between atoms: C_7  and  O_8
REMARK    5  A    between atoms: O_8  and  C_9
REMARK    6  A    between atoms: C_9  and  C_10
REMARK    7  A    between atoms: C_10  and  C_11
REMARK    8  A    between atoms: N_13  and  C_14
REMARK    9  A    between atoms: C_20  and  C_21
REMARK                            x       y       z     vdW  Elec       q    Type
REMARK                         _______ _______ _______ _____ _____    ______ ____
ROOT
ATOM      1  C   UNL     1       6.897   6.109  17.457  0.00  0.00    +0.000 C 
ENDROOT
BRANCH   1   2
ATOM      2  C   UNL     1       5.942   5.366  18.367  0.00  0.00    +0.000 C 
ATOM      3  O   UNL     1       6.380   4.718  19.319  0.00  0.00    +0.000 OA
ATOM      4  N   UNL     1       4.600   5.471  18.036  0.00  0.00    +0.000 N 
ATOM      5  H   UNL     1       4.373   5.841  17.122  0.00  0.00    +0.000 HD
BRANCH   4   6
ATOM      6  C   UNL     1       3.537   4.900  18.793  0.00  0.00    +0.000 A 
ATOM      7  C   UNL     1       3.142   5.462  20.023  0.00  0.00    +0.000 A 
ATOM      8  C   UNL     1       2.143   4.888  20.805  0.00  0.00    +0.000 A 
ATOM      9  C   UNL     1       1.498   3.754  20.348  0.00  0.00    +0.000 A 
ATOM     10  F   UNL     1       0.543   3.189  21.095  0.00  0.00    +0.000 F 
ATOM     11  C   UNL     1       1.831   3.197  19.117  0.00  0.00    +0.000 A 
ATOM     12  C   UNL     1       2.857   3.755  18.327  0.00  0.00    +0.000 A 
ATOM     13  C   UNL     1       3.181   3.080  17.023  0.00  0.00    +0.000 C 
ENDBRANCH   4   6
ENDBRANCH   1   2
BRANCH   1  14
ATOM     14  C   UNL     1       7.508   5.083  16.494  0.00  0.00    +0.000 C 
BRANCH  14  15
ATOM     15  O   UNL     1       7.729   5.646  15.201  0.00  0.00    +0.000 OA
BRANCH  15  19
ATOM     16  C   UNL     1       5.738   3.513  12.201  0.00  0.00    +0.000 A 
ATOM     17  C   UNL     1       5.242   3.602  13.502  0.00  0.00    +0.000 A 
ATOM     18  C   UNL     1       5.932   4.326  14.480  0.00  0.00    +0.000 A 
ATOM     19  C   UNL     1       7.147   4.938  14.175  0.00  0.00    +0.000 A 
ATOM     20  C   UNL     1       7.659   4.823  12.879  0.00  0.00    +0.000 A 
ATOM     21  C   UNL     1       6.962   4.105  11.896  0.00  0.00    +0.000 A 
BRANCH  16  22
ATOM     22  O   UNL     1       4.955   2.819  11.322  0.00  0.00    +0.000 OA
BRANCH  22  24
ATOM     23  C   UNL     1       3.323   3.934   9.990  0.00  0.00    +0.000 C 
ATOM     24  C   UNL     1       3.573   3.181  11.286  0.00  0.00    +0.000 C 
ENDBRANCH  22  24
ENDBRANCH  16  22
ENDBRANCH  15  19
ENDBRANCH  14  15
ENDBRANCH   1  14
TORSDOF 7
ENDMDL
MODEL 2
REMARK VINA RESULT:      -7.6      0.868      1.758
REMARK  Name = 
REMARK  9 active torsions:
REMARK  status: ('A' for Active; 'I' for Inactive)
REMARK    1  A    between atoms: C_1  and  C_2
REMARK    2  A    between atoms: C_2  and  O_3
REMARK    3  A    between atoms: O_3  and  C_4
REMARK    4  A    between atoms: C_7  and  O_8
REMARK    5  A    between atoms: O_8  and  C_9
REMARK    6  A    between atoms: C_9  and  C_10
REMARK    7  A    between atoms: C_10  and  C_11
REMARK    8  A    between atoms: N_13  and  C_14
REMARK    9  A    between atoms: C_20  and  C_21
REMARK                            x       y       z     vdW  Elec       q    Type
REMARK                         _______ _______ _______ _____ _____    ______ ____
ROOT
ATOM      1  C   UNL     1       7.370   5.830  17.874  0.00  0.00    +0.000 C 
ENDROOT
BRANCH   1   2
ATOM      2  C   UNL     1       6.221   5.165  18.603  0.00  0.00    +0.000 C 
ATOM      3  O   UNL     1       6.328   4.897  19.801  0.00  0.00    +0.000 OA
ATOM      4  N   UNL     1       5.105   4.889  17.831  0.00  0.00    +0.000 N 
ATOM      5  H   UNL     1       5.207   4.949  16.826  0.00  0.00    +0.000 HD
BRANCH   4   6
ATOM      6  C   UNL     1       3.898   4.321  18.332  0.00  0.00    +0.000 A 
ATOM      7  C   UNL     1       3.743   2.925  18.434  0.00  0.00    +0.000 A 
ATOM      8  C   UNL     1       2.553   2.348  18.869  0.00  0.00    +0.000 A 
ATOM      9  C   UNL     1       1.505   3.167  19.242  0.00  0.00    +0.000 A 
ATOM     10  F   UNL     1       0.353   2.624  19.653  0.00  0.00    +0.000 F 
ATOM     11  C   UNL     1       1.637   4.552  19.197  0.00  0.00    +0.000 A 
ATOM     12  C   UNL     1       2.829   5.148  18.736  0.00  0.00    +0.000 A 
ATOM     13  C   UNL     1       2.886   6.650  18.688  0.00  0.00    +0.000 C 
ENDBRANCH   4   6
ENDBRANCH   1   2
BRANCH   1  14
ATOM     14  C   UNL     1       6.873   6.201  16.472  0.00  0.00    +0.000 C 
BRANCH  14  15
ATOM     15  O   UNL     1       7.681   5.606  15.457  0.00  0.00    +0.000 OA
BRANCH  15  19
ATOM     16  C   UNL     1       5.720   3.584  12.362  0.00  0.00    +0.000 A 
ATOM     17  C   UNL     1       6.976   4.166  12.189  0.00  0.00    +0.000 A 
ATOM     18  C   UNL     1       7.604   4.832  13.246  0.00  0.00    +0.000 A 
ATOM     19  C   UNL     1       6.965   4.956  14.479  0.00  0.00    +0.000 A 
ATOM     20  C   UNL     1       5.693   4.398  14.643  0.00  0.00    +0.000 A 
ATOM     21  C   UNL     1       5.067   3.721  13.586  0.00  0.00    +0.000 A 
BRANCH  16  22
ATOM     22  O   UNL     1       5.227   2.920  11.274  0.00  0.00    +0.000 OA
BRANCH  22  24
ATOM     23  C   UNL     1       3.377   3.919  10.152  0.00  0.00    +0.000 C 
ATOM     24  C   UNL     1       3.804   2.865  11.159  0.00  0.00    +0.000 C 
ENDBRANCH  22  24
ENDBRANCH  16  22
ENDBRANCH  15  19
ENDBRANCH  14  15
ENDBRANCH   1  14
TORSDOF 7
ENDMDL
MODEL 3
REMARK VINA RESULT:      -7.3      1.415      2.128
REMARK  Name = 
REMARK  9 active torsions:
REMARK  status: ('A' for Active; 'I' for Inactive)
REMARK    1  A    between atoms: C_1  and  C_2
REMARK    2  A    between atoms: C_2  and  O_3
REMARK    3  A    between atoms: O_3  and  C_4
REMARK    4  A    between atoms: C_7  and  O_8
REMARK    5  A    between atoms: O_8  and  C_9
REMARK    6  A    between atoms: C_9  and  C_10
REMARK    7  A    between atoms: C_10  and  C_11
REMARK    8  A    between atoms: N_13  and  C_14
REMARK    9  A    between atoms: C_20  and  C_21
REMARK                            x       y       z     vdW  Elec       q    Type
REMARK                         _______ _______ _______ _____ _____    ______ ____
ROOT
ATOM      1  C   UNL     1       7.327   5.004  17.751  0.00  0.00    +0.000 C 
ENDROOT
BRANCH   1   2
ATOM      2  C   UNL     1       6.062   4.587  18.473  0.00  0.00    +0.000 C 
ATOM      3  O   UNL     1       5.968   4.751  19.690  0.00  0.00    +0.000 OA
ATOM      4  N   UNL     1       5.080   4.022  17.675  0.00  0.00    +0.000 N 
ATOM      5  H   UNL     1       5.345   3.737  16.741  0.00  0.00    +0.000 HD
BRANCH   4   6
ATOM      6  C   UNL     1       3.797   3.617  18.143  0.00  0.00    +0.000 A 
ATOM      7  C   UNL     1       3.552   2.281  18.517  0.00  0.00    +0.000 A 
ATOM      8  C   UNL     1       2.291   1.852  18.924  0.00  0.00    +0.000 A 
ATOM      9  C   UNL     1       1.258   2.768  18.995  0.00  0.00    +0.000 A 
ATOM     10  F   UNL     1       0.041   2.366  19.375  0.00  0.00    +0.000 F 
ATOM     11  C   UNL     1       1.475   4.105  18.676  0.00  0.00    +0.000 A 
ATOM     12  C   UNL     1       2.741   4.547  18.240  0.00  0.00    +0.000 A 
ATOM     13  C   UNL     1       2.890   6.001  17.884  0.00  0.00    +0.000 C 
ENDBRANCH   4   6
ENDBRANCH   1   2
BRANCH   1  14
ATOM     14  C   UNL     1       6.926   5.999  16.656  0.00  0.00    +0.000 C 
BRANCH  14  15
ATOM     15  O   UNL     1       7.704   5.815  15.473  0.00  0.00    +0.000 OA
BRANCH  15  19
ATOM     16  C   UNL     1       5.965   3.661  12.336  0.00  0.00    +0.000 A 
ATOM     17  C   UNL     1       7.165   4.355  12.183  0.00  0.00    +0.000 A 
ATOM     18  C   UNL     1       7.720   5.063  13.254  0.00  0.00    +0.000 A 
ATOM     19  C   UNL     1       7.060   5.115  14.481  0.00  0.00    +0.000 A 
ATOM     20  C   UNL     1       5.841   4.443  14.624  0.00  0.00    +0.000 A 
ATOM     21  C   UNL     1       5.290   3.726  13.553  0.00  0.00    +0.000 A 
BRANCH  16  22
ATOM     22  O   UNL     1       5.545   2.968  11.235  0.00  0.00    +0.000 OA
BRANCH  22  24
ATOM     23  C   UNL     1       6.894   1.030  10.918  0.00  0.00    +0.000 C 
ATOM     24  C   UNL     1       5.532   1.544  11.352  0.00  0.00    +0.000 C 
ENDBRANCH  22  24
ENDBRANCH  16  22
ENDBRANCH  15  19
ENDBRANCH  14  15
ENDBRANCH   1  14
TORSDOF 7
ENDMDL
MODEL 4
REMARK VINA RESULT:      -7.2      3.018      4.658
REMARK  Name = 
REMARK  9 active torsions:
REMARK  status: ('A' for Active; 'I' for Inactive)
REMARK    1  A    between atoms: C_1  and  C_2
REMARK    2  A    between atoms: C_2  and  O_3
REMARK    3  A    between atoms: O_3  and  C_4
REMARK    4  A    between atoms: C_7  and  O_8
REMARK    5  A    between atoms: O_8  and  C_9
REMARK    6  A    between atoms: C_9  and  C_10
REMARK    7  A    between atoms: C_10  and  C_11
REMARK    8  A    between atoms: N_13  and  C_14
REMARK    9  A    between atoms: C_20  and  C_21
REMARK                            x       y       z     vdW  Elec       q    Type
REMARK                         _______ _______ _______ _____ _____    ______ ____
ROOT
ATOM      1  C   UNL     1       2.881   3.537  20.706  0.00  0.00    +0.000 C 
ENDROOT
BRANCH   1   2
ATOM      2  C   UNL     1       2.142   4.731  20.137  0.00  0.00    +0.000 C 
ATOM      3  O   UNL     1       1.200   4.558  19.362  0.00  0.00    +0.000 OA
ATOM      4  N   UNL     1       2.611   5.970  20.541  0.00  0.00    +0.000 N 
ATOM      5  H   UNL     1       3.513   6.001  20.998  0.00  0.00    +0.000 HD
BRANCH   4   6
ATOM      6  C   UNL     1       2.024   7.214  20.171  0.00  0.00    +0.000 A 
ATOM      7  C   UNL     1       1.165   7.899  21.053  0.00  0.00    +0.000 A 
ATOM      8  C   UNL     1       0.537   9.088  20.690  0.00  0.00    +0.000 A 
ATOM      9  C   UNL     1       0.787   9.628  19.443  0.00  0.00    +0.000 A 
ATOM     10  F   UNL     1       0.181  10.765  19.080  0.00  0.00    +0.000 F 
ATOM     11  C   UNL     1       1.664   9.002  18.562  0.00  0.00    +0.000 A 
ATOM     12  C   UNL     1       2.288   7.786  18.909  0.00  0.00    +0.000 A 
ATOM     13  C   UNL     1       3.200   7.154  17.893  0.00  0.00    +0.000 C 
ENDBRANCH   4   6
ENDBRANCH   1   2
BRANCH   1  14
ATOM     14  C   UNL     1       3.973   3.150  19.701  0.00  0.00    +0.000 C 
BRANCH  14  15
ATOM     15  O   UNL     1       4.821   4.257  19.399  0.00  0.00    +0.000 OA
BRANCH  15  19
ATOM     16  C   UNL     1       6.379   4.323  15.516  0.00  0.00    +0.000 A 
ATOM     17  C   UNL     1       7.159   4.620  16.633  0.00  0.00    +0.000 A 
ATOM     18  C   UNL     1       6.607   4.586  17.918  0.00  0.00    +0.000 A 
ATOM     19  C   UNL     1       5.256   4.290  18.095  0.00  0.00    +0.000 A 
ATOM     20  C   UNL     1       4.467   4.022  16.971  0.00  0.00    +0.000 A 
ATOM     21  C   UNL     1       5.024   4.047  15.684  0.00  0.00    +0.000 A 
BRANCH  16  22
ATOM     22  O   UNL     1       7.039   4.344  14.319  0.00  0.00    +0.000 OA
BRANCH  22  24
ATOM     23  C   UNL     1       7.112   4.134  11.947  0.00  0.00    +0.000 C 
ATOM     24  C   UNL     1       6.348   3.769  13.208  0.00  0.00    +0.000 C 
ENDBRANCH  22  24
ENDBRANCH  16  22
ENDBRANCH  15  19
ENDBRANCH  14  15
ENDBRANCH   1  14
TORSDOF 7
ENDMDL
MODEL 5
REMARK VINA RESULT:      -7.2      1.110      1.289
REMARK  Name = 
REMARK  9 active torsions:
REMARK  status: ('A' for Active; 'I' for Inactive)
REMARK    1  A    between atoms: C_1  and  C_2
REMARK    2  A    between atoms: C_2  and  O_3
REMARK    3  A    between atoms: O_3  and  C_4
REMARK    4  A    between atoms: C_7  and  O_8
REMARK    5  A    between atoms: O_8  and  C_9
REMARK    6  A    between atoms: C_9  and  C_10
REMARK    7  A    between atoms: C_10  and  C_11
REMARK    8  A    between atoms: N_13  and  C_14
REMARK    9  A    between atoms: C_20  and  C_21
REMARK                            x       y       z     vdW  Elec       q    Type
REMARK                         _______ _______ _______ _____ _____    ______ ____
ROOT
ATOM      1  C   UNL     1       6.238   6.368  17.510  0.00  0.00    +0.000 C 
ENDROOT
BRANCH   1   2
ATOM      2  C   UNL     1       5.478   5.590  18.564  0.00  0.00    +0.000 C 
ATOM      3  O   UNL     1       6.019   5.323  19.639  0.00  0.00    +0.000 OA
ATOM      4  N   UNL     1       4.190   5.216  18.216  0.00  0.00    +0.000 N 
ATOM      5  H   UNL     1       3.929   5.294  17.242  0.00  0.00    +0.000 HD
BRANCH   4   6
ATOM      6  C   UNL     1       3.289   4.532  19.081  0.00  0.00    +0.000 A 
ATOM      7  C   UNL     1       2.680   5.197  20.163  0.00  0.00    +0.000 A 
ATOM      8  C   UNL     1       1.838   4.534  21.053  0.00  0.00    +0.000 A 
ATOM      9  C   UNL     1       1.568   3.193  20.852  0.00  0.00    +0.000 A 
ATOM     10  F   UNL     1       0.769   2.544  21.706  0.00  0.00    +0.000 F 
ATOM     11  C   UNL     1       2.117   2.515  19.768  0.00  0.00    +0.000 A 
ATOM     12  C   UNL     1       2.988   3.169  18.874  0.00  0.00    +0.000 A 
ATOM     13  C   UNL     1       3.566   2.362  17.744  0.00  0.00    +0.000 C 
ENDBRANCH   4   6
ENDBRANCH   1   2
BRANCH   1  14
ATOM     14  C   UNL     1       7.190   5.390  16.811  0.00  0.00    +0.000 C 
BRANCH  14  15
ATOM     15  O   UNL     1       7.590   5.875  15.530  0.00  0.00    +0.000 OA
BRANCH  15  19
ATOM     16  C   UNL     1       5.949   3.571  12.446  0.00  0.00    +0.000 A 
ATOM     17  C   UNL     1       5.450   3.531  13.748  0.00  0.00    +0.000 A 
ATOM     18  C   UNL     1       6.021   4.317  14.754  0.00  0.00    +0.000 A 
ATOM     19  C   UNL     1       7.123   5.124  14.476  0.00  0.00    +0.000 A 
ATOM     20  C   UNL     1       7.641   5.141  13.177  0.00  0.00    +0.000 A 
ATOM     21  C   UNL     1       7.063   4.360  12.167  0.00  0.00    +0.000 A 
BRANCH  16  22
ATOM     22  O   UNL     1       5.282   2.797  11.539  0.00  0.00    +0.000 OA
BRANCH  22  24
ATOM     23  C   UNL     1       7.285   1.606  11.044  0.00  0.00    +0.000 C 
ATOM     24  C   UNL     1       5.799   1.481  11.330  0.00  0.00    +0.000 C 
ENDBRANCH  22  24
ENDBRANCH  16  22
ENDBRANCH  15  19
ENDBRANCH  14  15
ENDBRANCH   1  14
TORSDOF 7
ENDMDL
MODEL 6
REMARK VINA RESULT:      -7.1      3.122      6.698
REMARK  Name = 
REMARK  9 active torsions:
REMARK  status: ('A' for Active; 'I' for Inactive)
REMARK    1  A    between atoms: C_1  and  C_2
REMARK    2  A    between atoms: C_2  and  O_3
REMARK    3  A    between atoms: O_3  and  C_4
REMARK    4  A    between atoms: C_7  and  O_8
REMARK    5  A    between atoms: O_8  and  C_9
REMARK    6  A    between atoms: C_9  and  C_10
REMARK    7  A    between atoms: C_10  and  C_11
REMARK    8  A    between atoms: N_13  and  C_14
REMARK    9  A    between atoms: C_20  and  C_21
REMARK                            x       y       z     vdW  Elec       q    Type
REMARK                         _______ _______ _______ _____ _____    ______ ____
ROOT
ATOM      1  C   UNL     1       7.268   6.389  17.607  0.00  0.00    +0.000 C 
ENDROOT
BRANCH   1   2
ATOM      2  C   UNL     1       7.268   5.358  16.497  0.00  0.00    +0.000 C 
ATOM      3  O   UNL     1       7.872   4.295  16.648  0.00  0.00    +0.000 OA
ATOM      4  N   UNL     1       6.572   5.713  15.354  0.00  0.00    +0.000 N 
ATOM      5  H   UNL     1       6.303   6.684  15.254  0.00  0.00    +0.000 HD
BRANCH   4   6
ATOM      6  C   UNL     1       6.399   4.867  14.220  0.00  0.00    +0.000 A 
ATOM      7  C   UNL     1       5.313   3.973  14.144  0.00  0.00    +0.000 A 
ATOM      8  C   UNL     1       5.156   3.099  13.072  0.00  0.00    +0.000 A 
ATOM      9  C   UNL     1       6.072   3.130  12.038  0.00  0.00    +0.000 A 
ATOM     10  F   UNL     1       5.937   2.288  11.008  0.00  0.00    +0.000 F 
ATOM     11  C   UNL     1       7.133   4.031  12.058  0.00  0.00    +0.000 A 
ATOM     12  C   UNL     1       7.316   4.905  13.149  0.00  0.00    +0.000 A 
ATOM     13  C   UNL     1       8.502   5.829  13.113  0.00  0.00    +0.000 C 
ENDBRANCH   4   6
ENDBRANCH   1   2
BRANCH   1  14
ATOM     14  C   UNL     1       7.487   5.644  18.929  0.00  0.00    +0.000 C 
BRANCH  14  15
ATOM     15  O   UNL     1       6.331   5.712  19.764  0.00  0.00    +0.000 OA
BRANCH  15  19
ATOM     16  C   UNL     1       2.903   4.002  18.081  0.00  0.00    +0.000 A 
ATOM     17  C   UNL     1       4.008   3.237  18.452  0.00  0.00    +0.000 A 
ATOM     18  C   UNL     1       5.137   3.841  19.014  0.00  0.00    +0.000 A 
ATOM     19  C   UNL     1       5.187   5.224  19.178  0.00  0.00    +0.000 A 
ATOM     20  C   UNL     1       4.090   5.994  18.778  0.00  0.00    +0.000 A 
ATOM     21  C   UNL     1       2.955   5.388  18.223  0.00  0.00    +0.000 A 
BRANCH  16  22
ATOM     22  O   UNL     1       1.841   3.298  17.586  0.00  0.00    +0.000 OA
BRANCH  22  24
ATOM     23  C   UNL     1       0.723   3.078  19.679  0.00  0.00    +0.000 C 
ATOM     24  C   UNL     1       1.257   2.336  18.466  0.00  0.00    +0.000 C 
ENDBRANCH  22  24
ENDBRANCH  16  22
ENDBRANCH  15  19
ENDBRANCH  14  15
ENDBRANCH   1  14
TORSDOF 7
ENDMDL
MODEL 7
REMARK VINA RESULT:      -7.1      3.177      7.056
REMARK  Name = 
REMARK  9 active torsions:
REMARK  status: ('A' for Active; 'I' for Inactive)
REMARK    1  A    between atoms: C_1  and  C_2
REMARK    2  A    between atoms: C_2  and  O_3
REMARK    3  A    between atoms: O_3  and  C_4
REMARK    4  A    between atoms: C_7  and  O_8
REMARK    5  A    between atoms: O_8  and  C_9
REMARK    6  A    between atoms: C_9  and  C_10
REMARK    7  A    between atoms: C_10  and  C_11
REMARK    8  A    between atoms: N_13  and  C_14
REMARK    9  A    between atoms: C_20  and  C_21
REMARK                            x       y       z     vdW  Elec       q    Type
REMARK                         _______ _______ _______ _____ _____    ______ ____
ROOT
ATOM      1  C   UNL     1       7.459   6.571  17.427  0.00  0.00    +0.000 C 
ENDROOT
BRANCH   1   2
ATOM      2  C   UNL     1       7.383   5.475  16.384  0.00  0.00    +0.000 C 
ATOM      3  O   UNL     1       7.902   4.380  16.606  0.00  0.00    +0.000 OA
ATOM      4  N   UNL     1       6.721   5.810  15.214  0.00  0.00    +0.000 N 
ATOM      5  H   UNL     1       6.529   6.790  15.051  0.00  0.00    +0.000 HD
BRANCH   4   6
ATOM      6  C   UNL     1       6.488   4.911  14.134  0.00  0.00    +0.000 A 
ATOM      7  C   UNL     1       5.389   4.030  14.151  0.00  0.00    +0.000 A 
ATOM      8  C   UNL     1       5.174   3.105  13.132  0.00  0.00    +0.000 A 
ATOM      9  C   UNL     1       6.044   3.070  12.059  0.00  0.00    +0.000 A 
ATOM     10  F   UNL     1       5.853   2.179  11.080  0.00  0.00    +0.000 F 
ATOM     11  C   UNL     1       7.117   3.955  11.988  0.00  0.00    +0.000 A 
ATOM     12  C   UNL     1       7.358   4.880  13.024  0.00  0.00    +0.000 A 
ATOM     13  C   UNL     1       8.554   5.783  12.890  0.00  0.00    +0.000 C 
ENDBRANCH   4   6
ENDBRANCH   1   2
BRANCH   1  14
ATOM     14  C   UNL     1       6.158   6.525  18.238  0.00  0.00    +0.000 C 
BRANCH  14  15
ATOM     15  O   UNL     1       5.018   6.384  17.391  0.00  0.00    +0.000 OA
BRANCH  15  19
ATOM     16  C   UNL     1       2.423   3.440  18.844  0.00  0.00    +0.000 A 
ATOM     17  C   UNL     1       3.785   3.203  18.657  0.00  0.00    +0.000 A 
ATOM     18  C   UNL     1       4.624   4.211  18.172  0.00  0.00    +0.000 A 
ATOM     19  C   UNL     1       4.103   5.458  17.832  0.00  0.00    +0.000 A 
ATOM     20  C   UNL     1       2.732   5.686  17.992  0.00  0.00    +0.000 A 
ATOM     21  C   UNL     1       1.892   4.678  18.488  0.00  0.00    +0.000 A 
BRANCH  16  22
ATOM     22  O   UNL     1       1.713   2.397  19.367  0.00  0.00    +0.000 OA
BRANCH  22  24
ATOM     23  C   UNL     1       2.036   2.761  21.699  0.00  0.00    +0.000 C 
ATOM     24  C   UNL     1       1.011   2.657  20.583  0.00  0.00    +0.000 C 
ENDBRANCH  22  24
ENDBRANCH  16  22
ENDBRANCH  15  19
ENDBRANCH  14  15
ENDBRANCH   1  14
TORSDOF 7
ENDMDL
MODEL 8
REMARK VINA RESULT:      -7.0      3.179      7.206
REMARK  Name = 
REMARK  9 active torsions:
REMARK  status: ('A' for Active; 'I' for Inactive)
REMARK    1  A    between atoms: C_1  and  C_2
REMARK    2  A    between atoms: C_2  and  O_3
REMARK    3  A    between atoms: O_3  and  C_4
REMARK    4  A    between atoms: C_7  and  O_8
REMARK    5  A    between atoms: O_8  and  C_9
REMARK    6  A    between atoms: C_9  and  C_10
REMARK    7  A    between atoms: C_10  and  C_11
REMARK    8  A    between atoms: N_13  and  C_14
REMARK    9  A    between atoms: C_20  and  C_21
REMARK                            x       y       z     vdW  Elec       q    Type
REMARK                         _______ _______ _______ _____ _____    ______ ____
ROOT
ATOM      1  C   UNL     1       7.233   6.629  17.368  0.00  0.00    +0.000 C 
ENDROOT
BRANCH   1   2
ATOM      2  C   UNL     1       7.189   5.496  16.363  0.00  0.00    +0.000 C 
ATOM      3  O   UNL     1       7.591   4.377  16.683  0.00  0.00    +0.000 OA
ATOM      4  N   UNL     1       6.693   5.828  15.113  0.00  0.00    +0.000 N 
ATOM      5  H   UNL     1       6.599   6.811  14.894  0.00  0.00    +0.000 HD
BRANCH   4   6
ATOM      6  C   UNL     1       6.512   4.901  14.046  0.00  0.00    +0.000 A 
ATOM      7  C   UNL     1       5.439   3.989  14.054  0.00  0.00    +0.000 A 
ATOM      8  C   UNL     1       5.276   3.039  13.050  0.00  0.00    +0.000 A 
ATOM      9  C   UNL     1       6.173   3.008  11.999  0.00  0.00    +0.000 A 
ATOM     10  F   UNL     1       6.032   2.093  11.034  0.00  0.00    +0.000 F 
ATOM     11  C   UNL     1       7.220   3.923  11.935  0.00  0.00    +0.000 A 
ATOM     12  C   UNL     1       7.409   4.875  12.958  0.00  0.00    +0.000 A 
ATOM     13  C   UNL     1       8.581   5.810  12.834  0.00  0.00    +0.000 C 
ENDBRANCH   4   6
ENDBRANCH   1   2
BRANCH   1  14
ATOM     14  C   UNL     1       5.794   7.116  17.577  0.00  0.00    +0.000 C 
BRANCH  14  15
ATOM     15  O   UNL     1       4.866   6.345  16.814  0.00  0.00    +0.000 OA
BRANCH  15  19
ATOM     16  C   UNL     1       1.930   4.555  19.200  0.00  0.00    +0.000 A 
ATOM     17  C   UNL     1       2.383   5.854  19.430  0.00  0.00    +0.000 A 
ATOM     18  C   UNL     1       3.364   6.423  18.611  0.00  0.00    +0.000 A 
ATOM     19  C   UNL     1       3.930   5.683  17.574  0.00  0.00    +0.000 A 
ATOM     20  C   UNL     1       3.497   4.370  17.363  0.00  0.00    +0.000 A 
ATOM     21  C   UNL     1       2.506   3.804  18.177  0.00  0.00    +0.000 A 
BRANCH  16  22
ATOM     22  O   UNL     1       0.937   4.124  20.034  0.00  0.00    +0.000 OA
BRANCH  22  24
ATOM     23  C   UNL     1       2.094   2.969  21.768  0.00  0.00    +0.000 C 
ATOM     24  C   UNL     1       1.117   2.831  20.613  0.00  0.00    +0.000 C 
ENDBRANCH  22  24
ENDBRANCH  16  22
ENDBRANCH  15  19
ENDBRANCH  14  15
ENDBRANCH   1  14
TORSDOF 7
ENDMDL
MODEL 9
REMARK VINA RESULT:      -7.0      3.261      6.704
REMARK  Name = 
REMARK  9 active torsions:
REMARK  status: ('A' for Active; 'I' for Inactive)
REMARK    1  A    between atoms: C_1  and  C_2
REMARK    2  A    between atoms: C_2  and  O_3
REMARK    3  A    between atoms: O_3  and  C_4
REMARK    4  A    between atoms: C_7  and  O_8
REMARK    5  A    between atoms: O_8  and  C_9
REMARK    6  A    between atoms: C_9  and  C_10
REMARK    7  A    between atoms: C_10  and  C_11
REMARK    8  A    between atoms: N_13  and  C_14
REMARK    9  A    between atoms: C_20  and  C_21
REMARK                            x       y       z     vdW  Elec       q    Type
REMARK                         _______ _______ _______ _____ _____    ______ ____
ROOT
ATOM      1  C   UNL     1       7.600   6.641  18.079  0.00  0.00    +0.000 C 
ENDROOT
BRANCH   1   2
ATOM      2  C   UNL     1       7.026   6.337  16.710  0.00  0.00    +0.000 C 
ATOM      3  O   UNL     1       6.110   7.029  16.262  0.00  0.00    +0.000 OA
ATOM      4  N   UNL     1       7.591   5.256  16.054  0.00  0.00    +0.000 N 
ATOM      5  H   UNL     1       8.175   4.634  16.597  0.00  0.00    +0.000 HD
BRANCH   4   6
ATOM      6  C   UNL     1       7.239   4.839  14.738  0.00  0.00    +0.000 A 
ATOM      7  C   UNL     1       7.951   5.307  13.616  0.00  0.00    +0.000 A 
ATOM      8  C   UNL     1       7.589   4.956  12.318  0.00  0.00    +0.000 A 
ATOM      9  C   UNL     1       6.521   4.100  12.125  0.00  0.00    +0.000 A 
ATOM     10  F   UNL     1       6.158   3.763  10.882  0.00  0.00    +0.000 F 
ATOM     11  C   UNL     1       5.822   3.582  13.212  0.00  0.00    +0.000 A 
ATOM     12  C   UNL     1       6.165   3.949  14.530  0.00  0.00    +0.000 A 
ATOM     13  C   UNL     1       5.344   3.372  15.651  0.00  0.00    +0.000 C 
ENDBRANCH   4   6
ENDBRANCH   1   2
BRANCH   1  14
ATOM     14  C   UNL     1       7.328   5.425  18.973  0.00  0.00    +0.000 C 
BRANCH  14  15
ATOM     15  O   UNL     1       6.172   5.623  19.787  0.00  0.00    +0.000 OA
BRANCH  15  19
ATOM     16  C   UNL     1       2.673   3.932  18.234  0.00  0.00    +0.000 A 
ATOM     17  C   UNL     1       3.729   3.151  18.704  0.00  0.00    +0.000 A 
ATOM     18  C   UNL     1       4.883   3.750  19.219  0.00  0.00    +0.000 A 
ATOM     19  C   UNL     1       5.009   5.138  19.235  0.00  0.00    +0.000 A 
ATOM     20  C   UNL     1       3.961   5.919  18.736  0.00  0.00    +0.000 A 
ATOM     21  C   UNL     1       2.800   5.319  18.229  0.00  0.00    +0.000 A 
BRANCH  16  22
ATOM     22  O   UNL     1       1.580   3.237  17.799  0.00  0.00    +0.000 OA
BRANCH  22  24
ATOM     23  C   UNL     1       0.628   3.163  19.982  0.00  0.00    +0.000 C 
ATOM     24  C   UNL     1       0.975   2.353  18.745  0.00  0.00    +0.000 C 
ENDBRANCH  22  24
ENDBRANCH  16  22
ENDBRANCH  15  19
ENDBRANCH  14  15
ENDBRANCH   1  14
TORSDOF 7
ENDMDL
