MODEL 1
REMARK VINA RESULT:      -7.6      0.000      0.000
REMARK  Name = 
REMARK  9 active torsions:
REMARK  status: ('A' for Active; 'I' for Inactive)
REMARK    1  A    between atoms: C_1  and  C_2
REMARK    2  A    between atoms: C_2  and  C_3
REMARK    3  A    between atoms: C_3  and  C_4
REMARK    4  A    between atoms: C_4  and  C_5
REMARK    5  A    between atoms: C_6  and  C_7
REMARK    6  A    between atoms: C_10  and  C_11
REMARK    7  A    between atoms: C_12  and  O_13
REMARK    8  A    between atoms: O_13  and  C_14
REMARK    9  A    between atoms: C_14  and  C_15
REMARK                            x       y       z     vdW  Elec       q    Type
REMARK                         _______ _______ _______ _____ _____    ______ ____
ROOT
ATOM      1  C   UNL     1       6.102   4.533  15.100  0.00  0.00    +0.000 A 
ATOM      2  C   UNL     1       7.004   5.586  15.152  0.00  0.00    +0.000 A 
ATOM      3  N   UNL     1       7.508   6.101  16.298  0.00  0.00    +0.000 NA
ATOM      4  C   UNL     1       7.100   5.538  17.466  0.00  0.00    +0.000 A 
ATOM      5  C   UNL     1       7.695   6.113  18.721  0.00  0.00    +0.000 C 
ATOM      6  C   UNL     1       6.199   4.465  17.524  0.00  0.00    +0.000 A 
ATOM      7  C   UNL     1       5.688   3.972  16.314  0.00  0.00    +0.000 A 
ENDROOT
BRANCH   1   9
ATOM      8  C   UNL     1       5.230   3.506  12.714  0.00  0.00    +0.000 C 
ATOM      9  C   UNL     1       5.651   4.033  13.830  0.00  0.00    +0.000 C 
BRANCH   8  10
ATOM     10  C   UNL     1       4.738   2.891  11.414  0.00  0.00    +0.000 C 
BRANCH  10  11
ATOM     11  C   UNL     1       3.388   3.485  11.032  0.00  0.00    +0.000 C 
BRANCH  11  13
ATOM     12  C   UNL     1       2.332   4.823   9.182  0.00  0.00    +0.000 C 
ATOM     13  C   UNL     1       3.271   3.677   9.522  0.00  0.00    +0.000 C 
ENDBRANCH  11  13
ENDBRANCH  10  11
ENDBRANCH   8  10
ENDBRANCH   1   9
BRANCH   6  14
ATOM     14  O   UNL     1       5.857   4.016  18.775  0.00  0.00    +0.000 OA
BRANCH  14  15
ATOM     15  C   UNL     1       4.502   4.218  19.189  0.00  0.00    +0.000 C 
BRANCH  15  16
ATOM     16  C   UNL     1       3.923   2.882  19.684  0.00  0.00    +0.000 C 
ATOM     17  C   UNL     1       2.441   2.621  19.328  0.00  0.00    +0.000 C 
ATOM     18  C   UNL     1       2.985   1.817  18.137  0.00  0.00    +0.000 C 
ATOM     19  N   UNL     1       4.268   1.695  18.858  0.00  0.00    +0.000 NA
ATOM     20  H   UNL     1       5.106   1.784  18.285  0.00  0.00    +0.000 HD
ENDBRANCH  15  16
ENDBRANCH  14  15
ENDBRANCH   6  14
TORSDOF 7
ENDMDL
MODEL 2
REMARK VINA RESULT:      -7.1      1.074      1.156
REMARK  Name = 
REMARK  9 active torsions:
REMARK  status: ('A' for Active; 'I' for Inactive)
REMARK    1  A    between atoms: C_1  and  C_2
REMARK    2  A    between atoms: C_2  and  C_3
REMARK    3  A    between atoms: C_3  and  C_4
REMARK    4  A    between atoms: C_4  and  C_5
REMARK    5  A    between atoms: C_6  and  C_7
REMARK    6  A    between atoms: C_10  and  C_11
REMARK    7  A    between atoms: C_12  and  O_13
REMARK    8  A    between atoms: O_13  and  C_14
REMARK    9  A    between atoms: C_14  and  C_15
REMARK                            x       y       z     vdW  Elec       q    Type
REMARK                         _______ _______ _______ _____ _____    ______ ____
ROOT
ATOM      1  C   UNL     1       5.965   4.273  15.631  0.00  0.00    +0.000 A 
ATOM      2  C   UNL     1       7.216   4.787  15.941  0.00  0.00    +0.000 A 
ATOM      3  N   UNL     1       7.596   5.167  17.184  0.00  0.00    +0.000 NA
ATOM      4  C   UNL     1       6.685   5.028  18.183  0.00  0.00    +0.000 A 
ATOM      5  C   UNL     1       7.142   5.433  19.556  0.00  0.00    +0.000 C 
ATOM      6  C   UNL     1       5.397   4.511  17.978  0.00  0.00    +0.000 A 
ATOM      7  C   UNL     1       5.039   4.143  16.673  0.00  0.00    +0.000 A 
ENDROOT
BRANCH   1   9
ATOM      8  C   UNL     1       5.319   3.496  13.084  0.00  0.00    +0.000 C 
ATOM      9  C   UNL     1       5.668   3.864  14.285  0.00  0.00    +0.000 C 
BRANCH   8  10
ATOM     10  C   UNL     1       4.911   3.068  11.683  0.00  0.00    +0.000 C 
BRANCH  10  11
ATOM     11  C   UNL     1       3.998   4.116  11.060  0.00  0.00    +0.000 C 
BRANCH  11  13
ATOM     12  C   UNL     1       2.567   4.574   9.043  0.00  0.00    +0.000 C 
ATOM     13  C   UNL     1       3.105   3.507   9.982  0.00  0.00    +0.000 C 
ENDBRANCH  11  13
ENDBRANCH  10  11
ENDBRANCH   8  10
ENDBRANCH   1   9
BRANCH   6  14
ATOM     14  O   UNL     1       4.576   4.452  19.076  0.00  0.00    +0.000 OA
BRANCH  14  15
ATOM     15  C   UNL     1       3.187   4.211  18.836  0.00  0.00    +0.000 C 
BRANCH  15  16
ATOM     16  C   UNL     1       2.834   2.789  19.304  0.00  0.00    +0.000 C 
ATOM     17  C   UNL     1       1.543   2.659  20.143  0.00  0.00    +0.000 C 
ATOM     18  C   UNL     1       0.856   2.277  18.823  0.00  0.00    +0.000 C 
ATOM     19  N   UNL     1       2.183   1.927  18.281  0.00  0.00    +0.000 NA
ATOM     20  H   UNL     1       2.348   2.192  17.311  0.00  0.00    +0.000 HD
ENDBRANCH  15  16
ENDBRANCH  14  15
ENDBRANCH   6  14
TORSDOF 7
ENDMDL
MODEL 3
REMARK VINA RESULT:      -7.0      1.271      1.427
REMARK  Name = 
REMARK  9 active torsions:
REMARK  status: ('A' for Active; 'I' for Inactive)
REMARK    1  A    between atoms: C_1  and  C_2
REMARK    2  A    between atoms: C_2  and  C_3
REMARK    3  A    between atoms: C_3  and  C_4
REMARK    4  A    between atoms: C_4  and  C_5
REMARK    5  A    between atoms: C_6  and  C_7
REMARK    6  A    between atoms: C_10  and  C_11
REMARK    7  A    between atoms: C_12  and  O_13
REMARK    8  A    between atoms: O_13  and  C_14
REMARK    9  A    between atoms: C_14  and  C_15
REMARK                            x       y       z     vdW  Elec       q    Type
REMARK                         _______ _______ _______ _____ _____    ______ ____
ROOT
ATOM      1  C   UNL     1       5.999   4.317  14.787  0.00  0.00    +0.000 A 
ATOM      2  C   UNL     1       7.099   5.162  14.798  0.00  0.00    +0.000 A 
ATOM      3  N   UNL     1       7.583   5.767  15.909  0.00  0.00    +0.000 NA
ATOM      4  C   UNL     1       6.942   5.520  17.082  0.00  0.00    +0.000 A 
ATOM      5  C   UNL     1       7.516   6.184  18.301  0.00  0.00    +0.000 C 
ATOM      6  C   UNL     1       5.827   4.675  17.181  0.00  0.00    +0.000 A 
ATOM      7  C   UNL     1       5.349   4.081  16.004  0.00  0.00    +0.000 A 
ENDROOT
BRANCH   1   9
ATOM      8  C   UNL     1       5.267   3.166  12.410  0.00  0.00    +0.000 C 
ATOM      9  C   UNL     1       5.583   3.693  13.560  0.00  0.00    +0.000 C 
BRANCH   8  10
ATOM     10  C   UNL     1       4.900   2.550  11.070  0.00  0.00    +0.000 C 
BRANCH  10  11
ATOM     11  C   UNL     1       3.469   2.915  10.700  0.00  0.00    +0.000 C 
BRANCH  11  13
ATOM     12  C   UNL     1       2.509   4.536   9.032  0.00  0.00    +0.000 C 
ATOM     13  C   UNL     1       3.356   4.381  10.285  0.00  0.00    +0.000 C 
ENDBRANCH  11  13
ENDBRANCH  10  11
ENDBRANCH   8  10
ENDBRANCH   1   9
BRANCH   6  14
ATOM     14  O   UNL     1       5.268   4.540  18.427  0.00  0.00    +0.000 OA
BRANCH  14  15
ATOM     15  C   UNL     1       4.087   3.738  18.524  0.00  0.00    +0.000 C 
BRANCH  15  16
ATOM     16  C   UNL     1       2.857   4.659  18.598  0.00  0.00    +0.000 C 
ATOM     17  C   UNL     1       1.546   4.075  18.024  0.00  0.00    +0.000 C 
ATOM     18  C   UNL     1       1.211   3.696  19.475  0.00  0.00    +0.000 C 
ATOM     19  N   UNL     1       2.183   4.713  19.922  0.00  0.00    +0.000 NA
ATOM     20  H   UNL     1       2.758   4.453  20.721  0.00  0.00    +0.000 HD
ENDBRANCH  15  16
ENDBRANCH  14  15
ENDBRANCH   6  14
TORSDOF 7
ENDMDL
MODEL 4
REMARK VINA RESULT:      -6.9      1.268      1.480
REMARK  Name = 
REMARK  9 active torsions:
REMARK  status: ('A' for Active; 'I' for Inactive)
REMARK    1  A    between atoms: C_1  and  C_2
REMARK    2  A    between atoms: C_2  and  C_3
REMARK    3  A    between atoms: C_3  and  C_4
REMARK    4  A    between atoms: C_4  and  C_5
REMARK    5  A    between atoms: C_6  and  C_7
REMARK    6  A    between atoms: C_10  and  C_11
REMARK    7  A    between atoms: C_12  and  O_13
REMARK    8  A    between atoms: O_13  and  C_14
REMARK    9  A    between atoms: C_14  and  C_15
REMARK                            x       y       z     vdW  Elec       q    Type
REMARK                         _______ _______ _______ _____ _____    ______ ____
ROOT
ATOM      1  C   UNL     1       5.976   4.269  15.549  0.00  0.00    +0.000 A 
ATOM      2  C   UNL     1       7.183   4.898  15.815  0.00  0.00    +0.000 A 
ATOM      3  N   UNL     1       7.561   5.335  17.039  0.00  0.00    +0.000 NA
ATOM      4  C   UNL     1       6.693   5.136  18.067  0.00  0.00    +0.000 A 
ATOM      5  C   UNL     1       7.149   5.608  19.418  0.00  0.00    +0.000 C 
ATOM      6  C   UNL     1       5.451   4.503  17.907  0.00  0.00    +0.000 A 
ATOM      7  C   UNL     1       5.093   4.079  16.619  0.00  0.00    +0.000 A 
ENDROOT
BRANCH   1   9
ATOM      8  C   UNL     1       5.335   3.415  13.025  0.00  0.00    +0.000 C 
ATOM      9  C   UNL     1       5.681   3.809  14.219  0.00  0.00    +0.000 C 
BRANCH   8  10
ATOM     10  C   UNL     1       4.932   2.958  11.632  0.00  0.00    +0.000 C 
BRANCH  10  11
ATOM     11  C   UNL     1       4.229   4.088  10.893  0.00  0.00    +0.000 C 
BRANCH  11  13
ATOM     12  C   UNL     1       2.530   4.647   9.124  0.00  0.00    +0.000 C 
ATOM     13  C   UNL     1       3.074   3.565  10.043  0.00  0.00    +0.000 C 
ENDBRANCH  11  13
ENDBRANCH  10  11
ENDBRANCH   8  10
ENDBRANCH   1   9
BRANCH   6  14
ATOM     14  O   UNL     1       4.668   4.394  19.028  0.00  0.00    +0.000 OA
BRANCH  14  15
ATOM     15  C   UNL     1       4.465   3.078  19.553  0.00  0.00    +0.000 C 
BRANCH  15  16
ATOM     16  C   UNL     1       2.962   2.856  19.788  0.00  0.00    +0.000 C 
ATOM     17  C   UNL     1       2.526   2.716  21.264  0.00  0.00    +0.000 C 
ATOM     18  C   UNL     1       2.182   4.211  21.189  0.00  0.00    +0.000 C 
ATOM     19  N   UNL     1       2.121   4.081  19.720  0.00  0.00    +0.000 NA
ATOM     20  H   UNL     1       2.514   4.858  19.191  0.00  0.00    +0.000 HD
ENDBRANCH  15  16
ENDBRANCH  14  15
ENDBRANCH   6  14
TORSDOF 7
ENDMDL
MODEL 5
REMARK VINA RESULT:      -6.8      2.036      2.513
REMARK  Name = 
REMARK  9 active torsions:
REMARK  status: ('A' for Active; 'I' for Inactive)
REMARK    1  A    between atoms: C_1  and  C_2
REMARK    2  A    between atoms: C_2  and  C_3
REMARK    3  A    between atoms: C_3  and  C_4
REMARK    4  A    between atoms: C_4  and  C_5
REMARK    5  A    between atoms: C_6  and  C_7
REMARK    6  A    between atoms: C_10  and  C_11
REMARK    7  A    between atoms: C_12  and  O_13
REMARK    8  A    between atoms: O_13  and  C_14
REMARK    9  A    between atoms: C_14  and  C_15
REMARK                            x       y       z     vdW  Elec       q    Type
REMARK                         _______ _______ _______ _____ _____    ______ ____
ROOT
ATOM      1  C   UNL     1       5.066   4.811  15.650  0.00  0.00    +0.000 A 
ATOM      2  C   UNL     1       5.089   6.177  15.891  0.00  0.00    +0.000 A 
ATOM      3  N   UNL     1       4.631   6.759  17.024  0.00  0.00    +0.000 NA
ATOM      4  C   UNL     1       4.121   5.940  17.982  0.00  0.00    +0.000 A 
ATOM      5  C   UNL     1       3.643   6.610  19.239  0.00  0.00    +0.000 C 
ATOM      6  C   UNL     1       4.059   4.545  17.842  0.00  0.00    +0.000 A 
ATOM      7  C   UNL     1       4.531   3.985  16.646  0.00  0.00    +0.000 A 
ENDROOT
BRANCH   1   9
ATOM      8  C   UNL     1       6.028   3.781  13.300  0.00  0.00    +0.000 C 
ATOM      9  C   UNL     1       5.610   4.285  14.428  0.00  0.00    +0.000 C 
BRANCH   8  10
ATOM     10  C   UNL     1       6.515   3.195  11.985  0.00  0.00    +0.000 C 
BRANCH  10  11
ATOM     11  C   UNL     1       5.367   2.498  11.265  0.00  0.00    +0.000 C 
BRANCH  11  13
ATOM     12  C   UNL     1       3.421   3.634  10.148  0.00  0.00    +0.000 C 
ATOM     13  C   UNL     1       4.047   3.237  11.474  0.00  0.00    +0.000 C 
ENDBRANCH  11  13
ENDBRANCH  10  11
ENDBRANCH   8  10
ENDBRANCH   1   9
BRANCH   6  14
ATOM     14  O   UNL     1       3.495   3.848  18.880  0.00  0.00    +0.000 OA
BRANCH  14  15
ATOM     15  C   UNL     1       2.215   3.255  18.644  0.00  0.00    +0.000 C 
BRANCH  15  16
ATOM     16  C   UNL     1       1.818   2.410  19.867  0.00  0.00    +0.000 C 
ATOM     17  C   UNL     1       2.758   2.516  21.089  0.00  0.00    +0.000 C 
ATOM     18  C   UNL     1       1.763   3.557  21.624  0.00  0.00    +0.000 C 
ATOM     19  N   UNL     1       0.745   2.989  20.718  0.00  0.00    +0.000 NA
ATOM     20  H   UNL     1       0.135   3.665  20.261  0.00  0.00    +0.000 HD
ENDBRANCH  15  16
ENDBRANCH  14  15
ENDBRANCH   6  14
TORSDOF 7
ENDMDL
MODEL 6
REMARK VINA RESULT:      -6.8      1.898      2.123
REMARK  Name = 
REMARK  9 active torsions:
REMARK  status: ('A' for Active; 'I' for Inactive)
REMARK    1  A    between atoms: C_1  and  C_2
REMARK    2  A    between atoms: C_2  and  C_3
REMARK    3  A    between atoms: C_3  and  C_4
REMARK    4  A    between atoms: C_4  and  C_5
REMARK    5  A    between atoms: C_6  and  C_7
REMARK    6  A    between atoms: C_10  and  C_11
REMARK    7  A    between atoms: C_12  and  O_13
REMARK    8  A    between atoms: O_13  and  C_14
REMARK    9  A    between atoms: C_14  and  C_15
REMARK                            x       y       z     vdW  Elec       q    Type
REMARK                         _______ _______ _______ _____ _____    ______ ____
ROOT
ATOM      1  C   UNL     1       5.952   4.741  14.741  0.00  0.00    +0.000 A 
ATOM      2  C   UNL     1       7.094   4.259  15.363  0.00  0.00    +0.000 A 
ATOM      3  N   UNL     1       7.571   4.722  16.544  0.00  0.00    +0.000 NA
ATOM      4  C   UNL     1       6.874   5.720  17.149  0.00  0.00    +0.000 A 
ATOM      5  C   UNL     1       7.412   6.195  18.469  0.00  0.00    +0.000 C 
ATOM      6  C   UNL     1       5.703   6.271  16.608  0.00  0.00    +0.000 A 
ATOM      7  C   UNL     1       5.253   5.774  15.377  0.00  0.00    +0.000 A 
ENDROOT
BRANCH   1   9
ATOM      8  C   UNL     1       5.104   3.559  12.419  0.00  0.00    +0.000 C 
ATOM      9  C   UNL     1       5.506   4.160  13.504  0.00  0.00    +0.000 C 
BRANCH   8  10
ATOM     10  C   UNL     1       4.634   2.858  11.155  0.00  0.00    +0.000 C 
BRANCH  10  11
ATOM     11  C   UNL     1       3.270   3.391  10.737  0.00  0.00    +0.000 C 
BRANCH  11  13
ATOM     12  C   UNL     1       2.250   4.976   9.070  0.00  0.00    +0.000 C 
ATOM     13  C   UNL     1       3.283   3.883   9.291  0.00  0.00    +0.000 C 
ENDBRANCH  11  13
ENDBRANCH  10  11
ENDBRANCH   8  10
ENDBRANCH   1   9
BRANCH   6  14
ATOM     14  O   UNL     1       5.120   7.291  17.317  0.00  0.00    +0.000 OA
BRANCH  14  15
ATOM     15  C   UNL     1       3.806   7.056  17.832  0.00  0.00    +0.000 C 
BRANCH  15  16
ATOM     16  C   UNL     1       3.673   5.572  18.215  0.00  0.00    +0.000 C 
ATOM     17  C   UNL     1       3.658   5.270  19.731  0.00  0.00    +0.000 C 
ATOM     18  C   UNL     1       2.127   5.259  19.599  0.00  0.00    +0.000 C 
ATOM     19  N   UNL     1       2.294   5.021  18.152  0.00  0.00    +0.000 NA
ATOM     20  H   UNL     1       1.646   5.521  17.545  0.00  0.00    +0.000 HD
ENDBRANCH  15  16
ENDBRANCH  14  15
ENDBRANCH   6  14
TORSDOF 7
ENDMDL
MODEL 7
REMARK VINA RESULT:      -6.8      1.678      1.831
REMARK  Name = 
REMARK  9 active torsions:
REMARK  status: ('A' for Active; 'I' for Inactive)
REMARK    1  A    between atoms: C_1  and  C_2
REMARK    2  A    between atoms: C_2  and  C_3
REMARK    3  A    between atoms: C_3  and  C_4
REMARK    4  A    between atoms: C_4  and  C_5
REMARK    5  A    between atoms: C_6  and  C_7
REMARK    6  A    between atoms: C_10  and  C_11
REMARK    7  A    between atoms: C_12  and  O_13
REMARK    8  A    between atoms: O_13  and  C_14
REMARK    9  A    between atoms: C_14  and  C_15
REMARK                            x       y       z     vdW  Elec       q    Type
REMARK                         _______ _______ _______ _____ _____    ______ ____
ROOT
ATOM      1  C   UNL     1       5.931   4.530  15.517  0.00  0.00    +0.000 A 
ATOM      2  C   UNL     1       7.266   4.544  15.890  0.00  0.00    +0.000 A 
ATOM      3  N   UNL     1       7.711   4.908  17.117  0.00  0.00    +0.000 NA
ATOM      4  C   UNL     1       6.777   5.278  18.033  0.00  0.00    +0.000 A 
ATOM      5  C   UNL     1       7.296   5.652  19.392  0.00  0.00    +0.000 C 
ATOM      6  C   UNL     1       5.401   5.290  17.760  0.00  0.00    +0.000 A 
ATOM      7  C   UNL     1       4.985   4.921  16.472  0.00  0.00    +0.000 A 
ENDROOT
BRANCH   1   9
ATOM      8  C   UNL     1       5.289   3.724  12.978  0.00  0.00    +0.000 C 
ATOM      9  C   UNL     1       5.555   4.093  14.200  0.00  0.00    +0.000 C 
BRANCH   8  10
ATOM     10  C   UNL     1       4.978   3.291  11.554  0.00  0.00    +0.000 C 
BRANCH  10  11
ATOM     11  C   UNL     1       3.485   3.413  11.283  0.00  0.00    +0.000 C 
BRANCH  11  13
ATOM     12  C   UNL     1       2.644   4.697   9.291  0.00  0.00    +0.000 C 
ATOM     13  C   UNL     1       3.184   3.366   9.787  0.00  0.00    +0.000 C 
ENDBRANCH  11  13
ENDBRANCH  10  11
ENDBRANCH   8  10
ENDBRANCH   1   9
BRANCH   6  14
ATOM     14  O   UNL     1       4.577   5.711  18.773  0.00  0.00    +0.000 OA
BRANCH  14  15
ATOM     15  C   UNL     1       3.341   6.322  18.394  0.00  0.00    +0.000 C 
BRANCH  15  16
ATOM     16  C   UNL     1       2.221   5.810  19.316  0.00  0.00    +0.000 C 
ATOM     17  C   UNL     1       1.771   4.350  19.077  0.00  0.00    +0.000 C 
ATOM     18  C   UNL     1       2.730   3.985  20.221  0.00  0.00    +0.000 C 
ATOM     19  N   UNL     1       2.660   5.389  20.673  0.00  0.00    +0.000 NA
ATOM     20  H   UNL     1       3.537   5.792  20.998  0.00  0.00    +0.000 HD
ENDBRANCH  15  16
ENDBRANCH  14  15
ENDBRANCH   6  14
TORSDOF 7
ENDMDL
MODEL 8
REMARK VINA RESULT:      -6.8      1.993      2.626
REMARK  Name = 
REMARK  9 active torsions:
REMARK  status: ('A' for Active; 'I' for Inactive)
REMARK    1  A    between atoms: C_1  and  C_2
REMARK    2  A    between atoms: C_2  and  C_3
REMARK    3  A    between atoms: C_3  and  C_4
REMARK    4  A    between atoms: C_4  and  C_5
REMARK    5  A    between atoms: C_6  and  C_7
REMARK    6  A    between atoms: C_10  and  C_11
REMARK    7  A    between atoms: C_12  and  O_13
REMARK    8  A    between atoms: O_13  and  C_14
REMARK    9  A    between atoms: C_14  and  C_15
REMARK                            x       y       z     vdW  Elec       q    Type
REMARK                         _______ _______ _______ _____ _____    ______ ____
ROOT
ATOM      1  C   UNL     1       6.147   4.384  15.586  0.00  0.00    +0.000 A 
ATOM      2  C   UNL     1       7.361   4.910  16.001  0.00  0.00    +0.000 A 
ATOM      3  N   UNL     1       7.647   5.250  17.280  0.00  0.00    +0.000 NA
ATOM      4  C   UNL     1       6.673   5.055  18.209  0.00  0.00    +0.000 A 
ATOM      5  C   UNL     1       7.026   5.417  19.623  0.00  0.00    +0.000 C 
ATOM      6  C   UNL     1       5.414   4.521  17.895  0.00  0.00    +0.000 A 
ATOM      7  C   UNL     1       5.155   4.197  16.556  0.00  0.00    +0.000 A 
ENDROOT
BRANCH   1   9
ATOM      8  C   UNL     1       5.856   3.672  12.956  0.00  0.00    +0.000 C 
ATOM      9  C   UNL     1       5.952   4.020  14.209  0.00  0.00    +0.000 C 
BRANCH   8  10
ATOM     10  C   UNL     1       5.744   3.263  11.496  0.00  0.00    +0.000 C 
BRANCH  10  11
ATOM     11  C   UNL     1       5.307   1.808  11.391  0.00  0.00    +0.000 C 
BRANCH  11  13
ATOM     12  C   UNL     1       6.137  -0.566  11.364  0.00  0.00    +0.000 C 
ATOM     13  C   UNL     1       6.493   0.889  11.108  0.00  0.00    +0.000 C 
ENDBRANCH  11  13
ENDBRANCH  10  11
ENDBRANCH   8  10
ENDBRANCH   1   9
BRANCH   6  14
ATOM     14  O   UNL     1       4.521   4.404  18.931  0.00  0.00    +0.000 OA
BRANCH  14  15
ATOM     15  C   UNL     1       3.246   3.830  18.628  0.00  0.00    +0.000 C 
BRANCH  15  16
ATOM     16  C   UNL     1       2.160   4.563  19.433  0.00  0.00    +0.000 C 
ATOM     17  C   UNL     1       1.102   3.660  20.109  0.00  0.00    +0.000 C 
ATOM     18  C   UNL     1       1.967   3.782  21.372  0.00  0.00    +0.000 C 
ATOM     19  N   UNL     1       2.567   5.001  20.795  0.00  0.00    +0.000 NA
ATOM     20  H   UNL     1       3.569   5.113  20.942  0.00  0.00    +0.000 HD
ENDBRANCH  15  16
ENDBRANCH  14  15
ENDBRANCH   6  14
TORSDOF 7
ENDMDL
MODEL 9
REMARK VINA RESULT:      -6.7      3.180      6.998
REMARK  Name = 
REMARK  9 active torsions:
REMARK  status: ('A' for Active; 'I' for Inactive)
REMARK    1  A    between atoms: C_1  and  C_2
REMARK    2  A    between atoms: C_2  and  C_3
REMARK    3  A    between atoms: C_3  and  C_4
REMARK    4  A    between atoms: C_4  and  C_5
REMARK    5  A    between atoms: C_6  and  C_7
REMARK    6  A    between atoms: C_10  and  C_11
REMARK    7  A    between atoms: C_12  and  O_13
REMARK    8  A    between atoms: O_13  and  C_14
REMARK    9  A    between atoms: C_14  and  C_15
REMARK                            x       y       z     vdW  Elec       q    Type
REMARK                         _______ _______ _______ _____ _____    ______ ____
ROOT
ATOM      1  C   UNL     1       7.528   7.067  17.732  0.00  0.00    +0.000 A 
ATOM      2  C   UNL     1       7.312   6.843  16.380  0.00  0.00    +0.000 A 
ATOM      3  N   UNL     1       6.651   5.771  15.882  0.00  0.00    +0.000 NA
ATOM      4  C   UNL     1       6.171   4.865  16.775  0.00  0.00    +0.000 A 
ATOM      5  C   UNL     1       5.420   3.700  16.196  0.00  0.00    +0.000 C 
ATOM      6  C   UNL     1       6.328   5.002  18.163  0.00  0.00    +0.000 A 
ATOM      7  C   UNL     1       7.032   6.119  18.635  0.00  0.00    +0.000 A 
ENDROOT
BRANCH   1   9
ATOM      8  C   UNL     1       8.772   9.344  18.614  0.00  0.00    +0.000 C 
ATOM      9  C   UNL     1       8.212   8.255  18.165  0.00  0.00    +0.000 C 
BRANCH   8  10
ATOM     10  C   UNL     1       9.425  10.612  19.138  0.00  0.00    +0.000 C 
BRANCH  10  11
ATOM     11  C   UNL     1       9.991  11.426  17.982  0.00  0.00    +0.000 C 
BRANCH  11  13
ATOM     12  C   UNL     1      11.784  11.756  19.715  0.00  0.00    +0.000 C 
ATOM     13  C   UNL     1      11.445  11.819  18.235  0.00  0.00    +0.000 C 
ENDBRANCH  11  13
ENDBRANCH  10  11
ENDBRANCH   8  10
ENDBRANCH   1   9
BRANCH   6  14
ATOM     14  O   UNL     1       5.813   3.996  18.941  0.00  0.00    +0.000 OA
BRANCH  14  15
ATOM     15  C   UNL     1       4.485   4.177  19.441  0.00  0.00    +0.000 C 
BRANCH  15  16
ATOM     16  C   UNL     1       3.957   2.831  19.965  0.00  0.00    +0.000 C 
ATOM     17  C   UNL     1       2.600   2.371  19.385  0.00  0.00    +0.000 C 
ATOM     18  C   UNL     1       3.431   1.535  18.400  0.00  0.00    +0.000 C 
ATOM     19  N   UNL     1       4.563   1.625  19.342  0.00  0.00    +0.000 NA
ATOM     20  H   UNL     1       5.480   1.760  18.919  0.00  0.00    +0.000 HD
ENDBRANCH  15  16
ENDBRANCH  14  15
ENDBRANCH   6  14
TORSDOF 7
ENDMDL
