MODEL 1
REMARK VINA RESULT:      -7.5      0.000      0.000
REMARK  Name = 
REMARK  6 active torsions:
REMARK  status: ('A' for Active; 'I' for Inactive)
REMARK    1  A    between atoms: C_1  and  O_2
REMARK    2  A    between atoms: O_2  and  C_3
REMARK    3  A    between atoms: C_6  and  C_7
REMARK    4  A    between atoms: C_10  and  C_11
REMARK    5  A    between atoms: C_14  and  C_15
REMARK    6  A    between atoms: C_15  and  O_17
REMARK                            x       y       z     vdW  Elec       q    Type
REMARK                         _______ _______ _______ _____ _____    ______ ____
ROOT
ATOM      1  C   UNL     1       1.902   7.149  20.122  0.00  0.00    +0.000 A 
ATOM      2  C   UNL     1       1.775   5.914  20.726  0.00  0.00    +0.000 A 
ATOM      3  S   UNL     1       2.687   4.746  19.874  0.00  0.00    +0.000 S 
ATOM      4  C   UNL     1       3.178   5.957  18.744  0.00  0.00    +0.000 A 
ATOM      5  N   UNL     1       2.720   7.163  18.999  0.00  0.00    +0.000 NA
ENDROOT
BRANCH   1   9
ATOM      6  C   UNL     1      -0.270  10.639  21.278  0.00  0.00    +0.000 A 
ATOM      7  C   UNL     1      -0.157   9.567  22.164  0.00  0.00    +0.000 A 
ATOM      8  C   UNL     1       0.578   8.430  21.813  0.00  0.00    +0.000 A 
ATOM      9  C   UNL     1       1.190   8.342  20.556  0.00  0.00    +0.000 A 
ATOM     10  C   UNL     1       1.079   9.426  19.677  0.00  0.00    +0.000 A 
ATOM     11  C   UNL     1       0.348  10.564  20.030  0.00  0.00    +0.000 A 
BRANCH   6  13
ATOM     12  C   UNL     1      -1.457  11.605  23.072  0.00  0.00    +0.000 C 
ATOM     13  O   UNL     1      -1.036  11.683  21.715  0.00  0.00    +0.000 OA
ENDBRANCH   6  13
ENDBRANCH   1   9
BRANCH   4  14
ATOM     14  C   UNL     1       4.074   5.625  17.622  0.00  0.00    +0.000 A 
ATOM     15  C   UNL     1       4.664   6.608  16.814  0.00  0.00    +0.000 A 
ATOM     16  C   UNL     1       5.510   6.255  15.759  0.00  0.00    +0.000 A 
ATOM     17  C   UNL     1       5.788   4.912  15.489  0.00  0.00    +0.000 A 
ATOM     18  C   UNL     1       5.232   3.919  16.303  0.00  0.00    +0.000 A 
ATOM     19  C   UNL     1       4.382   4.278  17.360  0.00  0.00    +0.000 A 
BRANCH  17  20
ATOM     20  C   UNL     1       6.724   4.618  14.370  0.00  0.00    +0.000 C 
ATOM     21  O   UNL     1       7.714   5.294  14.151  0.00  0.00    +0.000 OA
BRANCH  20  22
ATOM     22  O   UNL     1       6.367   3.570  13.598  0.00  0.00    +0.000 OA
ATOM     23  H   UNL     1       6.270   2.717  14.060  0.00  0.00    +0.000 HD
ENDBRANCH  20  22
ENDBRANCH  17  20
ENDBRANCH   4  14
TORSDOF 5
ENDMDL
MODEL 2
REMARK VINA RESULT:      -7.5      0.267      1.253
REMARK  Name = 
REMARK  6 active torsions:
REMARK  status: ('A' for Active; 'I' for Inactive)
REMARK    1  A    between atoms: C_1  and  O_2
REMARK    2  A    between atoms: O_2  and  C_3
REMARK    3  A    between atoms: C_6  and  C_7
REMARK    4  A    between atoms: C_10  and  C_11
REMARK    5  A    between atoms: C_14  and  C_15
REMARK    6  A    between atoms: C_15  and  O_17
REMARK                            x       y       z     vdW  Elec       q    Type
REMARK                         _______ _______ _______ _____ _____    ______ ____
ROOT
ATOM      1  C   UNL     1       1.940   7.198  20.093  0.00  0.00    +0.000 A 
ATOM      2  C   UNL     1       1.778   5.956  20.674  0.00  0.00    +0.000 A 
ATOM      3  S   UNL     1       2.641   4.776  19.789  0.00  0.00    +0.000 S 
ATOM      4  C   UNL     1       3.160   5.993  18.678  0.00  0.00    +0.000 A 
ATOM      5  N   UNL     1       2.746   7.208  18.961  0.00  0.00    +0.000 NA
ENDROOT
BRANCH   1   9
ATOM      6  C   UNL     1       0.091  10.756  21.561  0.00  0.00    +0.000 A 
ATOM      7  C   UNL     1       0.420  10.652  20.208  0.00  0.00    +0.000 A 
ATOM      8  C   UNL     1       0.995   9.481  19.705  0.00  0.00    +0.000 A 
ATOM      9  C   UNL     1       1.274   8.406  20.559  0.00  0.00    +0.000 A 
ATOM     10  C   UNL     1       0.933   8.516  21.912  0.00  0.00    +0.000 A 
ATOM     11  C   UNL     1       0.353   9.684  22.413  0.00  0.00    +0.000 A 
BRANCH   6  13
ATOM     12  C   UNL     1      -1.401  11.890  22.992  0.00  0.00    +0.000 C 
ATOM     13  O   UNL     1      -0.439  11.956  21.945  0.00  0.00    +0.000 OA
ENDBRANCH   6  13
ENDBRANCH   1   9
BRANCH   4  14
ATOM     14  C   UNL     1       4.032   5.653  17.539  0.00  0.00    +0.000 A 
ATOM     15  C   UNL     1       4.653   6.632  16.749  0.00  0.00    +0.000 A 
ATOM     16  C   UNL     1       5.475   6.273  15.677  0.00  0.00    +0.000 A 
ATOM     17  C   UNL     1       5.699   4.926  15.373  0.00  0.00    +0.000 A 
ATOM     18  C   UNL     1       5.112   3.936  16.168  0.00  0.00    +0.000 A 
ATOM     19  C   UNL     1       4.286   4.302  17.242  0.00  0.00    +0.000 A 
BRANCH  17  20
ATOM     20  C   UNL     1       6.613   4.624  14.238  0.00  0.00    +0.000 C 
ATOM     21  O   UNL     1       6.391   3.728  13.442  0.00  0.00    +0.000 OA
BRANCH  20  22
ATOM     22  O   UNL     1       7.719   5.393  14.185  0.00  0.00    +0.000 OA
ATOM     23  H   UNL     1       8.537   4.982  14.518  0.00  0.00    +0.000 HD
ENDBRANCH  20  22
ENDBRANCH  17  20
ENDBRANCH   4  14
TORSDOF 5
ENDMDL
MODEL 3
REMARK VINA RESULT:      -7.5      0.082      1.031
REMARK  Name = 
REMARK  6 active torsions:
REMARK  status: ('A' for Active; 'I' for Inactive)
REMARK    1  A    between atoms: C_1  and  O_2
REMARK    2  A    between atoms: O_2  and  C_3
REMARK    3  A    between atoms: C_6  and  C_7
REMARK    4  A    between atoms: C_10  and  C_11
REMARK    5  A    between atoms: C_14  and  C_15
REMARK    6  A    between atoms: C_15  and  O_17
REMARK                            x       y       z     vdW  Elec       q    Type
REMARK                         _______ _______ _______ _____ _____    ______ ____
ROOT
ATOM      1  C   UNL     1       1.874   7.147  20.114  0.00  0.00    +0.000 A 
ATOM      2  C   UNL     1       1.753   5.920  20.738  0.00  0.00    +0.000 A 
ATOM      3  S   UNL     1       2.681   4.746  19.911  0.00  0.00    +0.000 S 
ATOM      4  C   UNL     1       3.170   5.943  18.765  0.00  0.00    +0.000 A 
ATOM      5  N   UNL     1       2.701   7.149  18.997  0.00  0.00    +0.000 NA
ENDROOT
BRANCH   1   9
ATOM      6  C   UNL     1      -0.335  10.635  21.199  0.00  0.00    +0.000 A 
ATOM      7  C   UNL     1      -0.208   9.584  22.108  0.00  0.00    +0.000 A 
ATOM      8  C   UNL     1       0.540   8.448  21.780  0.00  0.00    +0.000 A 
ATOM      9  C   UNL     1       1.150   8.341  20.524  0.00  0.00    +0.000 A 
ATOM     10  C   UNL     1       1.024   9.404  19.622  0.00  0.00    +0.000 A 
ATOM     11  C   UNL     1       0.281  10.540  19.952  0.00  0.00    +0.000 A 
BRANCH   6  13
ATOM     12  C   UNL     1      -1.467  11.666  22.993  0.00  0.00    +0.000 C 
ATOM     13  O   UNL     1      -1.112  11.680  21.615  0.00  0.00    +0.000 OA
ENDBRANCH   6  13
ENDBRANCH   1   9
BRANCH   4  14
ATOM     14  C   UNL     1       4.077   5.600  17.655  0.00  0.00    +0.000 A 
ATOM     15  C   UNL     1       4.378   4.274  17.313  0.00  0.00    +0.000 A 
ATOM     16  C   UNL     1       5.241   3.986  16.251  0.00  0.00    +0.000 A 
ATOM     17  C   UNL     1       5.820   5.018  15.506  0.00  0.00    +0.000 A 
ATOM     18  C   UNL     1       5.508   6.346  15.814  0.00  0.00    +0.000 A 
ATOM     19  C   UNL     1       4.642   6.630  16.882  0.00  0.00    +0.000 A 
BRANCH  17  20
ATOM     20  C   UNL     1       6.703   4.631  14.372  0.00  0.00    +0.000 C 
ATOM     21  O   UNL     1       7.666   5.298  14.036  0.00  0.00    +0.000 OA
BRANCH  20  22
ATOM     22  O   UNL     1       6.329   3.508  13.725  0.00  0.00    +0.000 OA
ATOM     23  H   UNL     1       6.492   2.672  14.198  0.00  0.00    +0.000 HD
ENDBRANCH  20  22
ENDBRANCH  17  20
ENDBRANCH   4  14
TORSDOF 5
ENDMDL
MODEL 4
REMARK VINA RESULT:      -7.5      0.287      1.473
REMARK  Name = 
REMARK  6 active torsions:
REMARK  status: ('A' for Active; 'I' for Inactive)
REMARK    1  A    between atoms: C_1  and  O_2
REMARK    2  A    between atoms: O_2  and  C_3
REMARK    3  A    between atoms: C_6  and  C_7
REMARK    4  A    between atoms: C_10  and  C_11
REMARK    5  A    between atoms: C_14  and  C_15
REMARK    6  A    between atoms: C_15  and  O_17
REMARK                            x       y       z     vdW  Elec       q    Type
REMARK                         _______ _______ _______ _____ _____    ______ ____
ROOT
ATOM      1  C   UNL     1       1.875   7.227  20.160  0.00  0.00    +0.000 A 
ATOM      2  C   UNL     1       1.656   5.981  20.714  0.00  0.00    +0.000 A 
ATOM      3  S   UNL     1       2.527   4.791  19.850  0.00  0.00    +0.000 S 
ATOM      4  C   UNL     1       3.127   6.009  18.782  0.00  0.00    +0.000 A 
ATOM      5  N   UNL     1       2.732   7.231  19.066  0.00  0.00    +0.000 NA
ENDROOT
BRANCH   1   9
ATOM      6  C   UNL     1       0.063  10.818  21.591  0.00  0.00    +0.000 A 
ATOM      7  C   UNL     1       0.353  10.680  20.233  0.00  0.00    +0.000 A 
ATOM      8  C   UNL     1       0.916   9.498  19.743  0.00  0.00    +0.000 A 
ATOM      9  C   UNL     1       1.221   8.444  20.615  0.00  0.00    +0.000 A 
ATOM     10  C   UNL     1       0.919   8.588  21.974  0.00  0.00    +0.000 A 
ATOM     11  C   UNL     1       0.352   9.768  22.463  0.00  0.00    +0.000 A 
BRANCH   6  13
ATOM     12  C   UNL     1      -1.501  11.971  22.928  0.00  0.00    +0.000 C 
ATOM     13  O   UNL     1      -0.458  12.026  21.961  0.00  0.00    +0.000 OA
ENDBRANCH   6  13
ENDBRANCH   1   9
BRANCH   4  14
ATOM     14  C   UNL     1       4.040   5.663  17.678  0.00  0.00    +0.000 A 
ATOM     15  C   UNL     1       4.390   4.338  17.379  0.00  0.00    +0.000 A 
ATOM     16  C   UNL     1       5.258   4.047  16.323  0.00  0.00    +0.000 A 
ATOM     17  C   UNL     1       5.793   5.074  15.539  0.00  0.00    +0.000 A 
ATOM     18  C   UNL     1       5.432   6.399  15.804  0.00  0.00    +0.000 A 
ATOM     19  C   UNL     1       4.561   6.687  16.867  0.00  0.00    +0.000 A 
BRANCH  17  20
ATOM     20  C   UNL     1       6.684   4.683  14.412  0.00  0.00    +0.000 C 
ATOM     21  O   UNL     1       7.637   5.359  14.068  0.00  0.00    +0.000 OA
BRANCH  20  22
ATOM     22  O   UNL     1       6.328   3.544  13.783  0.00  0.00    +0.000 OA
ATOM     23  H   UNL     1       6.982   3.183  13.157  0.00  0.00    +0.000 HD
ENDBRANCH  20  22
ENDBRANCH  17  20
ENDBRANCH   4  14
TORSDOF 5
ENDMDL
MODEL 5
REMARK VINA RESULT:      -7.2      3.047      3.703
REMARK  Name = 
REMARK  6 active torsions:
REMARK  status: ('A' for Active; 'I' for Inactive)
REMARK    1  A    between atoms: C_1  and  O_2
REMARK    2  A    between atoms: O_2  and  C_3
REMARK    3  A    between atoms: C_6  and  C_7
REMARK    4  A    between atoms: C_10  and  C_11
REMARK    5  A    between atoms: C_14  and  C_15
REMARK    6  A    between atoms: C_15  and  O_17
REMARK                            x       y       z     vdW  Elec       q    Type
REMARK                         _______ _______ _______ _____ _____    ______ ____
ROOT
ATOM      1  C   UNL     1       1.136   9.157  20.067  0.00  0.00    +0.000 A 
ATOM      2  C   UNL     1       1.507   9.536  18.791  0.00  0.00    +0.000 A 
ATOM      3  S   UNL     1       2.387   8.279  18.037  0.00  0.00    +0.000 S 
ATOM      4  C   UNL     1       2.233   7.318  19.464  0.00  0.00    +0.000 A 
ATOM      5  N   UNL     1       1.544   7.879  20.433  0.00  0.00    +0.000 NA
ENDROOT
BRANCH   1   9
ATOM      6  C   UNL     1      -0.992  11.756  22.703  0.00  0.00    +0.000 A 
ATOM      7  C   UNL     1      -0.882  10.398  23.006  0.00  0.00    +0.000 A 
ATOM      8  C   UNL     1      -0.160   9.539  22.170  0.00  0.00    +0.000 A 
ATOM      9  C   UNL     1       0.440  10.027  21.002  0.00  0.00    +0.000 A 
ATOM     10  C   UNL     1       0.332  11.392  20.711  0.00  0.00    +0.000 A 
ATOM     11  C   UNL     1      -0.385  12.250  21.548  0.00  0.00    +0.000 A 
BRANCH   6  13
ATOM     12  C   UNL     1      -3.146  12.256  23.522  0.00  0.00    +0.000 C 
ATOM     13  O   UNL     1      -1.744  12.493  23.574  0.00  0.00    +0.000 OA
ENDBRANCH   6  13
ENDBRANCH   1   9
BRANCH   4  14
ATOM     14  C   UNL     1       2.812   5.964  19.528  0.00  0.00    +0.000 A 
ATOM     15  C   UNL     1       4.159   5.707  19.235  0.00  0.00    +0.000 A 
ATOM     16  C   UNL     1       4.674   4.409  19.308  0.00  0.00    +0.000 A 
ATOM     17  C   UNL     1       3.854   3.339  19.681  0.00  0.00    +0.000 A 
ATOM     18  C   UNL     1       2.515   3.581  20.005  0.00  0.00    +0.000 A 
ATOM     19  C   UNL     1       2.002   4.885  19.928  0.00  0.00    +0.000 A 
BRANCH  17  20
ATOM     20  C   UNL     1       4.482   1.993  19.767  0.00  0.00    +0.000 C 
ATOM     21  O   UNL     1       5.275   1.698  20.645  0.00  0.00    +0.000 OA
BRANCH  20  22
ATOM     22  O   UNL     1       4.135   1.145  18.779  0.00  0.00    +0.000 OA
ATOM     23  H   UNL     1       3.869   0.250  19.061  0.00  0.00    +0.000 HD
ENDBRANCH  20  22
ENDBRANCH  17  20
ENDBRANCH   4  14
TORSDOF 5
ENDMDL
MODEL 6
REMARK VINA RESULT:      -7.2      2.911      3.857
REMARK  Name = 
REMARK  6 active torsions:
REMARK  status: ('A' for Active; 'I' for Inactive)
REMARK    1  A    between atoms: C_1  and  O_2
REMARK    2  A    between atoms: O_2  and  C_3
REMARK    3  A    between atoms: C_6  and  C_7
REMARK    4  A    between atoms: C_10  and  C_11
REMARK    5  A    between atoms: C_14  and  C_15
REMARK    6  A    between atoms: C_15  and  O_17
REMARK                            x       y       z     vdW  Elec       q    Type
REMARK                         _______ _______ _______ _____ _____    ______ ____
ROOT
ATOM      1  C   UNL     1       0.975   9.153  19.998  0.00  0.00    +0.000 A 
ATOM      2  C   UNL     1       1.469   9.583  18.782  0.00  0.00    +0.000 A 
ATOM      3  S   UNL     1       2.439   8.365  18.077  0.00  0.00    +0.000 S 
ATOM      4  C   UNL     1       2.153   7.349  19.444  0.00  0.00    +0.000 A 
ATOM      5  N   UNL     1       1.360   7.866  20.357  0.00  0.00    +0.000 NA
ENDROOT
BRANCH   1   9
ATOM      6  C   UNL     1      -1.261  11.580  22.707  0.00  0.00    +0.000 A 
ATOM      7  C   UNL     1      -1.055  12.013  21.396  0.00  0.00    +0.000 A 
ATOM      8  C   UNL     1      -0.353  11.214  20.487  0.00  0.00    +0.000 A 
ATOM      9  C   UNL     1       0.175   9.980  20.889  0.00  0.00    +0.000 A 
ATOM     10  C   UNL     1      -0.044   9.551  22.203  0.00  0.00    +0.000 A 
ATOM     11  C   UNL     1      -0.749  10.347  23.110  0.00  0.00    +0.000 A 
BRANCH   6  13
ATOM     12  C   UNL     1      -3.300  12.666  23.178  0.00  0.00    +0.000 C 
ATOM     13  O   UNL     1      -1.934  12.454  23.514  0.00  0.00    +0.000 OA
ENDBRANCH   6  13
ENDBRANCH   1   9
BRANCH   4  14
ATOM     14  C   UNL     1       2.741   5.999  19.518  0.00  0.00    +0.000 A 
ATOM     15  C   UNL     1       3.871   5.630  18.776  0.00  0.00    +0.000 A 
ATOM     16  C   UNL     1       4.403   4.340  18.872  0.00  0.00    +0.000 A 
ATOM     17  C   UNL     1       3.817   3.392  19.716  0.00  0.00    +0.000 A 
ATOM     18  C   UNL     1       2.706   3.752  20.487  0.00  0.00    +0.000 A 
ATOM     19  C   UNL     1       2.175   5.047  20.385  0.00  0.00    +0.000 A 
BRANCH  17  20
ATOM     20  C   UNL     1       4.459   2.051  19.790  0.00  0.00    +0.000 C 
ATOM     21  O   UNL     1       5.173   1.719  20.720  0.00  0.00    +0.000 OA
BRANCH  20  22
ATOM     22  O   UNL     1       4.219   1.253  18.729  0.00  0.00    +0.000 OA
ATOM     23  H   UNL     1       4.492   1.606  17.863  0.00  0.00    +0.000 HD
ENDBRANCH  20  22
ENDBRANCH  17  20
ENDBRANCH   4  14
TORSDOF 5
ENDMDL
MODEL 7
REMARK VINA RESULT:      -7.1      2.947      3.978
REMARK  Name = 
REMARK  6 active torsions:
REMARK  status: ('A' for Active; 'I' for Inactive)
REMARK    1  A    between atoms: C_1  and  O_2
REMARK    2  A    between atoms: O_2  and  C_3
REMARK    3  A    between atoms: C_6  and  C_7
REMARK    4  A    between atoms: C_10  and  C_11
REMARK    5  A    between atoms: C_14  and  C_15
REMARK    6  A    between atoms: C_15  and  O_17
REMARK                            x       y       z     vdW  Elec       q    Type
REMARK                         _______ _______ _______ _____ _____    ______ ____
ROOT
ATOM      1  C   UNL     1       1.074   9.238  20.015  0.00  0.00    +0.000 A 
ATOM      2  C   UNL     1       1.426   9.544  18.715  0.00  0.00    +0.000 A 
ATOM      3  S   UNL     1       2.309   8.253  18.026  0.00  0.00    +0.000 S 
ATOM      4  C   UNL     1       2.181   7.376  19.509  0.00  0.00    +0.000 A 
ATOM      5  N   UNL     1       1.498   7.988  20.451  0.00  0.00    +0.000 NA
ENDROOT
BRANCH   1   9
ATOM      6  C   UNL     1      -0.876  11.884  22.740  0.00  0.00    +0.000 A 
ATOM      7  C   UNL     1      -0.290  12.392  21.579  0.00  0.00    +0.000 A 
ATOM      8  C   UNL     1       0.323  11.534  20.660  0.00  0.00    +0.000 A 
ATOM      9  C   UNL     1       0.381  10.156  20.906  0.00  0.00    +0.000 A 
ATOM     10  C   UNL     1      -0.217   9.656  22.069  0.00  0.00    +0.000 A 
ATOM     11  C   UNL     1      -0.834  10.512  22.984  0.00  0.00    +0.000 A 
BRANCH   6  13
ATOM     12  C   UNL     1      -2.834  12.958  23.497  0.00  0.00    +0.000 C 
ATOM     13  O   UNL     1      -1.421  12.817  23.578  0.00  0.00    +0.000 OA
ENDBRANCH   6  13
ENDBRANCH   1   9
BRANCH   4  14
ATOM     14  C   UNL     1       2.774   6.034  19.646  0.00  0.00    +0.000 A 
ATOM     15  C   UNL     1       2.230   5.054  20.489  0.00  0.00    +0.000 A 
ATOM     16  C   UNL     1       2.817   3.790  20.593  0.00  0.00    +0.000 A 
ATOM     17  C   UNL     1       3.961   3.476  19.853  0.00  0.00    +0.000 A 
ATOM     18  C   UNL     1       4.501   4.431  18.984  0.00  0.00    +0.000 A 
ATOM     19  C   UNL     1       3.908   5.699  18.885  0.00  0.00    +0.000 A 
BRANCH  17  20
ATOM     20  C   UNL     1       4.510   2.099  19.993  0.00  0.00    +0.000 C 
ATOM     21  O   UNL     1       5.090   1.726  20.997  0.00  0.00    +0.000 OA
BRANCH  20  22
ATOM     22  O   UNL     1       4.347   1.315  18.908  0.00  0.00    +0.000 OA
ATOM     23  H   UNL     1       3.533   0.780  18.890  0.00  0.00    +0.000 HD
ENDBRANCH  20  22
ENDBRANCH  17  20
ENDBRANCH   4  14
TORSDOF 5
ENDMDL
MODEL 8
REMARK VINA RESULT:      -7.0      0.960      8.801
REMARK  Name = 
REMARK  6 active torsions:
REMARK  status: ('A' for Active; 'I' for Inactive)
REMARK    1  A    between atoms: C_1  and  O_2
REMARK    2  A    between atoms: O_2  and  C_3
REMARK    3  A    between atoms: C_6  and  C_7
REMARK    4  A    between atoms: C_10  and  C_11
REMARK    5  A    between atoms: C_14  and  C_15
REMARK    6  A    between atoms: C_15  and  O_17
REMARK                            x       y       z     vdW  Elec       q    Type
REMARK                         _______ _______ _______ _____ _____    ______ ____
ROOT
ATOM      1  C   UNL     1       3.493   5.519  18.261  0.00  0.00    +0.000 A 
ATOM      2  C   UNL     1       3.114   4.591  19.211  0.00  0.00    +0.000 A 
ATOM      3  S   UNL     1       2.147   5.336  20.408  0.00  0.00    +0.000 S 
ATOM      4  C   UNL     1       2.309   6.851  19.593  0.00  0.00    +0.000 A 
ATOM      5  N   UNL     1       3.011   6.804  18.482  0.00  0.00    +0.000 NA
ENDROOT
BRANCH   1   9
ATOM      6  C   UNL     1       6.007   4.558  14.946  0.00  0.00    +0.000 A 
ATOM      7  C   UNL     1       5.629   5.883  15.170  0.00  0.00    +0.000 A 
ATOM      8  C   UNL     1       4.833   6.219  16.270  0.00  0.00    +0.000 A 
ATOM      9  C   UNL     1       4.383   5.225  17.148  0.00  0.00    +0.000 A 
ATOM     10  C   UNL     1       4.774   3.900  16.921  0.00  0.00    +0.000 A 
ATOM     11  C   UNL     1       5.573   3.565  15.825  0.00  0.00    +0.000 A 
BRANCH   6  13
ATOM     12  C   UNL     1       6.115   3.614  12.788  0.00  0.00    +0.000 C 
ATOM     13  O   UNL     1       6.760   4.343  13.826  0.00  0.00    +0.000 OA
ENDBRANCH   6  13
ENDBRANCH   1   9
BRANCH   4  14
ATOM     14  C   UNL     1       1.658   8.064  20.118  0.00  0.00    +0.000 A 
ATOM     15  C   UNL     1       1.312   8.208  21.469  0.00  0.00    +0.000 A 
ATOM     16  C   UNL     1       0.697   9.374  21.932  0.00  0.00    +0.000 A 
ATOM     17  C   UNL     1       0.417  10.426  21.054  0.00  0.00    +0.000 A 
ATOM     18  C   UNL     1       0.781  10.313  19.709  0.00  0.00    +0.000 A 
ATOM     19  C   UNL     1       1.397   9.139  19.248  0.00  0.00    +0.000 A 
BRANCH  17  20
ATOM     20  C   UNL     1      -0.210  11.648  21.628  0.00  0.00    +0.000 C 
ATOM     21  O   UNL     1      -0.463  12.631  20.954  0.00  0.00    +0.000 OA
BRANCH  20  22
ATOM     22  O   UNL     1      -0.437  11.594  22.957  0.00  0.00    +0.000 OA
ATOM     23  H   UNL     1      -1.230  11.099  23.231  0.00  0.00    +0.000 HD
ENDBRANCH  20  22
ENDBRANCH  17  20
ENDBRANCH   4  14
TORSDOF 5
ENDMDL
MODEL 9
REMARK VINA RESULT:      -7.0      3.008      9.274
REMARK  Name = 
REMARK  6 active torsions:
REMARK  status: ('A' for Active; 'I' for Inactive)
REMARK    1  A    between atoms: C_1  and  O_2
REMARK    2  A    between atoms: O_2  and  C_3
REMARK    3  A    between atoms: C_6  and  C_7
REMARK    4  A    between atoms: C_10  and  C_11
REMARK    5  A    between atoms: C_14  and  C_15
REMARK    6  A    between atoms: C_15  and  O_17
REMARK                            x       y       z     vdW  Elec       q    Type
REMARK                         _______ _______ _______ _____ _____    ______ ____
ROOT
ATOM      1  C   UNL     1       2.200   7.616  19.270  0.00  0.00    +0.000 A 
ATOM      2  C   UNL     1       2.288   8.425  18.154  0.00  0.00    +0.000 A 
ATOM      3  S   UNL     1       1.406   9.868  18.404  0.00  0.00    +0.000 S 
ATOM      4  C   UNL     1       0.948   9.315  19.975  0.00  0.00    +0.000 A 
ATOM      5  N   UNL     1       1.445   8.144  20.310  0.00  0.00    +0.000 NA
ENDROOT
BRANCH   1   9
ATOM      6  C   UNL     1       3.760   3.647  19.487  0.00  0.00    +0.000 A 
ATOM      7  C   UNL     1       4.330   4.570  18.609  0.00  0.00    +0.000 A 
ATOM      8  C   UNL     1       3.852   5.883  18.550  0.00  0.00    +0.000 A 
ATOM      9  C   UNL     1       2.776   6.282  19.354  0.00  0.00    +0.000 A 
ATOM     10  C   UNL     1       2.216   5.352  20.237  0.00  0.00    +0.000 A 
ATOM     11  C   UNL     1       2.697   4.042  20.299  0.00  0.00    +0.000 A 
BRANCH   6  13
ATOM     12  C   UNL     1       3.647   1.492  18.538  0.00  0.00    +0.000 C 
ATOM     13  O   UNL     1       4.288   2.387  19.439  0.00  0.00    +0.000 OA
ENDBRANCH   6  13
ENDBRANCH   1   9
BRANCH   4  14
ATOM     14  C   UNL     1       0.101  10.143  20.850  0.00  0.00    +0.000 A 
ATOM     15  C   UNL     1      -0.530  11.312  20.399  0.00  0.00    +0.000 A 
ATOM     16  C   UNL     1      -1.329  12.072  21.258  0.00  0.00    +0.000 A 
ATOM     17  C   UNL     1      -1.518  11.680  22.587  0.00  0.00    +0.000 A 
ATOM     18  C   UNL     1      -0.920  10.501  23.046  0.00  0.00    +0.000 A 
ATOM     19  C   UNL     1      -0.118   9.742  22.181  0.00  0.00    +0.000 A 
BRANCH  17  20
ATOM     20  C   UNL     1      -2.409  12.524  23.430  0.00  0.00    +0.000 C 
ATOM     21  O   UNL     1      -2.132  13.673  23.724  0.00  0.00    +0.000 OA
BRANCH  20  22
ATOM     22  O   UNL     1      -3.522  11.903  23.870  0.00  0.00    +0.000 OA
ATOM     23  H   UNL     1      -4.259  11.853  23.235  0.00  0.00    +0.000 HD
ENDBRANCH  20  22
ENDBRANCH  17  20
ENDBRANCH   4  14
TORSDOF 5
ENDMDL
