MODEL 1
REMARK VINA RESULT:      -7.6      0.000      0.000
REMARK  Name = 
REMARK  6 active torsions:
REMARK  status: ('A' for Active; 'I' for Inactive)
REMARK    1  A    between atoms: C_1  and  C_2
REMARK    2  A    between atoms: N_9  and  C_10
REMARK    3  A    between atoms: C_11  and  C_12
REMARK    4  A    between atoms: C_12  and  C_13
REMARK    5  A    between atoms: C_19  and  O_20
REMARK    6  A    between atoms: C_25  and  C_26
REMARK                            x       y       z     vdW  Elec       q    Type
REMARK                         _______ _______ _______ _____ _____    ______ ____
ROOT
ATOM      1  C   UNL     1       0.274   3.241  19.757  0.00  0.00    +0.000 C 
ATOM      2  C   UNL     1       1.736   3.667  19.597  0.00  0.00    +0.000 C 
ATOM      3  C   UNL     1       2.581   2.910  20.609  0.00  0.00    +0.000 C 
ATOM      4  O   UNL     1       2.364   2.919  21.818  0.00  0.00    +0.000 OA
ATOM      5  O   UNL     1       3.557   2.135  20.079  0.00  0.00    +0.000 OA
ATOM      6  C   UNL     1       4.820   2.796  19.882  0.00  0.00    +0.000 C 
ATOM      7  C   UNL     1       4.872   3.357  18.462  0.00  0.00    +0.000 C 
ATOM      8  O   UNL     1       4.026   2.984  17.651  0.00  0.00    +0.000 OA
ATOM      9  N   UNL     1       5.826   4.318  18.151  0.00  0.00    +0.000 N 
ATOM     10  C   UNL     1       6.919   4.666  19.061  0.00  0.00    +0.000 C 
ATOM     11  C   UNL     1       5.664   5.195  16.948  0.00  0.00    +0.000 C 
ATOM     12  C   UNL     1       5.043   6.586  17.349  0.00  0.00    +0.000 C 
ATOM     13  C   UNL     1       3.627   6.955  16.884  0.00  0.00    +0.000 C 
ATOM     14  C   UNL     1       2.685   6.872  18.057  0.00  0.00    +0.000 C 
ATOM     15  O   UNL     1       2.224   7.830  18.657  0.00  0.00    +0.000 OA
ATOM     16  O   UNL     1       2.516   5.564  18.383  0.00  0.00    +0.000 OA
ATOM     17  C   UNL     1       1.901   5.211  19.653  0.00  0.00    +0.000 C 
ATOM     18  C   UNL     1       2.807   5.743  20.766  0.00  0.00    +0.000 C 
ENDROOT
BRANCH  12  19
ATOM     19  O   UNL     1       5.952   7.623  16.933  0.00  0.00    +0.000 OA
ATOM     20  H   UNL     1       6.557   7.254  16.268  0.00  0.00    +0.000 HD
ENDBRANCH  12  19
BRANCH  11  21
ATOM     21  C   UNL     1       5.019   4.555  15.682  0.00  0.00    +0.000 C 
BRANCH  21  22
ATOM     22  C   UNL     1       5.891   4.382  14.452  0.00  0.00    +0.000 A 
ATOM     23  C   UNL     1       7.066   5.149  14.357  0.00  0.00    +0.000 A 
ATOM     24  C   UNL     1       7.817   5.167  13.182  0.00  0.00    +0.000 A 
ATOM     25  C   UNL     1       7.417   4.398  12.095  0.00  0.00    +0.000 A 
ATOM     26  C   UNL     1       6.297   3.574  12.201  0.00  0.00    +0.000 A 
ATOM     27  C   UNL     1       5.547   3.551  13.380  0.00  0.00    +0.000 A 
ENDBRANCH  21  22
ENDBRANCH  11  21
TORSDOF 3
ENDMDL
MODEL 2
REMARK VINA RESULT:      -6.9      0.476      1.057
REMARK  Name = 
REMARK  6 active torsions:
REMARK  status: ('A' for Active; 'I' for Inactive)
REMARK    1  A    between atoms: C_1  and  C_2
REMARK    2  A    between atoms: N_9  and  C_10
REMARK    3  A    between atoms: C_11  and  C_12
REMARK    4  A    between atoms: C_12  and  C_13
REMARK    5  A    between atoms: C_19  and  O_20
REMARK    6  A    between atoms: C_25  and  C_26
REMARK                            x       y       z     vdW  Elec       q    Type
REMARK                         _______ _______ _______ _____ _____    ______ ____
ROOT
ATOM      1  C   UNL     1       0.257   3.668  19.452  0.00  0.00    +0.000 C 
ATOM      2  C   UNL     1       1.742   4.035  19.375  0.00  0.00    +0.000 C 
ATOM      3  C   UNL     1       2.457   3.440  20.577  0.00  0.00    +0.000 C 
ATOM      4  O   UNL     1       2.123   3.652  21.740  0.00  0.00    +0.000 OA
ATOM      5  O   UNL     1       3.453   2.571  20.282  0.00  0.00    +0.000 OA
ATOM      6  C   UNL     1       4.751   3.168  20.112  0.00  0.00    +0.000 C 
ATOM      7  C   UNL     1       4.962   3.487  18.632  0.00  0.00    +0.000 C 
ATOM      8  O   UNL     1       4.187   3.001  17.811  0.00  0.00    +0.000 OA
ATOM      9  N   UNL     1       5.974   4.366  18.270  0.00  0.00    +0.000 N 
ATOM     10  C   UNL     1       6.984   4.840  19.218  0.00  0.00    +0.000 C 
ATOM     11  C   UNL     1       5.961   5.036  16.930  0.00  0.00    +0.000 C 
ATOM     12  C   UNL     1       5.352   6.485  17.035  0.00  0.00    +0.000 C 
ATOM     13  C   UNL     1       4.002   6.798  16.374  0.00  0.00    +0.000 C 
ATOM     14  C   UNL     1       2.947   6.926  17.443  0.00  0.00    +0.000 C 
ATOM     15  O   UNL     1       2.462   7.977  17.829  0.00  0.00    +0.000 OA
ATOM     16  O   UNL     1       2.702   5.693  17.957  0.00  0.00    +0.000 OA
ATOM     17  C   UNL     1       1.954   5.564  19.197  0.00  0.00    +0.000 C 
ATOM     18  C   UNL     1       2.764   6.255  20.296  0.00  0.00    +0.000 C 
ENDROOT
BRANCH  12  19
ATOM     19  O   UNL     1       6.333   7.423  16.553  0.00  0.00    +0.000 OA
ATOM     20  H   UNL     1       7.195   6.975  16.513  0.00  0.00    +0.000 HD
ENDBRANCH  12  19
BRANCH  11  21
ATOM     21  C   UNL     1       5.421   4.208  15.726  0.00  0.00    +0.000 C 
BRANCH  21  22
ATOM     22  C   UNL     1       6.100   4.390  14.380  0.00  0.00    +0.000 A 
ATOM     23  C   UNL     1       5.571   3.706  13.271  0.00  0.00    +0.000 A 
ATOM     24  C   UNL     1       6.245   3.691  12.050  0.00  0.00    +0.000 A 
ATOM     25  C   UNL     1       7.444   4.383  11.914  0.00  0.00    +0.000 A 
ATOM     26  C   UNL     1       7.941   5.127  12.983  0.00  0.00    +0.000 A 
ATOM     27  C   UNL     1       7.264   5.147  14.205  0.00  0.00    +0.000 A 
ENDBRANCH  21  22
ENDBRANCH  11  21
TORSDOF 3
ENDMDL
MODEL 3
REMARK VINA RESULT:      -6.7      7.663     10.415
REMARK  Name = 
REMARK  6 active torsions:
REMARK  status: ('A' for Active; 'I' for Inactive)
REMARK    1  A    between atoms: C_1  and  C_2
REMARK    2  A    between atoms: N_9  and  C_10
REMARK    3  A    between atoms: C_11  and  C_12
REMARK    4  A    between atoms: C_12  and  C_13
REMARK    5  A    between atoms: C_19  and  O_20
REMARK    6  A    between atoms: C_25  and  C_26
REMARK                            x       y       z     vdW  Elec       q    Type
REMARK                         _______ _______ _______ _____ _____    ______ ____
ROOT
ATOM      1  C   UNL     1      -3.300  13.760  24.540  0.00  0.00    +0.000 C 
ATOM      2  C   UNL     1      -2.443  13.859  23.276  0.00  0.00    +0.000 C 
ATOM      3  C   UNL     1      -1.376  14.921  23.489  0.00  0.00    +0.000 C 
ATOM      4  O   UNL     1      -1.626  16.080  23.811  0.00  0.00    +0.000 OA
ATOM      5  O   UNL     1      -0.098  14.484  23.385  0.00  0.00    +0.000 OA
ATOM      6  C   UNL     1       0.457  14.537  22.059  0.00  0.00    +0.000 C 
ATOM      7  C   UNL     1       0.230  13.192  21.370  0.00  0.00    +0.000 C 
ATOM      8  O   UNL     1      -0.127  12.235  22.053  0.00  0.00    +0.000 OA
ATOM      9  N   UNL     1       0.365  13.112  19.989  0.00  0.00    +0.000 N 
ATOM     10  C   UNL     1       0.920  14.202  19.186  0.00  0.00    +0.000 C 
ATOM     11  C   UNL     1      -0.243  11.974  19.227  0.00  0.00    +0.000 C 
ATOM     12  C   UNL     1      -1.634  12.389  18.618  0.00  0.00    +0.000 C 
ATOM     13  C   UNL     1      -2.925  11.747  19.146  0.00  0.00    +0.000 C 
ATOM     14  C   UNL     1      -3.669  12.752  19.987  0.00  0.00    +0.000 C 
ATOM     15  O   UNL     1      -4.673  13.353  19.640  0.00  0.00    +0.000 OA
ATOM     16  O   UNL     1      -2.982  12.939  21.144  0.00  0.00    +0.000 OA
ATOM     17  C   UNL     1      -3.308  14.067  22.002  0.00  0.00    +0.000 C 
ATOM     18  C   UNL     1      -3.026  15.345  21.208  0.00  0.00    +0.000 C 
ENDROOT
BRANCH  12  19
ATOM     19  O   UNL     1      -1.575  12.205  17.190  0.00  0.00    +0.000 OA
ATOM     20  H   UNL     1      -0.643  12.123  16.928  0.00  0.00    +0.000 HD
ENDBRANCH  12  19
BRANCH  11  21
ATOM     21  C   UNL     1      -0.246  10.577  19.916  0.00  0.00    +0.000 C 
BRANCH  21  22
ATOM     22  C   UNL     1       0.822   9.580  19.502  0.00  0.00    +0.000 A 
ATOM     23  C   UNL     1       1.329   9.656  18.192  0.00  0.00    +0.000 A 
ATOM     24  C   UNL     1       2.179   8.668  17.695  0.00  0.00    +0.000 A 
ATOM     25  C   UNL     1       2.553   7.604  18.509  0.00  0.00    +0.000 A 
ATOM     26  C   UNL     1       2.118   7.556  19.833  0.00  0.00    +0.000 A 
ATOM     27  C   UNL     1       1.271   8.549  20.334  0.00  0.00    +0.000 A 
ENDBRANCH  21  22
ENDBRANCH  11  21
TORSDOF 3
ENDMDL
MODEL 4
REMARK VINA RESULT:      -6.4      7.839     10.666
REMARK  Name = 
REMARK  6 active torsions:
REMARK  status: ('A' for Active; 'I' for Inactive)
REMARK    1  A    between atoms: C_1  and  C_2
REMARK    2  A    between atoms: N_9  and  C_10
REMARK    3  A    between atoms: C_11  and  C_12
REMARK    4  A    between atoms: C_12  and  C_13
REMARK    5  A    between atoms: C_19  and  O_20
REMARK    6  A    between atoms: C_25  and  C_26
REMARK                            x       y       z     vdW  Elec       q    Type
REMARK                         _______ _______ _______ _____ _____    ______ ____
ROOT
ATOM      1  C   UNL     1      -2.357  14.712  24.698  0.00  0.00    +0.000 C 
ATOM      2  C   UNL     1      -1.673  14.652  23.330  0.00  0.00    +0.000 C 
ATOM      3  C   UNL     1      -0.609  15.736  23.266  0.00  0.00    +0.000 C 
ATOM      4  O   UNL     1      -0.838  16.926  23.470  0.00  0.00    +0.000 OA
ATOM      5  O   UNL     1       0.653  15.293  23.052  0.00  0.00    +0.000 OA
ATOM      6  C   UNL     1       1.031  15.179  21.668  0.00  0.00    +0.000 C 
ATOM      7  C   UNL     1       0.743  13.757  21.189  0.00  0.00    +0.000 C 
ATOM      8  O   UNL     1       0.497  12.893  22.028  0.00  0.00    +0.000 OA
ATOM      9  N   UNL     1       0.700  13.502  19.824  0.00  0.00    +0.000 N 
ATOM     10  C   UNL     1       1.125  14.484  18.825  0.00  0.00    +0.000 C 
ATOM     11  C   UNL     1       0.022  12.275  19.297  0.00  0.00    +0.000 C 
ATOM     12  C   UNL     1      -1.445  12.605  18.828  0.00  0.00    +0.000 C 
ATOM     13  C   UNL     1      -2.643  12.031  19.597  0.00  0.00    +0.000 C 
ATOM     14  C   UNL     1      -3.292  13.133  20.395  0.00  0.00    +0.000 C 
ATOM     15  O   UNL     1      -4.344  13.681  20.110  0.00  0.00    +0.000 OA
ATOM     16  O   UNL     1      -2.465  13.467  21.419  0.00  0.00    +0.000 OA
ATOM     17  C   UNL     1      -2.699  14.694  22.164  0.00  0.00    +0.000 C 
ATOM     18  C   UNL     1      -2.548  15.862  21.186  0.00  0.00    +0.000 C 
ENDROOT
BRANCH  12  19
ATOM     19  O   UNL     1      -1.567  12.241  17.439  0.00  0.00    +0.000 OA
ATOM     20  H   UNL     1      -1.415  13.034  16.898  0.00  0.00    +0.000 HD
ENDBRANCH  12  19
BRANCH  11  21
ATOM     21  C   UNL     1       0.136  10.977  20.151  0.00  0.00    +0.000 C 
BRANCH  21  22
ATOM     22  C   UNL     1       0.843   9.783  19.534  0.00  0.00    +0.000 A 
ATOM     23  C   UNL     1       1.185   8.707  20.373  0.00  0.00    +0.000 A 
ATOM     24  C   UNL     1       1.984   7.663  19.908  0.00  0.00    +0.000 A 
ATOM     25  C   UNL     1       2.431   7.668  18.591  0.00  0.00    +0.000 A 
ATOM     26  C   UNL     1       2.037   8.689  17.728  0.00  0.00    +0.000 A 
ATOM     27  C   UNL     1       1.231   9.733  18.191  0.00  0.00    +0.000 A 
ENDBRANCH  21  22
ENDBRANCH  11  21
TORSDOF 3
ENDMDL
MODEL 5
REMARK VINA RESULT:      -6.4      6.760      9.641
REMARK  Name = 
REMARK  6 active torsions:
REMARK  status: ('A' for Active; 'I' for Inactive)
REMARK    1  A    between atoms: C_1  and  C_2
REMARK    2  A    between atoms: N_9  and  C_10
REMARK    3  A    between atoms: C_11  and  C_12
REMARK    4  A    between atoms: C_12  and  C_13
REMARK    5  A    between atoms: C_19  and  O_20
REMARK    6  A    between atoms: C_25  and  C_26
REMARK                            x       y       z     vdW  Elec       q    Type
REMARK                         _______ _______ _______ _____ _____    ______ ____
ROOT
ATOM      1  C   UNL     1      -1.346  14.303  24.102  0.00  0.00    +0.000 C 
ATOM      2  C   UNL     1      -0.753  14.063  22.711  0.00  0.00    +0.000 C 
ATOM      3  C   UNL     1       0.301  15.124  22.438  0.00  0.00    +0.000 C 
ATOM      4  O   UNL     1       0.084  16.331  22.502  0.00  0.00    +0.000 OA
ATOM      5  O   UNL     1       1.548  14.648  22.200  0.00  0.00    +0.000 OA
ATOM      6  C   UNL     1       1.834  14.355  20.821  0.00  0.00    +0.000 C 
ATOM      7  C   UNL     1       1.518  12.885  20.550  0.00  0.00    +0.000 C 
ATOM      8  O   UNL     1       1.329  12.138  21.507  0.00  0.00    +0.000 OA
ATOM      9  N   UNL     1       1.385  12.456  19.235  0.00  0.00    +0.000 N 
ATOM     10  C   UNL     1       1.741  13.297  18.091  0.00  0.00    +0.000 C 
ATOM     11  C   UNL     1       0.676  11.176  18.917  0.00  0.00    +0.000 C 
ATOM     12  C   UNL     1      -0.819  11.451  18.506  0.00  0.00    +0.000 C 
ATOM     13  C   UNL     1      -1.962  10.989  19.420  0.00  0.00    +0.000 C 
ATOM     14  C   UNL     1      -2.559  12.189  20.110  0.00  0.00    +0.000 C 
ATOM     15  O   UNL     1      -3.630  12.702  19.827  0.00  0.00    +0.000 OA
ATOM     16  O   UNL     1      -1.668  12.647  21.026  0.00  0.00    +0.000 OA
ATOM     17  C   UNL     1      -1.855  13.961  21.620  0.00  0.00    +0.000 C 
ATOM     18  C   UNL     1      -1.771  14.992  20.492  0.00  0.00    +0.000 C 
ENDROOT
BRANCH  12  19
ATOM     19  O   UNL     1      -1.032  10.912  17.187  0.00  0.00    +0.000 OA
ATOM     20  H   UNL     1      -1.451  11.596  16.638  0.00  0.00    +0.000 HD
ENDBRANCH  12  19
BRANCH  11  21
ATOM     21  C   UNL     1       0.849   9.997  19.921  0.00  0.00    +0.000 C 
BRANCH  21  22
ATOM     22  C   UNL     1       1.481   8.715  19.408  0.00  0.00    +0.000 A 
ATOM     23  C   UNL     1       1.659   7.654  20.314  0.00  0.00    +0.000 A 
ATOM     24  C   UNL     1       2.386   6.520  19.953  0.00  0.00    +0.000 A 
ATOM     25  C   UNL     1       2.923   6.421  18.674  0.00  0.00    +0.000 A 
ATOM     26  C   UNL     1       2.690   7.431  17.743  0.00  0.00    +0.000 A 
ATOM     27  C   UNL     1       1.956   8.566  18.101  0.00  0.00    +0.000 A 
ENDBRANCH  21  22
ENDBRANCH  11  21
TORSDOF 3
ENDMDL
MODEL 6
REMARK VINA RESULT:      -6.2      8.338     11.062
REMARK  Name = 
REMARK  6 active torsions:
REMARK  status: ('A' for Active; 'I' for Inactive)
REMARK    1  A    between atoms: C_1  and  C_2
REMARK    2  A    between atoms: N_9  and  C_10
REMARK    3  A    between atoms: C_11  and  C_12
REMARK    4  A    between atoms: C_12  and  C_13
REMARK    5  A    between atoms: C_19  and  O_20
REMARK    6  A    between atoms: C_25  and  C_26
REMARK                            x       y       z     vdW  Elec       q    Type
REMARK                         _______ _______ _______ _____ _____    ______ ____
ROOT
ATOM      1  C   UNL     1      -6.658  12.403  22.718  0.00  0.00    +0.000 C 
ATOM      2  C   UNL     1      -5.396  12.896  22.005  0.00  0.00    +0.000 C 
ATOM      3  C   UNL     1      -4.930  14.182  22.667  0.00  0.00    +0.000 C 
ATOM      4  O   UNL     1      -5.642  15.174  22.803  0.00  0.00    +0.000 OA
ATOM      5  O   UNL     1      -3.681  14.141  23.190  0.00  0.00    +0.000 OA
ATOM      6  C   UNL     1      -2.628  14.512  22.281  0.00  0.00    +0.000 C 
ATOM      7  C   UNL     1      -2.090  13.254  21.602  0.00  0.00    +0.000 C 
ATOM      8  O   UNL     1      -2.405  12.158  22.061  0.00  0.00    +0.000 OA
ATOM      9  N   UNL     1      -1.324  13.385  20.451  0.00  0.00    +0.000 N 
ATOM     10  C   UNL     1      -0.829  14.679  19.976  0.00  0.00    +0.000 C 
ATOM     11  C   UNL     1      -1.134  12.226  19.522  0.00  0.00    +0.000 C 
ATOM     12  C   UNL     1      -2.146  12.302  18.318  0.00  0.00    +0.000 C 
ATOM     13  C   UNL     1      -3.267  11.260  18.192  0.00  0.00    +0.000 C 
ATOM     14  C   UNL     1      -4.581  11.902  18.557  0.00  0.00    +0.000 C 
ATOM     15  O   UNL     1      -5.447  12.231  17.761  0.00  0.00    +0.000 OA
ATOM     16  O   UNL     1      -4.592  12.132  19.895  0.00  0.00    +0.000 OA
ATOM     17  C   UNL     1      -5.603  13.006  20.468  0.00  0.00    +0.000 C 
ATOM     18  C   UNL     1      -5.399  14.399  19.868  0.00  0.00    +0.000 C 
ENDROOT
BRANCH  12  19
ATOM     19  O   UNL     1      -1.389  12.319  17.092  0.00  0.00    +0.000 OA
ATOM     20  H   UNL     1      -1.285  13.242  16.807  0.00  0.00    +0.000 HD
ENDBRANCH  12  19
BRANCH  11  21
ATOM     21  C   UNL     1      -1.020  10.810  20.165  0.00  0.00    +0.000 C 
BRANCH  21  22
ATOM     22  C   UNL     1       0.155   9.940  19.758  0.00  0.00    +0.000 A 
ATOM     23  C   UNL     1       0.571   9.969  18.415  0.00  0.00    +0.000 A 
ATOM     24  C   UNL     1       1.525   9.070  17.941  0.00  0.00    +0.000 A 
ATOM     25  C   UNL     1       2.096   8.146  18.809  0.00  0.00    +0.000 A 
ATOM     26  C   UNL     1       1.749   8.156  20.159  0.00  0.00    +0.000 A 
ATOM     27  C   UNL     1       0.797   9.060  20.637  0.00  0.00    +0.000 A 
ENDBRANCH  21  22
ENDBRANCH  11  21
TORSDOF 3
ENDMDL
MODEL 7
REMARK VINA RESULT:      -6.2      8.422     11.076
REMARK  Name = 
REMARK  6 active torsions:
REMARK  status: ('A' for Active; 'I' for Inactive)
REMARK    1  A    between atoms: C_1  and  C_2
REMARK    2  A    between atoms: N_9  and  C_10
REMARK    3  A    between atoms: C_11  and  C_12
REMARK    4  A    between atoms: C_12  and  C_13
REMARK    5  A    between atoms: C_19  and  O_20
REMARK    6  A    between atoms: C_25  and  C_26
REMARK                            x       y       z     vdW  Elec       q    Type
REMARK                         _______ _______ _______ _____ _____    ______ ____
ROOT
ATOM      1  C   UNL     1      -6.027  12.680  23.907  0.00  0.00    +0.000 C 
ATOM      2  C   UNL     1      -4.774  13.126  23.149  0.00  0.00    +0.000 C 
ATOM      3  C   UNL     1      -4.097  14.239  23.932  0.00  0.00    +0.000 C 
ATOM      4  O   UNL     1      -4.665  15.274  24.270  0.00  0.00    +0.000 OA
ATOM      5  O   UNL     1      -2.826  13.979  24.320  0.00  0.00    +0.000 OA
ATOM      6  C   UNL     1      -1.811  14.357  23.373  0.00  0.00    +0.000 C 
ATOM      7  C   UNL     1      -1.492  13.159  22.479  0.00  0.00    +0.000 C 
ATOM      8  O   UNL     1      -1.906  12.051  22.813  0.00  0.00    +0.000 OA
ATOM      9  N   UNL     1      -0.810  13.370  21.288  0.00  0.00    +0.000 N 
ATOM     10  C   UNL     1      -0.195  14.655  20.949  0.00  0.00    +0.000 C 
ATOM     11  C   UNL     1      -0.843  12.346  20.197  0.00  0.00    +0.000 C 
ATOM     12  C   UNL     1      -1.930  12.713  19.118  0.00  0.00    +0.000 C 
ATOM     13  C   UNL     1      -3.180  11.836  18.961  0.00  0.00    +0.000 C 
ATOM     14  C   UNL     1      -4.370  12.562  19.535  0.00  0.00    +0.000 C 
ATOM     15  O   UNL     1      -5.247  13.101  18.880  0.00  0.00    +0.000 OA
ATOM     16  O   UNL     1      -4.244  12.593  20.887  0.00  0.00    +0.000 OA
ATOM     17  C   UNL     1      -5.087  13.483  21.670  0.00  0.00    +0.000 C 
ATOM     18  C   UNL     1      -4.757  14.917  21.248  0.00  0.00    +0.000 C 
ENDROOT
BRANCH  12  19
ATOM     19  O   UNL     1      -1.278  12.823  17.838  0.00  0.00    +0.000 OA
ATOM     20  H   UNL     1      -0.563  12.165  17.799  0.00  0.00    +0.000 HD
ENDBRANCH  12  19
BRANCH  11  21
ATOM     21  C   UNL     1      -0.859  10.848  20.626  0.00  0.00    +0.000 C 
BRANCH  21  22
ATOM     22  C   UNL     1       0.078   9.894  19.906  0.00  0.00    +0.000 A 
ATOM     23  C   UNL     1       0.782   8.948  20.673  0.00  0.00    +0.000 A 
ATOM     24  C   UNL     1       1.782   8.164  20.100  0.00  0.00    +0.000 A 
ATOM     25  C   UNL     1       2.074   8.296  18.747  0.00  0.00    +0.000 A 
ATOM     26  C   UNL     1       1.333   9.175  17.959  0.00  0.00    +0.000 A 
ATOM     27  C   UNL     1       0.326   9.958  18.531  0.00  0.00    +0.000 A 
ENDBRANCH  21  22
ENDBRANCH  11  21
TORSDOF 3
ENDMDL
MODEL 8
REMARK VINA RESULT:      -6.0      8.634     10.988
REMARK  Name = 
REMARK  6 active torsions:
REMARK  status: ('A' for Active; 'I' for Inactive)
REMARK    1  A    between atoms: C_1  and  C_2
REMARK    2  A    between atoms: N_9  and  C_10
REMARK    3  A    between atoms: C_11  and  C_12
REMARK    4  A    between atoms: C_12  and  C_13
REMARK    5  A    between atoms: C_19  and  O_20
REMARK    6  A    between atoms: C_25  and  C_26
REMARK                            x       y       z     vdW  Elec       q    Type
REMARK                         _______ _______ _______ _____ _____    ______ ____
ROOT
ATOM      1  C   UNL     1      -2.288  16.760  22.624  0.00  0.00    +0.000 C 
ATOM      2  C   UNL     1      -1.678  15.387  22.334  0.00  0.00    +0.000 C 
ATOM      3  C   UNL     1      -1.427  14.673  23.652  0.00  0.00    +0.000 C 
ATOM      4  O   UNL     1      -0.755  15.147  24.565  0.00  0.00    +0.000 OA
ATOM      5  O   UNL     1      -2.076  13.493  23.801  0.00  0.00    +0.000 OA
ATOM      6  C   UNL     1      -1.360  12.341  23.320  0.00  0.00    +0.000 C 
ATOM      7  C   UNL     1      -1.769  12.070  21.873  0.00  0.00    +0.000 C 
ATOM      8  O   UNL     1      -2.756  12.647  21.423  0.00  0.00    +0.000 OA
ATOM      9  N   UNL     1      -0.975  11.238  21.093  0.00  0.00    +0.000 N 
ATOM     10  C   UNL     1       0.118  10.441  21.652  0.00  0.00    +0.000 C 
ATOM     11  C   UNL     1      -1.070  11.272  19.599  0.00  0.00    +0.000 C 
ATOM     12  C   UNL     1       0.061  12.180  18.987  0.00  0.00    +0.000 C 
ATOM     13  C   UNL     1      -0.307  13.500  18.295  0.00  0.00    +0.000 C 
ATOM     14  C   UNL     1       0.083  14.651  19.188  0.00  0.00    +0.000 C 
ATOM     15  O   UNL     1       1.047  15.380  19.014  0.00  0.00    +0.000 OA
ATOM     16  O   UNL     1      -0.758  14.675  20.253  0.00  0.00    +0.000 OA
ATOM     17  C   UNL     1      -0.430  15.487  21.414  0.00  0.00    +0.000 C 
ATOM     18  C   UNL     1       0.875  14.944  22.001  0.00  0.00    +0.000 C 
ENDROOT
BRANCH  12  19
ATOM     19  O   UNL     1       0.839  11.381  18.075  0.00  0.00    +0.000 OA
ATOM     20  H   UNL     1       0.235  10.797  17.584  0.00  0.00    +0.000 HD
ENDBRANCH  12  19
BRANCH  11  21
ATOM     21  C   UNL     1      -2.480  11.514  18.981  0.00  0.00    +0.000 C 
BRANCH  21  22
ATOM     22  C   UNL     1      -2.731  11.011  17.570  0.00  0.00    +0.000 A 
ATOM     23  C   UNL     1      -3.783  11.588  16.837  0.00  0.00    +0.000 A 
ATOM     24  C   UNL     1      -4.175  11.057  15.608  0.00  0.00    +0.000 A 
ATOM     25  C   UNL     1      -3.504   9.957  15.085  0.00  0.00    +0.000 A 
ATOM     26  C   UNL     1      -2.411   9.422  15.766  0.00  0.00    +0.000 A 
ATOM     27  C   UNL     1      -2.013   9.957  16.993  0.00  0.00    +0.000 A 
ENDBRANCH  21  22
ENDBRANCH  11  21
TORSDOF 3
ENDMDL
MODEL 9
REMARK VINA RESULT:      -6.0      9.867     11.979
REMARK  Name = 
REMARK  6 active torsions:
REMARK  status: ('A' for Active; 'I' for Inactive)
REMARK    1  A    between atoms: C_1  and  C_2
REMARK    2  A    between atoms: N_9  and  C_10
REMARK    3  A    between atoms: C_11  and  C_12
REMARK    4  A    between atoms: C_12  and  C_13
REMARK    5  A    between atoms: C_19  and  O_20
REMARK    6  A    between atoms: C_25  and  C_26
REMARK                            x       y       z     vdW  Elec       q    Type
REMARK                         _______ _______ _______ _____ _____    ______ ____
ROOT
ATOM      1  C   UNL     1      10.097  11.067  20.317  0.00  0.00    +0.000 C 
ATOM      2  C   UNL     1       9.714  12.507  19.965  0.00  0.00    +0.000 C 
ATOM      3  C   UNL     1      10.867  13.151  19.213  0.00  0.00    +0.000 C 
ATOM      4  O   UNL     1      12.014  13.211  19.649  0.00  0.00    +0.000 OA
ATOM      5  O   UNL     1      10.569  13.589  17.966  0.00  0.00    +0.000 OA
ATOM      6  C   UNL     1      10.085  14.942  17.896  0.00  0.00    +0.000 C 
ATOM      7  C   UNL     1       8.558  14.929  17.961  0.00  0.00    +0.000 C 
ATOM      8  O   UNL     1       7.973  13.858  17.812  0.00  0.00    +0.000 OA
ATOM      9  N   UNL     1       7.886  16.108  18.254  0.00  0.00    +0.000 N 
ATOM     10  C   UNL     1       8.558  17.408  18.297  0.00  0.00    +0.000 C 
ATOM     11  C   UNL     1       6.471  16.080  18.744  0.00  0.00    +0.000 C 
ATOM     12  C   UNL     1       6.420  16.186  20.314  0.00  0.00    +0.000 C 
ATOM     13  C   UNL     1       5.946  14.987  21.148  0.00  0.00    +0.000 C 
ATOM     14  C   UNL     1       7.135  14.357  21.827  0.00  0.00    +0.000 C 
ATOM     15  O   UNL     1       7.407  14.466  23.012  0.00  0.00    +0.000 OA
ATOM     16  O   UNL     1       7.890  13.734  20.886  0.00  0.00    +0.000 OA
ATOM     17  C   UNL     1       9.240  13.303  21.212  0.00  0.00    +0.000 C 
ATOM     18  C   UNL     1      10.053  14.555  21.551  0.00  0.00    +0.000 C 
ENDROOT
BRANCH  12  19
ATOM     19  O   UNL     1       5.627  17.336  20.664  0.00  0.00    +0.000 OA
ATOM     20  H   UNL     1       5.236  17.186  21.542  0.00  0.00    +0.000 HD
ENDBRANCH  12  19
BRANCH  11  21
ATOM     21  C   UNL     1       5.535  14.984  18.153  0.00  0.00    +0.000 C 
BRANCH  21  22
ATOM     22  C   UNL     1       4.037  15.221  18.217  0.00  0.00    +0.000 A 
ATOM     23  C   UNL     1       3.552  16.499  17.884  0.00  0.00    +0.000 A 
ATOM     24  C   UNL     1       2.213  16.832  18.089  0.00  0.00    +0.000 A 
ATOM     25  C   UNL     1       1.336  15.883  18.604  0.00  0.00    +0.000 A 
ATOM     26  C   UNL     1       1.786  14.591  18.866  0.00  0.00    +0.000 A 
ATOM     27  C   UNL     1       3.126  14.254  18.657  0.00  0.00    +0.000 A 
ENDBRANCH  21  22
ENDBRANCH  11  21
TORSDOF 3
ENDMDL
