MODEL 1
REMARK VINA RESULT:      -7.1      0.000      0.000
REMARK  Name = 
REMARK  8 active torsions:
REMARK  status: ('A' for Active; 'I' for Inactive)
REMARK    1  A    between atoms: C_1  and  C_2
REMARK    2  A    between atoms: C_4  and  O_5
REMARK    3  A    between atoms: C_7  and  O_8
REMARK    4  A    between atoms: O_8  and  C_9
REMARK    5  A    between atoms: C_9  and  C_11
REMARK    6  A    between atoms: C_12  and  C_13
REMARK    7  A    between atoms: C_15  and  O_16
REMARK    8  A    between atoms: C_18  and  O_19
REMARK                            x       y       z     vdW  Elec       q    Type
REMARK                         _______ _______ _______ _____ _____    ______ ____
ROOT
ATOM      1  C   UNL     1       4.493   4.191  16.929  0.00  0.00    +0.000 C 
ATOM      2  O   UNL     1       4.630   3.067  16.460  0.00  0.00    +0.000 OA
ENDROOT
BRANCH   1   3
ATOM      3  C   UNL     1       5.647   5.039  17.342  0.00  0.00    +0.000 A 
ATOM      4  C   UNL     1       5.980   6.221  16.636  0.00  0.00    +0.000 A 
ATOM      5  C   UNL     1       5.331   6.661  15.349  0.00  0.00    +0.000 C 
ATOM      6  C   UNL     1       6.975   7.072  17.159  0.00  0.00    +0.000 A 
ATOM      7  C   UNL     1       7.630   6.751  18.343  0.00  0.00    +0.000 A 
ATOM      8  C   UNL     1       7.329   5.585  19.027  0.00  0.00    +0.000 A 
ATOM      9  C   UNL     1       6.332   4.741  18.538  0.00  0.00    +0.000 A 
BRANCH   7  10
ATOM     10  O   UNL     1       8.573   7.574  18.882  0.00  0.00    +0.000 OA
ATOM     11  H   UNL     1       9.441   7.346  18.512  0.00  0.00    +0.000 HD
ENDBRANCH   7  10
BRANCH   9  12
ATOM     12  O   UNL     1       5.997   3.641  19.280  0.00  0.00    +0.000 OA
ATOM     13  H   UNL     1       5.728   3.915  20.173  0.00  0.00    +0.000 HD
ENDBRANCH   9  12
ENDBRANCH   1   3
BRANCH   1  14
ATOM     14  O   UNL     1       3.294   4.859  17.133  0.00  0.00    +0.000 OA
BRANCH  14  20
ATOM     15  C   UNL     1       1.248   2.867  21.194  0.00  0.00    +0.000 C 
ATOM     16  C   UNL     1       1.736   4.061  20.430  0.00  0.00    +0.000 A 
ATOM     17  C   UNL     1       1.623   5.355  20.952  0.00  0.00    +0.000 A 
ATOM     18  C   UNL     1       2.082   6.444  20.211  0.00  0.00    +0.000 A 
ATOM     19  C   UNL     1       2.665   6.271  18.960  0.00  0.00    +0.000 A 
ATOM     20  C   UNL     1       2.795   4.982  18.447  0.00  0.00    +0.000 A 
ATOM     21  C   UNL     1       2.314   3.883  19.165  0.00  0.00    +0.000 A 
BRANCH  18  22
ATOM     22  O   UNL     1       1.959   7.718  20.691  0.00  0.00    +0.000 OA
ATOM     23  H   UNL     1       2.560   7.823  21.448  0.00  0.00    +0.000 HD
ENDBRANCH  18  22
ENDBRANCH  14  20
ENDBRANCH   1  14
TORSDOF 6
ENDMDL
MODEL 2
REMARK VINA RESULT:      -7.1      1.878      5.702
REMARK  Name = 
REMARK  8 active torsions:
REMARK  status: ('A' for Active; 'I' for Inactive)
REMARK    1  A    between atoms: C_1  and  C_2
REMARK    2  A    between atoms: C_4  and  O_5
REMARK    3  A    between atoms: C_7  and  O_8
REMARK    4  A    between atoms: O_8  and  C_9
REMARK    5  A    between atoms: C_9  and  C_11
REMARK    6  A    between atoms: C_12  and  C_13
REMARK    7  A    between atoms: C_15  and  O_16
REMARK    8  A    between atoms: C_18  and  O_19
REMARK                            x       y       z     vdW  Elec       q    Type
REMARK                         _______ _______ _______ _____ _____    ______ ____
ROOT
ATOM      1  C   UNL     1       2.581   5.983  18.200  0.00  0.00    +0.000 C 
ATOM      2  O   UNL     1       1.758   6.341  17.366  0.00  0.00    +0.000 OA
ENDROOT
BRANCH   1   3
ATOM      3  C   UNL     1       2.315   4.892  19.180  0.00  0.00    +0.000 A 
ATOM      4  C   UNL     1       2.358   3.531  18.793  0.00  0.00    +0.000 A 
ATOM      5  C   UNL     1       2.521   3.048  17.375  0.00  0.00    +0.000 C 
ATOM      6  C   UNL     1       2.259   2.534  19.786  0.00  0.00    +0.000 A 
ATOM      7  C   UNL     1       2.108   2.881  21.124  0.00  0.00    +0.000 A 
ATOM      8  C   UNL     1       2.039   4.210  21.509  0.00  0.00    +0.000 A 
ATOM      9  C   UNL     1       2.157   5.211  20.545  0.00  0.00    +0.000 A 
BRANCH   7  10
ATOM     10  O   UNL     1       2.041   1.935  22.103  0.00  0.00    +0.000 OA
ATOM     11  H   UNL     1       1.401   2.220  22.775  0.00  0.00    +0.000 HD
ENDBRANCH   7  10
BRANCH   9  12
ATOM     12  O   UNL     1       2.172   6.513  20.965  0.00  0.00    +0.000 OA
ATOM     13  H   UNL     1       1.261   6.841  21.056  0.00  0.00    +0.000 HD
ENDBRANCH   9  12
ENDBRANCH   1   3
BRANCH   1  14
ATOM     14  O   UNL     1       3.862   6.490  18.365  0.00  0.00    +0.000 OA
BRANCH  14  20
ATOM     15  C   UNL     1       5.784   4.385  14.300  0.00  0.00    +0.000 C 
ATOM     16  C   UNL     1       5.894   4.777  15.744  0.00  0.00    +0.000 A 
ATOM     17  C   UNL     1       7.025   4.454  16.502  0.00  0.00    +0.000 A 
ATOM     18  C   UNL     1       7.090   4.828  17.844  0.00  0.00    +0.000 A 
ATOM     19  C   UNL     1       6.054   5.531  18.448  0.00  0.00    +0.000 A 
ATOM     20  C   UNL     1       4.935   5.871  17.690  0.00  0.00    +0.000 A 
ATOM     21  C   UNL     1       4.842   5.478  16.351  0.00  0.00    +0.000 A 
BRANCH  18  22
ATOM     22  O   UNL     1       8.174   4.500  18.609  0.00  0.00    +0.000 OA
ATOM     23  H   UNL     1       8.950   4.975  18.267  0.00  0.00    +0.000 HD
ENDBRANCH  18  22
ENDBRANCH  14  20
ENDBRANCH   1  14
TORSDOF 6
ENDMDL
MODEL 3
REMARK VINA RESULT:      -7.1      1.612      5.549
REMARK  Name = 
REMARK  8 active torsions:
REMARK  status: ('A' for Active; 'I' for Inactive)
REMARK    1  A    between atoms: C_1  and  C_2
REMARK    2  A    between atoms: C_4  and  O_5
REMARK    3  A    between atoms: C_7  and  O_8
REMARK    4  A    between atoms: O_8  and  C_9
REMARK    5  A    between atoms: C_9  and  C_11
REMARK    6  A    between atoms: C_12  and  C_13
REMARK    7  A    between atoms: C_15  and  O_16
REMARK    8  A    between atoms: C_18  and  O_19
REMARK                            x       y       z     vdW  Elec       q    Type
REMARK                         _______ _______ _______ _____ _____    ______ ____
ROOT
ATOM      1  C   UNL     1       2.457   3.968  17.877  0.00  0.00    +0.000 C 
ATOM      2  O   UNL     1       1.721   3.645  16.952  0.00  0.00    +0.000 OA
ENDROOT
BRANCH   1   3
ATOM      3  C   UNL     1       2.129   5.074  18.821  0.00  0.00    +0.000 A 
ATOM      4  C   UNL     1       1.573   4.811  20.096  0.00  0.00    +0.000 A 
ATOM      5  C   UNL     1       1.123   3.453  20.571  0.00  0.00    +0.000 C 
ATOM      6  C   UNL     1       1.430   5.872  21.012  0.00  0.00    +0.000 A 
ATOM      7  C   UNL     1       1.819   7.162  20.667  0.00  0.00    +0.000 A 
ATOM      8  C   UNL     1       2.342   7.434  19.413  0.00  0.00    +0.000 A 
ATOM      9  C   UNL     1       2.510   6.393  18.500  0.00  0.00    +0.000 A 
BRANCH   7  10
ATOM     10  O   UNL     1       1.720   8.197  21.548  0.00  0.00    +0.000 OA
ATOM     11  H   UNL     1       0.800   8.266  21.853  0.00  0.00    +0.000 HD
ENDBRANCH   7  10
BRANCH   9  12
ATOM     12  O   UNL     1       3.107   6.677  17.302  0.00  0.00    +0.000 OA
ATOM     13  H   UNL     1       4.006   6.307  17.285  0.00  0.00    +0.000 HD
ENDBRANCH   9  12
ENDBRANCH   1   3
BRANCH   1  14
ATOM     14  O   UNL     1       3.667   3.377  18.212  0.00  0.00    +0.000 OA
BRANCH  14  20
ATOM     15  C   UNL     1       6.604   4.285  14.314  0.00  0.00    +0.000 C 
ATOM     16  C   UNL     1       6.354   4.305  15.793  0.00  0.00    +0.000 A 
ATOM     17  C   UNL     1       7.332   4.749  16.691  0.00  0.00    +0.000 A 
ATOM     18  C   UNL     1       7.067   4.747  18.060  0.00  0.00    +0.000 A 
ATOM     19  C   UNL     1       5.839   4.322  18.557  0.00  0.00    +0.000 A 
ATOM     20  C   UNL     1       4.858   3.899  17.663  0.00  0.00    +0.000 A 
ATOM     21  C   UNL     1       5.118   3.868  16.289  0.00  0.00    +0.000 A 
BRANCH  18  22
ATOM     22  O   UNL     1       8.016   5.152  18.957  0.00  0.00    +0.000 OA
ATOM     23  H   UNL     1       8.863   5.243  18.489  0.00  0.00    +0.000 HD
ENDBRANCH  18  22
ENDBRANCH  14  20
ENDBRANCH   1  14
TORSDOF 6
ENDMDL
MODEL 4
REMARK VINA RESULT:      -7.0      1.878      5.547
REMARK  Name = 
REMARK  8 active torsions:
REMARK  status: ('A' for Active; 'I' for Inactive)
REMARK    1  A    between atoms: C_1  and  C_2
REMARK    2  A    between atoms: C_4  and  O_5
REMARK    3  A    between atoms: C_7  and  O_8
REMARK    4  A    between atoms: O_8  and  C_9
REMARK    5  A    between atoms: C_9  and  C_11
REMARK    6  A    between atoms: C_12  and  C_13
REMARK    7  A    between atoms: C_15  and  O_16
REMARK    8  A    between atoms: C_18  and  O_19
REMARK                            x       y       z     vdW  Elec       q    Type
REMARK                         _______ _______ _______ _____ _____    ______ ____
ROOT
ATOM      1  C   UNL     1       2.576   3.889  17.831  0.00  0.00    +0.000 C 
ATOM      2  O   UNL     1       1.893   3.595  16.857  0.00  0.00    +0.000 OA
ENDROOT
BRANCH   1   3
ATOM      3  C   UNL     1       2.210   4.984  18.773  0.00  0.00    +0.000 A 
ATOM      4  C   UNL     1       1.616   4.707  20.028  0.00  0.00    +0.000 A 
ATOM      5  C   UNL     1       1.163   3.342  20.478  0.00  0.00    +0.000 C 
ATOM      6  C   UNL     1       1.437   5.761  20.947  0.00  0.00    +0.000 A 
ATOM      7  C   UNL     1       1.826   7.056  20.624  0.00  0.00    +0.000 A 
ATOM      8  C   UNL     1       2.385   7.341  19.389  0.00  0.00    +0.000 A 
ATOM      9  C   UNL     1       2.590   6.309  18.474  0.00  0.00    +0.000 A 
BRANCH   7  10
ATOM     10  O   UNL     1       1.691   8.084  21.509  0.00  0.00    +0.000 OA
ATOM     11  H   UNL     1       2.287   7.934  22.261  0.00  0.00    +0.000 HD
ENDBRANCH   7  10
BRANCH   9  12
ATOM     12  O   UNL     1       3.223   6.607  17.297  0.00  0.00    +0.000 OA
ATOM     13  H   UNL     1       4.185   6.538  17.413  0.00  0.00    +0.000 HD
ENDBRANCH   9  12
ENDBRANCH   1   3
BRANCH   1  14
ATOM     14  O   UNL     1       3.752   3.269  18.231  0.00  0.00    +0.000 OA
BRANCH  14  20
ATOM     15  C   UNL     1       7.891   5.858  19.130  0.00  0.00    +0.000 C 
ATOM     16  C   UNL     1       6.994   5.117  18.183  0.00  0.00    +0.000 A 
ATOM     17  C   UNL     1       7.299   5.016  16.820  0.00  0.00    +0.000 A 
ATOM     18  C   UNL     1       6.438   4.326  15.967  0.00  0.00    +0.000 A 
ATOM     19  C   UNL     1       5.281   3.721  16.445  0.00  0.00    +0.000 A 
ATOM     20  C   UNL     1       4.986   3.804  17.804  0.00  0.00    +0.000 A 
ATOM     21  C   UNL     1       5.824   4.517  18.668  0.00  0.00    +0.000 A 
BRANCH  18  22
ATOM     22  O   UNL     1       6.703   4.236  14.629  0.00  0.00    +0.000 OA
ATOM     23  H   UNL     1       6.655   5.127  14.244  0.00  0.00    +0.000 HD
ENDBRANCH  18  22
ENDBRANCH  14  20
ENDBRANCH   1  14
TORSDOF 6
ENDMDL
MODEL 5
REMARK VINA RESULT:      -7.0      1.887      5.341
REMARK  Name = 
REMARK  8 active torsions:
REMARK  status: ('A' for Active; 'I' for Inactive)
REMARK    1  A    between atoms: C_1  and  C_2
REMARK    2  A    between atoms: C_4  and  O_5
REMARK    3  A    between atoms: C_7  and  O_8
REMARK    4  A    between atoms: O_8  and  C_9
REMARK    5  A    between atoms: C_9  and  C_11
REMARK    6  A    between atoms: C_12  and  C_13
REMARK    7  A    between atoms: C_15  and  O_16
REMARK    8  A    between atoms: C_18  and  O_19
REMARK                            x       y       z     vdW  Elec       q    Type
REMARK                         _______ _______ _______ _____ _____    ______ ____
ROOT
ATOM      1  C   UNL     1       5.150   4.431  16.095  0.00  0.00    +0.000 C 
ATOM      2  O   UNL     1       4.813   4.555  14.924  0.00  0.00    +0.000 OA
ENDROOT
BRANCH   1   3
ATOM      3  C   UNL     1       4.173   4.423  17.220  0.00  0.00    +0.000 A 
ATOM      4  C   UNL     1       3.508   5.606  17.624  0.00  0.00    +0.000 A 
ATOM      5  C   UNL     1       3.810   6.983  17.090  0.00  0.00    +0.000 C 
ATOM      6  C   UNL     1       2.478   5.519  18.583  0.00  0.00    +0.000 A 
ATOM      7  C   UNL     1       2.125   4.291  19.133  0.00  0.00    +0.000 A 
ATOM      8  C   UNL     1       2.787   3.131  18.762  0.00  0.00    +0.000 A 
ATOM      9  C   UNL     1       3.795   3.194  17.800  0.00  0.00    +0.000 A 
BRANCH   7  10
ATOM     10  O   UNL     1       1.112   4.179  20.037  0.00  0.00    +0.000 OA
ATOM     11  H   UNL     1       1.396   3.597  20.760  0.00  0.00    +0.000 HD
ENDBRANCH   7  10
BRANCH   9  12
ATOM     12  O   UNL     1       4.371   2.022  17.392  0.00  0.00    +0.000 OA
ATOM     13  H   UNL     1       3.758   1.537  16.813  0.00  0.00    +0.000 HD
ENDBRANCH   9  12
ENDBRANCH   1   3
BRANCH   1  14
ATOM     14  O   UNL     1       6.444   4.260  16.567  0.00  0.00    +0.000 OA
BRANCH  14  20
ATOM     15  C   UNL     1       8.052   8.857  17.531  0.00  0.00    +0.000 C 
ATOM     16  C   UNL     1       7.833   7.435  17.954  0.00  0.00    +0.000 A 
ATOM     17  C   UNL     1       8.244   6.979  19.212  0.00  0.00    +0.000 A 
ATOM     18  C   UNL     1       8.031   5.647  19.569  0.00  0.00    +0.000 A 
ATOM     19  C   UNL     1       7.405   4.759  18.702  0.00  0.00    +0.000 A 
ATOM     20  C   UNL     1       6.979   5.216  17.457  0.00  0.00    +0.000 A 
ATOM     21  C   UNL     1       7.210   6.541  17.073  0.00  0.00    +0.000 A 
BRANCH  18  22
ATOM     22  O   UNL     1       8.447   5.174  20.783  0.00  0.00    +0.000 OA
ATOM     23  H   UNL     1       7.755   5.358  21.440  0.00  0.00    +0.000 HD
ENDBRANCH  18  22
ENDBRANCH  14  20
ENDBRANCH   1  14
TORSDOF 6
ENDMDL
MODEL 6
REMARK VINA RESULT:      -7.0      1.791      5.633
REMARK  Name = 
REMARK  8 active torsions:
REMARK  status: ('A' for Active; 'I' for Inactive)
REMARK    1  A    between atoms: C_1  and  C_2
REMARK    2  A    between atoms: C_4  and  O_5
REMARK    3  A    between atoms: C_7  and  O_8
REMARK    4  A    between atoms: O_8  and  C_9
REMARK    5  A    between atoms: C_9  and  C_11
REMARK    6  A    between atoms: C_12  and  C_13
REMARK    7  A    between atoms: C_15  and  O_16
REMARK    8  A    between atoms: C_18  and  O_19
REMARK                            x       y       z     vdW  Elec       q    Type
REMARK                         _______ _______ _______ _____ _____    ______ ____
ROOT
ATOM      1  C   UNL     1       4.341   3.929  17.773  0.00  0.00    +0.000 C 
ATOM      2  O   UNL     1       4.820   3.012  17.116  0.00  0.00    +0.000 OA
ENDROOT
BRANCH   1   3
ATOM      3  C   UNL     1       3.462   3.703  18.954  0.00  0.00    +0.000 A 
ATOM      4  C   UNL     1       2.144   4.219  19.000  0.00  0.00    +0.000 A 
ATOM      5  C   UNL     1       1.552   5.147  17.970  0.00  0.00    +0.000 C 
ATOM      6  C   UNL     1       1.299   3.844  20.064  0.00  0.00    +0.000 A 
ATOM      7  C   UNL     1       1.754   2.990  21.062  0.00  0.00    +0.000 A 
ATOM      8  C   UNL     1       3.050   2.500  21.040  0.00  0.00    +0.000 A 
ATOM      9  C   UNL     1       3.895   2.842  19.985  0.00  0.00    +0.000 A 
BRANCH   7  10
ATOM     10  O   UNL     1       0.945   2.589  22.083  0.00  0.00    +0.000 OA
ATOM     11  H   UNL     1       0.146   3.141  22.088  0.00  0.00    +0.000 HD
ENDBRANCH   7  10
BRANCH   9  12
ATOM     12  O   UNL     1       5.139   2.275  19.944  0.00  0.00    +0.000 OA
ATOM     13  H   UNL     1       5.064   1.327  19.743  0.00  0.00    +0.000 HD
ENDBRANCH   9  12
ENDBRANCH   1   3
BRANCH   1  14
ATOM     14  O   UNL     1       4.538   5.286  17.559  0.00  0.00    +0.000 OA
BRANCH  14  20
ATOM     15  C   UNL     1       8.110   8.718  17.223  0.00  0.00    +0.000 C 
ATOM     16  C   UNL     1       7.515   7.514  17.890  0.00  0.00    +0.000 A 
ATOM     17  C   UNL     1       8.158   6.886  18.964  0.00  0.00    +0.000 A 
ATOM     18  C   UNL     1       7.579   5.763  19.555  0.00  0.00    +0.000 A 
ATOM     19  C   UNL     1       6.364   5.256  19.108  0.00  0.00    +0.000 A 
ATOM     20  C   UNL     1       5.714   5.892  18.052  0.00  0.00    +0.000 A 
ATOM     21  C   UNL     1       6.295   7.001  17.429  0.00  0.00    +0.000 A 
BRANCH  18  22
ATOM     22  O   UNL     1       8.201   5.118  20.588  0.00  0.00    +0.000 OA
ATOM     23  H   UNL     1       8.346   4.192  20.332  0.00  0.00    +0.000 HD
ENDBRANCH  18  22
ENDBRANCH  14  20
ENDBRANCH   1  14
TORSDOF 6
ENDMDL
MODEL 7
REMARK VINA RESULT:      -6.9      2.293      3.471
REMARK  Name = 
REMARK  8 active torsions:
REMARK  status: ('A' for Active; 'I' for Inactive)
REMARK    1  A    between atoms: C_1  and  C_2
REMARK    2  A    between atoms: C_4  and  O_5
REMARK    3  A    between atoms: C_7  and  O_8
REMARK    4  A    between atoms: O_8  and  C_9
REMARK    5  A    between atoms: C_9  and  C_11
REMARK    6  A    between atoms: C_12  and  C_13
REMARK    7  A    between atoms: C_15  and  O_16
REMARK    8  A    between atoms: C_18  and  O_19
REMARK                            x       y       z     vdW  Elec       q    Type
REMARK                         _______ _______ _______ _____ _____    ______ ____
ROOT
ATOM      1  C   UNL     1       5.942   4.850  19.071  0.00  0.00    +0.000 C 
ATOM      2  O   UNL     1       6.123   5.805  19.817  0.00  0.00    +0.000 OA
ENDROOT
BRANCH   1   3
ATOM      3  C   UNL     1       6.088   4.943  17.591  0.00  0.00    +0.000 A 
ATOM      4  C   UNL     1       5.118   5.600  16.796  0.00  0.00    +0.000 A 
ATOM      5  C   UNL     1       3.803   6.128  17.311  0.00  0.00    +0.000 C 
ATOM      6  C   UNL     1       5.379   5.802  15.425  0.00  0.00    +0.000 A 
ATOM      7  C   UNL     1       6.566   5.353  14.857  0.00  0.00    +0.000 A 
ATOM      8  C   UNL     1       7.510   4.686  15.621  0.00  0.00    +0.000 A 
ATOM      9  C   UNL     1       7.280   4.495  16.983  0.00  0.00    +0.000 A 
BRANCH   7  10
ATOM     10  O   UNL     1       6.853   5.565  13.542  0.00  0.00    +0.000 OA
ATOM     11  H   UNL     1       7.645   5.056  13.305  0.00  0.00    +0.000 HD
ENDBRANCH   7  10
BRANCH   9  12
ATOM     12  O   UNL     1       8.267   3.911  17.729  0.00  0.00    +0.000 OA
ATOM     13  H   UNL     1       8.566   4.525  18.420  0.00  0.00    +0.000 HD
ENDBRANCH   9  12
ENDBRANCH   1   3
BRANCH   1  14
ATOM     14  O   UNL     1       5.603   3.559  19.451  0.00  0.00    +0.000 OA
BRANCH  14  20
ATOM     15  C   UNL     1       1.342   2.759  21.870  0.00  0.00    +0.000 C 
ATOM     16  C   UNL     1       2.156   2.718  20.611  0.00  0.00    +0.000 A 
ATOM     17  C   UNL     1       1.627   2.211  19.418  0.00  0.00    +0.000 A 
ATOM     18  C   UNL     1       2.415   2.182  18.268  0.00  0.00    +0.000 A 
ATOM     19  C   UNL     1       3.721   2.660  18.276  0.00  0.00    +0.000 A 
ATOM     20  C   UNL     1       4.243   3.183  19.458  0.00  0.00    +0.000 A 
ATOM     21  C   UNL     1       3.475   3.193  20.627  0.00  0.00    +0.000 A 
BRANCH  18  22
ATOM     22  O   UNL     1       1.927   1.668  17.099  0.00  0.00    +0.000 OA
ATOM     23  H   UNL     1       1.158   2.196  16.827  0.00  0.00    +0.000 HD
ENDBRANCH  18  22
ENDBRANCH  14  20
ENDBRANCH   1  14
TORSDOF 6
ENDMDL
MODEL 8
REMARK VINA RESULT:      -6.9      1.686      2.976
REMARK  Name = 
REMARK  8 active torsions:
REMARK  status: ('A' for Active; 'I' for Inactive)
REMARK    1  A    between atoms: C_1  and  C_2
REMARK    2  A    between atoms: C_4  and  O_5
REMARK    3  A    between atoms: C_7  and  O_8
REMARK    4  A    between atoms: O_8  and  C_9
REMARK    5  A    between atoms: C_9  and  C_11
REMARK    6  A    between atoms: C_12  and  C_13
REMARK    7  A    between atoms: C_15  and  O_16
REMARK    8  A    between atoms: C_18  and  O_19
REMARK                            x       y       z     vdW  Elec       q    Type
REMARK                         _______ _______ _______ _____ _____    ______ ____
ROOT
ATOM      1  C   UNL     1       5.793   5.246  19.019  0.00  0.00    +0.000 C 
ATOM      2  O   UNL     1       6.566   4.773  19.844  0.00  0.00    +0.000 OA
ENDROOT
BRANCH   1   3
ATOM      3  C   UNL     1       6.020   5.146  17.550  0.00  0.00    +0.000 A 
ATOM      4  C   UNL     1       6.762   6.130  16.853  0.00  0.00    +0.000 A 
ATOM      5  C   UNL     1       7.259   7.418  17.459  0.00  0.00    +0.000 C 
ATOM      6  C   UNL     1       7.086   5.911  15.498  0.00  0.00    +0.000 A 
ATOM      7  C   UNL     1       6.674   4.751  14.851  0.00  0.00    +0.000 A 
ATOM      8  C   UNL     1       5.927   3.794  15.518  0.00  0.00    +0.000 A 
ATOM      9  C   UNL     1       5.614   3.983  16.864  0.00  0.00    +0.000 A 
BRANCH   7  10
ATOM     10  O   UNL     1       7.003   4.503  13.552  0.00  0.00    +0.000 OA
ATOM     11  H   UNL     1       7.612   3.748  13.518  0.00  0.00    +0.000 HD
ENDBRANCH   7  10
BRANCH   9  12
ATOM     12  O   UNL     1       4.949   2.982  17.518  0.00  0.00    +0.000 OA
ATOM     13  H   UNL     1       5.335   2.122  17.285  0.00  0.00    +0.000 HD
ENDBRANCH   9  12
ENDBRANCH   1   3
BRANCH   1  14
ATOM     14  O   UNL     1       4.606   5.913  19.289  0.00  0.00    +0.000 OA
BRANCH  14  20
ATOM     15  C   UNL     1       1.603   2.758  21.672  0.00  0.00    +0.000 C 
ATOM     16  C   UNL     1       1.937   3.583  20.464  0.00  0.00    +0.000 A 
ATOM     17  C   UNL     1       1.123   3.569  19.326  0.00  0.00    +0.000 A 
ATOM     18  C   UNL     1       1.468   4.343  18.218  0.00  0.00    +0.000 A 
ATOM     19  C   UNL     1       2.606   5.143  18.223  0.00  0.00    +0.000 A 
ATOM     20  C   UNL     1       3.407   5.172  19.362  0.00  0.00    +0.000 A 
ATOM     21  C   UNL     1       3.090   4.380  20.471  0.00  0.00    +0.000 A 
BRANCH  18  22
ATOM     22  O   UNL     1       0.701   4.326  17.086  0.00  0.00    +0.000 OA
ATOM     23  H   UNL     1       0.449   5.239  16.870  0.00  0.00    +0.000 HD
ENDBRANCH  18  22
ENDBRANCH  14  20
ENDBRANCH   1  14
TORSDOF 6
ENDMDL
MODEL 9
REMARK VINA RESULT:      -6.9      2.026      5.884
REMARK  Name = 
REMARK  8 active torsions:
REMARK  status: ('A' for Active; 'I' for Inactive)
REMARK    1  A    between atoms: C_1  and  C_2
REMARK    2  A    between atoms: C_4  and  O_5
REMARK    3  A    between atoms: C_7  and  O_8
REMARK    4  A    between atoms: O_8  and  C_9
REMARK    5  A    between atoms: C_9  and  C_11
REMARK    6  A    between atoms: C_12  and  C_13
REMARK    7  A    between atoms: C_15  and  O_16
REMARK    8  A    between atoms: C_18  and  O_19
REMARK                            x       y       z     vdW  Elec       q    Type
REMARK                         _______ _______ _______ _____ _____    ______ ____
ROOT
ATOM      1  C   UNL     1       2.655   4.211  17.415  0.00  0.00    +0.000 C 
ATOM      2  O   UNL     1       2.195   3.619  16.446  0.00  0.00    +0.000 OA
ENDROOT
BRANCH   1   3
ATOM      3  C   UNL     1       2.388   3.790  18.819  0.00  0.00    +0.000 A 
ATOM      4  C   UNL     1       2.161   4.742  19.842  0.00  0.00    +0.000 A 
ATOM      5  C   UNL     1       2.307   6.233  19.672  0.00  0.00    +0.000 C 
ATOM      6  C   UNL     1       1.755   4.295  21.116  0.00  0.00    +0.000 A 
ATOM      7  C   UNL     1       1.591   2.938  21.370  0.00  0.00    +0.000 A 
ATOM      8  C   UNL     1       1.835   1.997  20.383  0.00  0.00    +0.000 A 
ATOM      9  C   UNL     1       2.217   2.420  19.111  0.00  0.00    +0.000 A 
BRANCH   7  10
ATOM     10  O   UNL     1       1.170   2.485  22.585  0.00  0.00    +0.000 OA
ATOM     11  H   UNL     1       0.864   1.568  22.492  0.00  0.00    +0.000 HD
ENDBRANCH   7  10
BRANCH   9  12
ATOM     12  O   UNL     1       2.367   1.474  18.134  0.00  0.00    +0.000 OA
ATOM     13  H   UNL     1       1.540   1.382  17.633  0.00  0.00    +0.000 HD
ENDBRANCH   9  12
ENDBRANCH   1   3
BRANCH   1  14
ATOM     14  O   UNL     1       3.489   5.320  17.385  0.00  0.00    +0.000 OA
BRANCH  14  20
ATOM     15  C   UNL     1       6.897   4.596  13.848  0.00  0.00    +0.000 C 
ATOM     16  C   UNL     1       6.526   4.738  15.294  0.00  0.00    +0.000 A 
ATOM     17  C   UNL     1       7.484   4.611  16.307  0.00  0.00    +0.000 A 
ATOM     18  C   UNL     1       7.102   4.742  17.642  0.00  0.00    +0.000 A 
ATOM     19  C   UNL     1       5.783   5.009  17.992  0.00  0.00    +0.000 A 
ATOM     20  C   UNL     1       4.832   5.154  16.985  0.00  0.00    +0.000 A 
ATOM     21  C   UNL     1       5.193   4.998  15.643  0.00  0.00    +0.000 A 
BRANCH  18  22
ATOM     22  O   UNL     1       8.017   4.596  18.648  0.00  0.00    +0.000 OA
ATOM     23  H   UNL     1       7.538   4.499  19.488  0.00  0.00    +0.000 HD
ENDBRANCH  18  22
ENDBRANCH  14  20
ENDBRANCH   1  14
TORSDOF 6
ENDMDL
