MODEL 1
REMARK VINA RESULT:      -7.1      0.000      0.000
REMARK  Name = 
REMARK  13 active torsions:
REMARK  status: ('A' for Active; 'I' for Inactive)
REMARK    1  A    between atoms: C_1  and  C_2
REMARK    2  A    between atoms: C_2  and  C_3
REMARK    3  A    between atoms: C_2  and  C_4
REMARK    4  A    between atoms: C_4  and  C_5
REMARK    5  A    between atoms: C_5  and  O_6
REMARK    6  A    between atoms: O_6  and  C_7
REMARK    7  A    between atoms: C_11  and  C_12
REMARK    8  A    between atoms: C_12  and  C_13
REMARK    9  A    between atoms: C_13  and  N_14
REMARK   10  A    between atoms: C_20  and  N_21
REMARK   11  A    between atoms: N_21  and  C_22
REMARK   12  A    between atoms: N_21  and  C_23
REMARK   13  A    between atoms: C_24  and  O_25
REMARK                            x       y       z     vdW  Elec       q    Type
REMARK                         _______ _______ _______ _____ _____    ______ ____
ROOT
ATOM      1  N   UNL     1       0.992   9.362  18.285  0.00  0.00    +0.000 N 
ATOM      2  C   UNL     1       1.344  10.684  18.441  0.00  0.00    +0.000 C 
ATOM      3  O   UNL     1       2.459  11.103  18.124  0.00  0.00    +0.000 OA
ATOM      4  N   UNL     1       0.388  11.482  19.025  0.00  0.00    +0.000 N 
ATOM      5  C   UNL     1      -0.915  11.005  19.466  0.00  0.00    +0.000 C 
ATOM      6  C   UNL     1      -1.488  11.824  20.618  0.00  0.00    +0.000 C 
ATOM      7  C   UNL     1      -0.367  12.244  21.594  0.00  0.00    +0.000 C 
ATOM      8  C   UNL     1       0.624  13.183  20.821  0.00  0.00    +0.000 C 
ATOM      9  C   UNL     1       0.697  12.883  19.308  0.00  0.00    +0.000 C 
ATOM     10  H   UNL     1       0.023   9.240  18.027  0.00  0.00    +0.000 HD
ENDROOT
BRANCH   7  11
ATOM     11  N   UNL     1      -0.902  12.882  22.838  0.00  0.00    +0.000 NA
ATOM     12  C   UNL     1      -1.008  14.340  22.720  0.00  0.00    +0.000 C 
ATOM     13  C   UNL     1      -2.235  12.357  23.184  0.00  0.00    +0.000 C 
ENDBRANCH   7  11
BRANCH   8  14
ATOM     14  O   UNL     1       1.939  13.084  21.390  0.00  0.00    +0.000 OA
ATOM     15  H   UNL     1       2.453  13.851  21.077  0.00  0.00    +0.000 HD
ENDBRANCH   8  14
BRANCH   1  16
ATOM     16  C   UNL     1       1.961   8.476  17.662  0.00  0.00    +0.000 C 
BRANCH  16  17
ATOM     17  C   UNL     1       2.694   7.541  18.628  0.00  0.00    +0.000 C 
BRANCH  17  22
ATOM     18  C   UNL     1       4.205   4.423  16.962  0.00  0.00    +0.000 A 
ATOM     19  C   UNL     1       3.157   3.509  17.098  0.00  0.00    +0.000 A 
ATOM     20  C   UNL     1       1.978   3.897  17.736  0.00  0.00    +0.000 A 
ATOM     21  C   UNL     1       1.827   5.189  18.232  0.00  0.00    +0.000 A 
ATOM     22  C   UNL     1       2.859   6.130  18.092  0.00  0.00    +0.000 A 
ATOM     23  C   UNL     1       4.034   5.729  17.436  0.00  0.00    +0.000 A 
BRANCH  18  24
ATOM     24  O   UNL     1       5.320   3.964  16.305  0.00  0.00    +0.000 OA
BRANCH  24  25
ATOM     25  C   UNL     1       6.376   4.922  16.176  0.00  0.00    +0.000 C 
BRANCH  25  26
ATOM     26  C   UNL     1       7.499   4.578  17.156  0.00  0.00    +0.000 C 
BRANCH  26  28
ATOM     27  C   UNL     1       7.457   7.050  17.627  0.00  0.00    +0.000 C 
ATOM     28  C   UNL     1       7.717   5.667  18.225  0.00  0.00    +0.000 C 
ATOM     29  C   UNL     1       6.833   5.473  19.462  0.00  0.00    +0.000 C 
ENDBRANCH  26  28
ENDBRANCH  25  26
ENDBRANCH  24  25
ENDBRANCH  18  24
ENDBRANCH  17  22
ENDBRANCH  16  17
ENDBRANCH   1  16
TORSDOF 9
ENDMDL
MODEL 2
REMARK VINA RESULT:      -7.0      6.030      8.670
REMARK  Name = 
REMARK  13 active torsions:
REMARK  status: ('A' for Active; 'I' for Inactive)
REMARK    1  A    between atoms: C_1  and  C_2
REMARK    2  A    between atoms: C_2  and  C_3
REMARK    3  A    between atoms: C_2  and  C_4
REMARK    4  A    between atoms: C_4  and  C_5
REMARK    5  A    between atoms: C_5  and  O_6
REMARK    6  A    between atoms: O_6  and  C_7
REMARK    7  A    between atoms: C_11  and  C_12
REMARK    8  A    between atoms: C_12  and  C_13
REMARK    9  A    between atoms: C_13  and  N_14
REMARK   10  A    between atoms: C_20  and  N_21
REMARK   11  A    between atoms: N_21  and  C_22
REMARK   12  A    between atoms: N_21  and  C_23
REMARK   13  A    between atoms: C_24  and  O_25
REMARK                            x       y       z     vdW  Elec       q    Type
REMARK                         _______ _______ _______ _____ _____    ______ ____
ROOT
ATOM      1  N   UNL     1       9.028  10.376  17.933  0.00  0.00    +0.000 N 
ATOM      2  C   UNL     1       9.718  10.727  19.072  0.00  0.00    +0.000 C 
ATOM      3  O   UNL     1       9.398  10.303  20.184  0.00  0.00    +0.000 OA
ATOM      4  N   UNL     1      10.744  11.624  18.884  0.00  0.00    +0.000 N 
ATOM      5  C   UNL     1      11.108  12.189  17.593  0.00  0.00    +0.000 C 
ATOM      6  C   UNL     1      11.753  13.567  17.709  0.00  0.00    +0.000 C 
ATOM      7  C   UNL     1      11.080  14.386  18.832  0.00  0.00    +0.000 C 
ATOM      8  C   UNL     1      11.338  13.651  20.192  0.00  0.00    +0.000 C 
ATOM      9  C   UNL     1      11.485  12.121  20.043  0.00  0.00    +0.000 C 
ATOM     10  H   UNL     1       9.626  10.279  17.125  0.00  0.00    +0.000 HD
ENDROOT
BRANCH   7  11
ATOM     11  N   UNL     1      11.544  15.809  18.857  0.00  0.00    +0.000 NA
ATOM     12  C   UNL     1      12.331  16.163  17.671  0.00  0.00    +0.000 C 
ATOM     13  C   UNL     1      10.411  16.747  18.944  0.00  0.00    +0.000 C 
ENDBRANCH   7  11
BRANCH   8  14
ATOM     14  O   UNL     1      10.276  13.939  21.116  0.00  0.00    +0.000 OA
ATOM     15  H   UNL     1      10.316  14.891  21.322  0.00  0.00    +0.000 HD
ENDBRANCH   8  14
BRANCH   1  16
ATOM     16  C   UNL     1       7.941   9.422  18.072  0.00  0.00    +0.000 C 
BRANCH  16  17
ATOM     17  C   UNL     1       8.207   8.048  17.452  0.00  0.00    +0.000 C 
BRANCH  17  22
ATOM     18  C   UNL     1       5.004   5.936  17.714  0.00  0.00    +0.000 A 
ATOM     19  C   UNL     1       5.365   5.018  18.703  0.00  0.00    +0.000 A 
ATOM     20  C   UNL     1       6.641   5.075  19.268  0.00  0.00    +0.000 A 
ATOM     21  C   UNL     1       7.556   6.043  18.866  0.00  0.00    +0.000 A 
ATOM     22  C   UNL     1       7.210   6.987  17.887  0.00  0.00    +0.000 A 
ATOM     23  C   UNL     1       5.920   6.925  17.337  0.00  0.00    +0.000 A 
BRANCH  18  24
ATOM     24  O   UNL     1       3.725   5.821  17.226  0.00  0.00    +0.000 OA
BRANCH  24  25
ATOM     25  C   UNL     1       2.700   5.830  18.224  0.00  0.00    +0.000 C 
BRANCH  25  26
ATOM     26  C   UNL     1       1.738   4.667  17.979  0.00  0.00    +0.000 C 
BRANCH  26  28
ATOM     27  C   UNL     1       1.028   4.259  20.359  0.00  0.00    +0.000 C 
ATOM     28  C   UNL     1       1.719   3.650  19.138  0.00  0.00    +0.000 C 
ATOM     29  C   UNL     1       1.028   2.335  18.765  0.00  0.00    +0.000 C 
ENDBRANCH  26  28
ENDBRANCH  25  26
ENDBRANCH  24  25
ENDBRANCH  18  24
ENDBRANCH  17  22
ENDBRANCH  16  17
ENDBRANCH   1  16
TORSDOF 9
ENDMDL
MODEL 3
REMARK VINA RESULT:      -6.9      1.663      3.209
REMARK  Name = 
REMARK  13 active torsions:
REMARK  status: ('A' for Active; 'I' for Inactive)
REMARK    1  A    between atoms: C_1  and  C_2
REMARK    2  A    between atoms: C_2  and  C_3
REMARK    3  A    between atoms: C_2  and  C_4
REMARK    4  A    between atoms: C_4  and  C_5
REMARK    5  A    between atoms: C_5  and  O_6
REMARK    6  A    between atoms: O_6  and  C_7
REMARK    7  A    between atoms: C_11  and  C_12
REMARK    8  A    between atoms: C_12  and  C_13
REMARK    9  A    between atoms: C_13  and  N_14
REMARK   10  A    between atoms: C_20  and  N_21
REMARK   11  A    between atoms: N_21  and  C_22
REMARK   12  A    between atoms: N_21  and  C_23
REMARK   13  A    between atoms: C_24  and  O_25
REMARK                            x       y       z     vdW  Elec       q    Type
REMARK                         _______ _______ _______ _____ _____    ______ ____
ROOT
ATOM      1  N   UNL     1       0.780   9.708  18.010  0.00  0.00    +0.000 N 
ATOM      2  C   UNL     1       1.082  10.970  18.473  0.00  0.00    +0.000 C 
ATOM      3  O   UNL     1       2.244  11.333  18.660  0.00  0.00    +0.000 OA
ATOM      4  N   UNL     1      -0.003  11.764  18.763  0.00  0.00    +0.000 N 
ATOM      5  C   UNL     1      -1.388  11.343  18.609  0.00  0.00    +0.000 C 
ATOM      6  C   UNL     1      -2.335  12.060  19.566  0.00  0.00    +0.000 C 
ATOM      7  C   UNL     1      -1.662  12.269  20.940  0.00  0.00    +0.000 C 
ATOM      8  C   UNL     1      -0.426  13.212  20.737  0.00  0.00    +0.000 C 
ATOM      9  C   UNL     1       0.212  13.093  19.337  0.00  0.00    +0.000 C 
ATOM     10  H   UNL     1      -0.019   9.696  17.393  0.00  0.00    +0.000 HD
ENDROOT
BRANCH   7  11
ATOM     11  N   UNL     1      -2.615  12.792  21.969  0.00  0.00    +0.000 NA
ATOM     12  C   UNL     1      -4.004  12.794  21.498  0.00  0.00    +0.000 C 
ATOM     13  C   UNL     1      -2.558  12.001  23.211  0.00  0.00    +0.000 C 
ENDBRANCH   7  11
BRANCH   8  14
ATOM     14  O   UNL     1       0.569  12.940  21.738  0.00  0.00    +0.000 OA
ATOM     15  H   UNL     1       1.421  13.273  21.402  0.00  0.00    +0.000 HD
ENDBRANCH   8  14
BRANCH   1  16
ATOM     16  C   UNL     1       1.888   8.830  17.677  0.00  0.00    +0.000 C 
BRANCH  16  17
ATOM     17  C   UNL     1       2.262   7.822  18.768  0.00  0.00    +0.000 C 
BRANCH  17  22
ATOM     18  C   UNL     1       4.661   4.818  18.728  0.00  0.00    +0.000 A 
ATOM     19  C   UNL     1       5.374   5.057  17.550  0.00  0.00    +0.000 A 
ATOM     20  C   UNL     1       5.069   6.173  16.770  0.00  0.00    +0.000 A 
ATOM     21  C   UNL     1       4.068   7.061  17.156  0.00  0.00    +0.000 A 
ATOM     22  C   UNL     1       3.351   6.852  18.344  0.00  0.00    +0.000 A 
ATOM     23  C   UNL     1       3.678   5.732  19.124  0.00  0.00    +0.000 A 
BRANCH  18  24
ATOM     24  O   UNL     1       5.039   3.708  19.444  0.00  0.00    +0.000 OA
BRANCH  24  25
ATOM     25  C   UNL     1       4.148   2.595  19.335  0.00  0.00    +0.000 C 
BRANCH  25  26
ATOM     26  C   UNL     1       3.165   2.611  20.507  0.00  0.00    +0.000 C 
BRANCH  26  28
ATOM     27  C   UNL     1       0.999   3.891  20.552  0.00  0.00    +0.000 C 
ATOM     28  C   UNL     1       1.691   2.621  20.054  0.00  0.00    +0.000 C 
ATOM     29  C   UNL     1       1.534   2.519  18.534  0.00  0.00    +0.000 C 
ENDBRANCH  26  28
ENDBRANCH  25  26
ENDBRANCH  24  25
ENDBRANCH  18  24
ENDBRANCH  17  22
ENDBRANCH  16  17
ENDBRANCH   1  16
TORSDOF 9
ENDMDL
MODEL 4
REMARK VINA RESULT:      -6.9      1.469      3.072
REMARK  Name = 
REMARK  13 active torsions:
REMARK  status: ('A' for Active; 'I' for Inactive)
REMARK    1  A    between atoms: C_1  and  C_2
REMARK    2  A    between atoms: C_2  and  C_3
REMARK    3  A    between atoms: C_2  and  C_4
REMARK    4  A    between atoms: C_4  and  C_5
REMARK    5  A    between atoms: C_5  and  O_6
REMARK    6  A    between atoms: O_6  and  C_7
REMARK    7  A    between atoms: C_11  and  C_12
REMARK    8  A    between atoms: C_12  and  C_13
REMARK    9  A    between atoms: C_13  and  N_14
REMARK   10  A    between atoms: C_20  and  N_21
REMARK   11  A    between atoms: N_21  and  C_22
REMARK   12  A    between atoms: N_21  and  C_23
REMARK   13  A    between atoms: C_24  and  O_25
REMARK                            x       y       z     vdW  Elec       q    Type
REMARK                         _______ _______ _______ _____ _____    ______ ____
ROOT
ATOM      1  N   UNL     1       0.944   9.421  18.243  0.00  0.00    +0.000 N 
ATOM      2  C   UNL     1       1.338  10.732  18.393  0.00  0.00    +0.000 C 
ATOM      3  O   UNL     1       2.446  11.125  18.024  0.00  0.00    +0.000 OA
ATOM      4  N   UNL     1       0.434  11.548  19.033  0.00  0.00    +0.000 N 
ATOM      5  C   UNL     1      -0.857  11.100  19.535  0.00  0.00    +0.000 C 
ATOM      6  C   UNL     1      -1.349  11.921  20.723  0.00  0.00    +0.000 C 
ATOM      7  C   UNL     1      -0.169  12.301  21.644  0.00  0.00    +0.000 C 
ATOM      8  C   UNL     1       0.805  13.222  20.831  0.00  0.00    +0.000 C 
ATOM      9  C   UNL     1       0.794  12.937  19.313  0.00  0.00    +0.000 C 
ATOM     10  H   UNL     1      -0.040   9.327  18.033  0.00  0.00    +0.000 HD
ENDROOT
BRANCH   7  11
ATOM     11  N   UNL     1      -0.624  12.939  22.920  0.00  0.00    +0.000 NA
ATOM     12  C   UNL     1      -0.679  14.402  22.827  0.00  0.00    +0.000 C 
ATOM     13  C   UNL     1      -1.959  12.460  23.318  0.00  0.00    +0.000 C 
ENDBRANCH   7  11
BRANCH   8  14
ATOM     14  O   UNL     1       2.145  13.083  21.331  0.00  0.00    +0.000 OA
ATOM     15  H   UNL     1       2.433  12.170  21.149  0.00  0.00    +0.000 HD
ENDBRANCH   8  14
BRANCH   1  16
ATOM     16  C   UNL     1       1.856   8.517  17.563  0.00  0.00    +0.000 C 
BRANCH  16  17
ATOM     17  C   UNL     1       2.802   7.743  18.485  0.00  0.00    +0.000 C 
BRANCH  17  22
ATOM     18  C   UNL     1       3.287   4.137  17.243  0.00  0.00    +0.000 A 
ATOM     19  C   UNL     1       4.534   4.231  16.618  0.00  0.00    +0.000 A 
ATOM     20  C   UNL     1       5.203   5.456  16.589  0.00  0.00    +0.000 A 
ATOM     21  C   UNL     1       4.648   6.586  17.183  0.00  0.00    +0.000 A 
ATOM     22  C   UNL     1       3.406   6.512  17.832  0.00  0.00    +0.000 A 
ATOM     23  C   UNL     1       2.751   5.270  17.864  0.00  0.00    +0.000 A 
BRANCH  18  24
ATOM     24  O   UNL     1       2.708   2.892  17.242  0.00  0.00    +0.000 OA
BRANCH  24  25
ATOM     25  C   UNL     1       3.001   2.094  18.393  0.00  0.00    +0.000 C 
BRANCH  25  26
ATOM     26  C   UNL     1       1.787   2.071  19.322  0.00  0.00    +0.000 C 
BRANCH  26  28
ATOM     27  C   UNL     1       0.849   4.161  20.365  0.00  0.00    +0.000 C 
ATOM     28  C   UNL     1       1.908   3.065  20.494  0.00  0.00    +0.000 C 
ATOM     29  C   UNL     1       1.778   2.391  21.864  0.00  0.00    +0.000 C 
ENDBRANCH  26  28
ENDBRANCH  25  26
ENDBRANCH  24  25
ENDBRANCH  18  24
ENDBRANCH  17  22
ENDBRANCH  16  17
ENDBRANCH   1  16
TORSDOF 9
ENDMDL
MODEL 5
REMARK VINA RESULT:      -6.8      2.617      3.709
REMARK  Name = 
REMARK  13 active torsions:
REMARK  status: ('A' for Active; 'I' for Inactive)
REMARK    1  A    between atoms: C_1  and  C_2
REMARK    2  A    between atoms: C_2  and  C_3
REMARK    3  A    between atoms: C_2  and  C_4
REMARK    4  A    between atoms: C_4  and  C_5
REMARK    5  A    between atoms: C_5  and  O_6
REMARK    6  A    between atoms: O_6  and  C_7
REMARK    7  A    between atoms: C_11  and  C_12
REMARK    8  A    between atoms: C_12  and  C_13
REMARK    9  A    between atoms: C_13  and  N_14
REMARK   10  A    between atoms: C_20  and  N_21
REMARK   11  A    between atoms: N_21  and  C_22
REMARK   12  A    between atoms: N_21  and  C_23
REMARK   13  A    between atoms: C_24  and  O_25
REMARK                            x       y       z     vdW  Elec       q    Type
REMARK                         _______ _______ _______ _____ _____    ______ ____
ROOT
ATOM      1  N   UNL     1       1.588   8.999  18.778  0.00  0.00    +0.000 N 
ATOM      2  C   UNL     1       0.388   9.604  18.479  0.00  0.00    +0.000 C 
ATOM      3  O   UNL     1      -0.225   9.356  17.439  0.00  0.00    +0.000 OA
ATOM      4  N   UNL     1      -0.043  10.539  19.391  0.00  0.00    +0.000 N 
ATOM      5  C   UNL     1       0.687  10.897  20.599  0.00  0.00    +0.000 C 
ATOM      6  C   UNL     1       0.408  12.324  21.059  0.00  0.00    +0.000 C 
ATOM      7  C   UNL     1       0.268  13.267  19.844  0.00  0.00    +0.000 C 
ATOM      8  C   UNL     1      -0.981  12.808  19.014  0.00  0.00    +0.000 C 
ATOM      9  C   UNL     1      -1.266  11.295  19.123  0.00  0.00    +0.000 C 
ATOM     10  H   UNL     1       1.701   8.813  19.764  0.00  0.00    +0.000 HD
ENDROOT
BRANCH   7  11
ATOM     11  N   UNL     1       0.186  14.707  20.246  0.00  0.00    +0.000 NA
ATOM     12  C   UNL     1       0.614  14.928  21.632  0.00  0.00    +0.000 C 
ATOM     13  C   UNL     1       1.014  15.559  19.375  0.00  0.00    +0.000 C 
ENDBRANCH   7  11
BRANCH   8  14
ATOM     14  O   UNL     1      -0.809  13.162  17.632  0.00  0.00    +0.000 OA
ATOM     15  H   UNL     1      -1.578  13.699  17.369  0.00  0.00    +0.000 HD
ENDBRANCH   8  14
BRANCH   1  16
ATOM     16  C   UNL     1       2.084   7.994  17.853  0.00  0.00    +0.000 C 
BRANCH  16  17
ATOM     17  C   UNL     1       3.610   7.889  17.774  0.00  0.00    +0.000 C 
BRANCH  17  22
ATOM     18  C   UNL     1       5.481   5.391  15.529  0.00  0.00    +0.000 A 
ATOM     19  C   UNL     1       4.981   4.175  16.002  0.00  0.00    +0.000 A 
ATOM     20  C   UNL     1       4.058   4.165  17.048  0.00  0.00    +0.000 A 
ATOM     21  C   UNL     1       3.619   5.355  17.622  0.00  0.00    +0.000 A 
ATOM     22  C   UNL     1       4.093   6.590  17.152  0.00  0.00    +0.000 A 
ATOM     23  C   UNL     1       5.011   6.583  16.090  0.00  0.00    +0.000 A 
BRANCH  18  24
ATOM     24  O   UNL     1       6.370   5.309  14.485  0.00  0.00    +0.000 OA
BRANCH  24  25
ATOM     25  C   UNL     1       6.612   3.982  14.007  0.00  0.00    +0.000 C 
BRANCH  25  26
ATOM     26  C   UNL     1       6.364   3.929  12.499  0.00  0.00    +0.000 C 
BRANCH  26  28
ATOM     27  C   UNL     1       4.263   3.277  11.277  0.00  0.00    +0.000 C 
ATOM     28  C   UNL     1       5.456   2.756  12.080  0.00  0.00    +0.000 C 
ATOM     29  C   UNL     1       6.195   1.692  11.263  0.00  0.00    +0.000 C 
ENDBRANCH  26  28
ENDBRANCH  25  26
ENDBRANCH  24  25
ENDBRANCH  18  24
ENDBRANCH  17  22
ENDBRANCH  16  17
ENDBRANCH   1  16
TORSDOF 9
ENDMDL
MODEL 6
REMARK VINA RESULT:      -6.8      2.791      4.553
REMARK  Name = 
REMARK  13 active torsions:
REMARK  status: ('A' for Active; 'I' for Inactive)
REMARK    1  A    between atoms: C_1  and  C_2
REMARK    2  A    between atoms: C_2  and  C_3
REMARK    3  A    between atoms: C_2  and  C_4
REMARK    4  A    between atoms: C_4  and  C_5
REMARK    5  A    between atoms: C_5  and  O_6
REMARK    6  A    between atoms: O_6  and  C_7
REMARK    7  A    between atoms: C_11  and  C_12
REMARK    8  A    between atoms: C_12  and  C_13
REMARK    9  A    between atoms: C_13  and  N_14
REMARK   10  A    between atoms: C_20  and  N_21
REMARK   11  A    between atoms: N_21  and  C_22
REMARK   12  A    between atoms: N_21  and  C_23
REMARK   13  A    between atoms: C_24  and  O_25
REMARK                            x       y       z     vdW  Elec       q    Type
REMARK                         _______ _______ _______ _____ _____    ______ ____
ROOT
ATOM      1  N   UNL     1       2.112   5.672  18.493  0.00  0.00    +0.000 N 
ATOM      2  C   UNL     1       2.035   6.253  19.738  0.00  0.00    +0.000 C 
ATOM      3  O   UNL     1       1.985   5.581  20.769  0.00  0.00    +0.000 OA
ATOM      4  N   UNL     1       1.960   7.627  19.742  0.00  0.00    +0.000 N 
ATOM      5  C   UNL     1       1.956   8.447  18.539  0.00  0.00    +0.000 C 
ATOM      6  C   UNL     1       1.223   9.772  18.726  0.00  0.00    +0.000 C 
ATOM      7  C   UNL     1      -0.019   9.580  19.623  0.00  0.00    +0.000 C 
ATOM      8  C   UNL     1       0.470   9.131  21.043  0.00  0.00    +0.000 C 
ATOM      9  C   UNL     1       1.793   8.334  21.011  0.00  0.00    +0.000 C 
ATOM     10  H   UNL     1       2.683   6.198  17.847  0.00  0.00    +0.000 HD
ENDROOT
BRANCH   7  11
ATOM     11  N   UNL     1      -0.878  10.806  19.678  0.00  0.00    +0.000 NA
ATOM     12  C   UNL     1      -0.661  11.588  20.900  0.00  0.00    +0.000 C 
ATOM     13  C   UNL     1      -0.633  11.690  18.525  0.00  0.00    +0.000 C 
ENDBRANCH   7  11
BRANCH   8  14
ATOM     14  O   UNL     1      -0.544   8.342  21.686  0.00  0.00    +0.000 OA
ATOM     15  H   UNL     1      -1.291   8.934  21.889  0.00  0.00    +0.000 HD
ENDBRANCH   8  14
BRANCH   1  16
ATOM     16  C   UNL     1       2.206   4.223  18.431  0.00  0.00    +0.000 C 
BRANCH  16  17
ATOM     17  C   UNL     1       3.093   3.682  17.307  0.00  0.00    +0.000 C 
BRANCH  17  22
ATOM     18  C   UNL     1       6.709   4.622  16.397  0.00  0.00    +0.000 A 
ATOM     19  C   UNL     1       7.239   4.909  17.657  0.00  0.00    +0.000 A 
ATOM     20  C   UNL     1       6.428   4.813  18.789  0.00  0.00    +0.000 A 
ATOM     21  C   UNL     1       5.096   4.423  18.679  0.00  0.00    +0.000 A 
ATOM     22  C   UNL     1       4.546   4.112  17.426  0.00  0.00    +0.000 A 
ATOM     23  C   UNL     1       5.378   4.201  16.299  0.00  0.00    +0.000 A 
BRANCH  18  24
ATOM     24  O   UNL     1       7.582   4.724  15.341  0.00  0.00    +0.000 OA
BRANCH  24  25
ATOM     25  C   UNL     1       6.962   4.948  14.071  0.00  0.00    +0.000 C 
BRANCH  25  26
ATOM     26  C   UNL     1       6.192   3.696  13.650  0.00  0.00    +0.000 C 
BRANCH  26  28
ATOM     27  C   UNL     1       6.992   2.525  11.571  0.00  0.00    +0.000 C 
ATOM     28  C   UNL     1       6.029   3.578  12.121  0.00  0.00    +0.000 C 
ATOM     29  C   UNL     1       4.598   3.229  11.699  0.00  0.00    +0.000 C 
ENDBRANCH  26  28
ENDBRANCH  25  26
ENDBRANCH  24  25
ENDBRANCH  18  24
ENDBRANCH  17  22
ENDBRANCH  16  17
ENDBRANCH   1  16
TORSDOF 9
ENDMDL
MODEL 7
REMARK VINA RESULT:      -6.8      2.298      4.071
REMARK  Name = 
REMARK  13 active torsions:
REMARK  status: ('A' for Active; 'I' for Inactive)
REMARK    1  A    between atoms: C_1  and  C_2
REMARK    2  A    between atoms: C_2  and  C_3
REMARK    3  A    between atoms: C_2  and  C_4
REMARK    4  A    between atoms: C_4  and  C_5
REMARK    5  A    between atoms: C_5  and  O_6
REMARK    6  A    between atoms: O_6  and  C_7
REMARK    7  A    between atoms: C_11  and  C_12
REMARK    8  A    between atoms: C_12  and  C_13
REMARK    9  A    between atoms: C_13  and  N_14
REMARK   10  A    between atoms: C_20  and  N_21
REMARK   11  A    between atoms: N_21  and  C_22
REMARK   12  A    between atoms: N_21  and  C_23
REMARK   13  A    between atoms: C_24  and  O_25
REMARK                            x       y       z     vdW  Elec       q    Type
REMARK                         _______ _______ _______ _____ _____    ______ ____
ROOT
ATOM      1  N   UNL     1       1.546   9.657  19.875  0.00  0.00    +0.000 N 
ATOM      2  C   UNL     1       0.349  10.275  19.588  0.00  0.00    +0.000 C 
ATOM      3  O   UNL     1      -0.531   9.718  18.930  0.00  0.00    +0.000 OA
ATOM      4  N   UNL     1       0.236  11.571  20.035  0.00  0.00    +0.000 N 
ATOM      5  C   UNL     1       1.281  12.278  20.761  0.00  0.00    +0.000 C 
ATOM      6  C   UNL     1       1.224  13.790  20.560  0.00  0.00    +0.000 C 
ATOM      7  C   UNL     1       0.828  14.128  19.107  0.00  0.00    +0.000 C 
ATOM      8  C   UNL     1      -0.623  13.585  18.860  0.00  0.00    +0.000 C 
ATOM      9  C   UNL     1      -0.964  12.342  19.709  0.00  0.00    +0.000 C 
ATOM     10  H   UNL     1       1.903   9.896  20.789  0.00  0.00    +0.000 HD
ENDROOT
BRANCH   7  11
ATOM     11  N   UNL     1       0.947  15.590  18.809  0.00  0.00    +0.000 NA
ATOM     12  C   UNL     1       0.652  16.427  19.976  0.00  0.00    +0.000 C 
ATOM     13  C   UNL     1       2.297  15.936  18.332  0.00  0.00    +0.000 C 
ENDBRANCH   7  11
BRANCH   8  14
ATOM     14  O   UNL     1      -0.801  13.275  17.469  0.00  0.00    +0.000 OA
ATOM     15  H   UNL     1      -1.439  12.540  17.411  0.00  0.00    +0.000 HD
ENDBRANCH   8  14
BRANCH   1  16
ATOM     16  C   UNL     1       1.715   8.282  19.436  0.00  0.00    +0.000 C 
BRANCH  16  17
ATOM     17  C   UNL     1       2.433   8.118  18.093  0.00  0.00    +0.000 C 
BRANCH  17  22
ATOM     18  C   UNL     1       2.647   4.323  17.515  0.00  0.00    +0.000 A 
ATOM     19  C   UNL     1       4.031   4.134  17.471  0.00  0.00    +0.000 A 
ATOM     20  C   UNL     1       4.885   5.229  17.613  0.00  0.00    +0.000 A 
ATOM     21  C   UNL     1       4.376   6.509  17.809  0.00  0.00    +0.000 A 
ATOM     22  C   UNL     1       2.990   6.722  17.875  0.00  0.00    +0.000 A 
ATOM     23  C   UNL     1       2.144   5.609  17.743  0.00  0.00    +0.000 A 
BRANCH  18  24
ATOM     24  O   UNL     1       1.882   3.190  17.385  0.00  0.00    +0.000 OA
BRANCH  24  25
ATOM     25  C   UNL     1       1.943   2.295  18.500  0.00  0.00    +0.000 C 
BRANCH  25  26
ATOM     26  C   UNL     1       0.828   2.635  19.489  0.00  0.00    +0.000 C 
BRANCH  26  28
ATOM     27  C   UNL     1       2.764   2.654  21.096  0.00  0.00    +0.000 C 
ATOM     28  C   UNL     1       1.359   3.194  20.824  0.00  0.00    +0.000 C 
ATOM     29  C   UNL     1       1.386   4.725  20.862  0.00  0.00    +0.000 C 
ENDBRANCH  26  28
ENDBRANCH  25  26
ENDBRANCH  24  25
ENDBRANCH  18  24
ENDBRANCH  17  22
ENDBRANCH  16  17
ENDBRANCH   1  16
TORSDOF 9
ENDMDL
MODEL 8
REMARK VINA RESULT:      -6.8      2.076      2.970
REMARK  Name = 
REMARK  13 active torsions:
REMARK  status: ('A' for Active; 'I' for Inactive)
REMARK    1  A    between atoms: C_1  and  C_2
REMARK    2  A    between atoms: C_2  and  C_3
REMARK    3  A    between atoms: C_2  and  C_4
REMARK    4  A    between atoms: C_4  and  C_5
REMARK    5  A    between atoms: C_5  and  O_6
REMARK    6  A    between atoms: O_6  and  C_7
REMARK    7  A    between atoms: C_11  and  C_12
REMARK    8  A    between atoms: C_12  and  C_13
REMARK    9  A    between atoms: C_13  and  N_14
REMARK   10  A    between atoms: C_20  and  N_21
REMARK   11  A    between atoms: N_21  and  C_22
REMARK   12  A    between atoms: N_21  and  C_23
REMARK   13  A    between atoms: C_24  and  O_25
REMARK                            x       y       z     vdW  Elec       q    Type
REMARK                         _______ _______ _______ _____ _____    ______ ____
ROOT
ATOM      1  N   UNL     1       1.626   8.741  20.272  0.00  0.00    +0.000 N 
ATOM      2  C   UNL     1       1.151   9.520  19.241  0.00  0.00    +0.000 C 
ATOM      3  O   UNL     1       1.173   9.135  18.071  0.00  0.00    +0.000 OA
ATOM      4  N   UNL     1       0.711  10.772  19.604  0.00  0.00    +0.000 N 
ATOM      5  C   UNL     1       0.728  11.279  20.969  0.00  0.00    +0.000 C 
ATOM      6  C   UNL     1       0.844  12.798  21.035  0.00  0.00    +0.000 C 
ATOM      7  C   UNL     1       1.785  13.319  19.927  0.00  0.00    +0.000 C 
ATOM      8  C   UNL     1       1.140  12.975  18.540  0.00  0.00    +0.000 C 
ATOM      9  C   UNL     1       0.264  11.705  18.570  0.00  0.00    +0.000 C 
ATOM     10  H   UNL     1       1.093   8.848  21.124  0.00  0.00    +0.000 HD
ENDROOT
BRANCH   7  11
ATOM     11  N   UNL     1       2.083  14.779  20.071  0.00  0.00    +0.000 NA
ATOM     12  C   UNL     1       3.474  15.104  19.735  0.00  0.00    +0.000 C 
ATOM     13  C   UNL     1       1.207  15.596  19.214  0.00  0.00    +0.000 C 
ENDBRANCH   7  11
BRANCH   8  14
ATOM     14  O   UNL     1       2.166  12.823  17.545  0.00  0.00    +0.000 OA
ATOM     15  H   UNL     1       2.969  13.259  17.883  0.00  0.00    +0.000 HD
ENDBRANCH   8  14
BRANCH   1  16
ATOM     16  C   UNL     1       2.093   7.405  19.946  0.00  0.00    +0.000 C 
BRANCH  16  17
ATOM     17  C   UNL     1       1.420   6.277  20.734  0.00  0.00    +0.000 C 
BRANCH  17  22
ATOM     18  C   UNL     1       2.487   3.485  18.315  0.00  0.00    +0.000 A 
ATOM     19  C   UNL     1       2.029   2.351  18.991  0.00  0.00    +0.000 A 
ATOM     20  C   UNL     1       1.393   2.491  20.226  0.00  0.00    +0.000 A 
ATOM     21  C   UNL     1       1.200   3.749  20.790  0.00  0.00    +0.000 A 
ATOM     22  C   UNL     1       1.635   4.903  20.121  0.00  0.00    +0.000 A 
ATOM     23  C   UNL     1       2.262   4.747  18.874  0.00  0.00    +0.000 A 
BRANCH  18  24
ATOM     24  O   UNL     1       3.084   3.258  17.099  0.00  0.00    +0.000 OA
BRANCH  24  25
ATOM     25  C   UNL     1       4.509   3.384  17.099  0.00  0.00    +0.000 C 
BRANCH  25  26
ATOM     26  C   UNL     1       4.919   4.556  16.205  0.00  0.00    +0.000 C 
BRANCH  26  28
ATOM     27  C   UNL     1       4.529   6.900  17.033  0.00  0.00    +0.000 C 
ATOM     28  C   UNL     1       5.518   5.734  16.998  0.00  0.00    +0.000 C 
ATOM     29  C   UNL     1       5.908   5.353  18.430  0.00  0.00    +0.000 C 
ENDBRANCH  26  28
ENDBRANCH  25  26
ENDBRANCH  24  25
ENDBRANCH  18  24
ENDBRANCH  17  22
ENDBRANCH  16  17
ENDBRANCH   1  16
TORSDOF 9
ENDMDL
MODEL 9
REMARK VINA RESULT:      -6.7      1.738      3.247
REMARK  Name = 
REMARK  13 active torsions:
REMARK  status: ('A' for Active; 'I' for Inactive)
REMARK    1  A    between atoms: C_1  and  C_2
REMARK    2  A    between atoms: C_2  and  C_3
REMARK    3  A    between atoms: C_2  and  C_4
REMARK    4  A    between atoms: C_4  and  C_5
REMARK    5  A    between atoms: C_5  and  O_6
REMARK    6  A    between atoms: O_6  and  C_7
REMARK    7  A    between atoms: C_11  and  C_12
REMARK    8  A    between atoms: C_12  and  C_13
REMARK    9  A    between atoms: C_13  and  N_14
REMARK   10  A    between atoms: C_20  and  N_21
REMARK   11  A    between atoms: N_21  and  C_22
REMARK   12  A    between atoms: N_21  and  C_23
REMARK   13  A    between atoms: C_24  and  O_25
REMARK                            x       y       z     vdW  Elec       q    Type
REMARK                         _______ _______ _______ _____ _____    ______ ____
ROOT
ATOM      1  N   UNL     1       0.738  10.191  18.162  0.00  0.00    +0.000 N 
ATOM      2  C   UNL     1       0.944  11.453  18.673  0.00  0.00    +0.000 C 
ATOM      3  O   UNL     1       2.075  11.892  18.887  0.00  0.00    +0.000 OA
ATOM      4  N   UNL     1      -0.197  12.157  18.978  0.00  0.00    +0.000 N 
ATOM      5  C   UNL     1      -1.547  11.643  18.793  0.00  0.00    +0.000 C 
ATOM      6  C   UNL     1      -2.552  12.254  19.764  0.00  0.00    +0.000 C 
ATOM      7  C   UNL     1      -1.909  12.460  21.152  0.00  0.00    +0.000 C 
ATOM      8  C   UNL     1      -0.742  13.497  20.998  0.00  0.00    +0.000 C 
ATOM      9  C   UNL     1      -0.084  13.475  19.602  0.00  0.00    +0.000 C 
ATOM     10  H   UNL     1      -0.052  10.144  17.535  0.00  0.00    +0.000 HD
ENDROOT
BRANCH   7  11
ATOM     11  N   UNL     1      -2.907  12.876  22.188  0.00  0.00    +0.000 NA
ATOM     12  C   UNL     1      -4.287  12.802  21.699  0.00  0.00    +0.000 C 
ATOM     13  C   UNL     1      -2.809  12.041  23.398  0.00  0.00    +0.000 C 
ENDBRANCH   7  11
BRANCH   8  14
ATOM     14  O   UNL     1       0.260  13.261  22.000  0.00  0.00    +0.000 OA
ATOM     15  H   UNL     1      -0.176  12.823  22.754  0.00  0.00    +0.000 HD
ENDBRANCH   8  14
BRANCH   1  16
ATOM     16  C   UNL     1       1.911   9.407  17.811  0.00  0.00    +0.000 C 
BRANCH  16  17
ATOM     17  C   UNL     1       2.118   8.145  18.653  0.00  0.00    +0.000 C 
BRANCH  17  22
ATOM     18  C   UNL     1       3.617   4.798  17.501  0.00  0.00    +0.000 A 
ATOM     19  C   UNL     1       4.723   5.234  16.767  0.00  0.00    +0.000 A 
ATOM     20  C   UNL     1       4.970   6.602  16.635  0.00  0.00    +0.000 A 
ATOM     21  C   UNL     1       4.134   7.539  17.235  0.00  0.00    +0.000 A 
ATOM     22  C   UNL     1       3.028   7.123  17.993  0.00  0.00    +0.000 A 
ATOM     23  C   UNL     1       2.800   5.745  18.127  0.00  0.00    +0.000 A 
BRANCH  18  24
ATOM     24  O   UNL     1       3.460   3.436  17.596  0.00  0.00    +0.000 OA
BRANCH  24  25
ATOM     25  C   UNL     1       4.022   2.849  18.773  0.00  0.00    +0.000 C 
BRANCH  25  26
ATOM     26  C   UNL     1       2.948   2.043  19.505  0.00  0.00    +0.000 C 
BRANCH  26  28
ATOM     27  C   UNL     1       0.546   2.772  19.326  0.00  0.00    +0.000 C 
ATOM     28  C   UNL     1       1.845   2.929  20.117  0.00  0.00    +0.000 C 
ATOM     29  C   UNL     1       1.582   2.618  21.594  0.00  0.00    +0.000 C 
ENDBRANCH  26  28
ENDBRANCH  25  26
ENDBRANCH  24  25
ENDBRANCH  18  24
ENDBRANCH  17  22
ENDBRANCH  16  17
ENDBRANCH   1  16
TORSDOF 9
ENDMDL
