MODEL 1
REMARK VINA RESULT:      -8.8      0.000      0.000
REMARK  Name = 
REMARK  5 active torsions:
REMARK  status: ('A' for Active; 'I' for Inactive)
REMARK    1  A    between atoms: C_2  and  C_3
REMARK    2  A    between atoms: C_5  and  C_6
REMARK    3  A    between atoms: C_11  and  C_12
REMARK    4  A    between atoms: N_22  and  C_23
REMARK    5  A    between atoms: C_23  and  C_24
REMARK                            x       y       z     vdW  Elec       q    Type
REMARK                         _______ _______ _______ _____ _____    ______ ____
ROOT
ATOM      1  O   UNL     1       3.225   8.017  17.011  0.00  0.00    +0.000 OA
ATOM      2  C   UNL     1       2.671   7.571  18.012  0.00  0.00    +0.000 C 
ATOM      3  N   UNL     1       1.798   8.352  18.798  0.00  0.00    +0.000 N 
ATOM      4  C   UNL     1       1.516   9.696  18.300  0.00  0.00    +0.000 C 
ATOM      5  C   UNL     1       0.058  10.144  18.334  0.00  0.00    +0.000 C 
ATOM      6  C   UNL     1      -0.823   9.801  19.535  0.00  0.00    +0.000 C 
ATOM      7  N   UNL     1      -0.226   9.603  20.853  0.00  0.00    +0.000 NA
ATOM      8  C   UNL     1       0.456   8.310  20.948  0.00  0.00    +0.000 C 
ATOM      9  C   UNL     1       1.824   8.199  20.264  0.00  0.00    +0.000 C 
ENDROOT
BRANCH   2  10
ATOM     10  C   UNL     1       2.828   6.200  18.425  0.00  0.00    +0.000 A 
ATOM     11  N   UNL     1       1.769   5.355  18.657  0.00  0.00    +0.000 N 
ATOM     12  C   UNL     1       2.247   4.126  19.021  0.00  0.00    +0.000 A 
ATOM     13  N   UNL     1       3.569   4.129  18.987  0.00  0.00    +0.000 NA
ATOM     14  C   UNL     1       3.947   5.410  18.620  0.00  0.00    +0.000 A 
ATOM     15  H   UNL     1       0.791   5.613  18.593  0.00  0.00    +0.000 HD
BRANCH  14  16
ATOM     16  C   UNL     1       5.345   5.807  18.507  0.00  0.00    +0.000 A 
ATOM     17  C   UNL     1       5.756   6.580  17.413  0.00  0.00    +0.000 A 
ATOM     18  C   UNL     1       7.088   6.987  17.282  0.00  0.00    +0.000 A 
ATOM     19  C   UNL     1       8.029   6.615  18.240  0.00  0.00    +0.000 A 
ATOM     20  C   UNL     1       7.642   5.830  19.322  0.00  0.00    +0.000 A 
ATOM     21  C   UNL     1       6.311   5.420  19.449  0.00  0.00    +0.000 A 
ENDBRANCH  14  16
BRANCH  12  22
ATOM     22  C   UNL     1       1.295   3.036  19.388  0.00  0.00    +0.000 C 
ATOM     23  F   UNL     1       1.976   1.916  19.768  0.00  0.00    +0.000 F 
ATOM     24  F   UNL     1       0.492   3.367  20.428  0.00  0.00    +0.000 F 
ATOM     25  F   UNL     1       0.500   2.663  18.355  0.00  0.00    +0.000 F 
ENDBRANCH  12  22
ENDBRANCH   2  10
BRANCH   7  26
ATOM     26  C   UNL     1       0.575  10.712  21.377  0.00  0.00    +0.000 C 
BRANCH  26  27
ATOM     27  C   UNL     1      -0.241  11.807  22.020  0.00  0.00    +0.000 A 
ATOM     28  C   UNL     1       0.108  13.152  21.827  0.00  0.00    +0.000 A 
ATOM     29  C   UNL     1      -0.640  14.164  22.420  0.00  0.00    +0.000 A 
ATOM     30  C   UNL     1      -1.735  13.832  23.211  0.00  0.00    +0.000 A 
ATOM     31  F   UNL     1      -2.452  14.806  23.788  0.00  0.00    +0.000 F 
ATOM     32  C   UNL     1      -2.097  12.506  23.414  0.00  0.00    +0.000 A 
ATOM     33  C   UNL     1      -1.350  11.491  22.818  0.00  0.00    +0.000 A 
ENDBRANCH  26  27
ENDBRANCH   7  26
TORSDOF 5
ENDMDL
MODEL 2
REMARK VINA RESULT:      -8.7      0.144      1.080
REMARK  Name = 
REMARK  5 active torsions:
REMARK  status: ('A' for Active; 'I' for Inactive)
REMARK    1  A    between atoms: C_2  and  C_3
REMARK    2  A    between atoms: C_5  and  C_6
REMARK    3  A    between atoms: C_11  and  C_12
REMARK    4  A    between atoms: N_22  and  C_23
REMARK    5  A    between atoms: C_23  and  C_24
REMARK                            x       y       z     vdW  Elec       q    Type
REMARK                         _______ _______ _______ _____ _____    ______ ____
ROOT
ATOM      1  O   UNL     1       3.194   8.065  17.083  0.00  0.00    +0.000 OA
ATOM      2  C   UNL     1       2.647   7.576  18.067  0.00  0.00    +0.000 C 
ATOM      3  N   UNL     1       1.772   8.319  18.886  0.00  0.00    +0.000 N 
ATOM      4  C   UNL     1       1.476   9.679  18.442  0.00  0.00    +0.000 C 
ATOM      5  C   UNL     1       0.015  10.114  18.499  0.00  0.00    +0.000 C 
ATOM      6  C   UNL     1      -0.858   9.719  19.689  0.00  0.00    +0.000 C 
ATOM      7  N   UNL     1      -0.253   9.475  20.996  0.00  0.00    +0.000 NA
ATOM      8  C   UNL     1       0.438   8.185  21.039  0.00  0.00    +0.000 C 
ATOM      9  C   UNL     1       1.805   8.110  20.346  0.00  0.00    +0.000 C 
ENDROOT
BRANCH   2  10
ATOM     10  C   UNL     1       2.817   6.192  18.427  0.00  0.00    +0.000 A 
ATOM     11  N   UNL     1       1.765   5.331  18.632  0.00  0.00    +0.000 N 
ATOM     12  C   UNL     1       2.254   4.092  18.947  0.00  0.00    +0.000 A 
ATOM     13  N   UNL     1       3.576   4.107  18.905  0.00  0.00    +0.000 NA
ATOM     14  C   UNL     1       3.943   5.403  18.585  0.00  0.00    +0.000 A 
ATOM     15  H   UNL     1       0.786   5.584  18.585  0.00  0.00    +0.000 HD
BRANCH  14  16
ATOM     16  C   UNL     1       5.337   5.814  18.479  0.00  0.00    +0.000 A 
ATOM     17  C   UNL     1       5.742   6.607  17.397  0.00  0.00    +0.000 A 
ATOM     18  C   UNL     1       7.070   7.028  17.273  0.00  0.00    +0.000 A 
ATOM     19  C   UNL     1       8.013   6.652  18.227  0.00  0.00    +0.000 A 
ATOM     20  C   UNL     1       7.633   5.847  19.296  0.00  0.00    +0.000 A 
ATOM     21  C   UNL     1       6.306   5.423  19.417  0.00  0.00    +0.000 A 
ENDBRANCH  14  16
BRANCH  12  22
ATOM     22  C   UNL     1       1.313   2.982  19.277  0.00  0.00    +0.000 C 
ATOM     23  F   UNL     1       0.589   3.287  20.393  0.00  0.00    +0.000 F 
ATOM     24  F   UNL     1       0.413   2.745  18.292  0.00  0.00    +0.000 F 
ATOM     25  F   UNL     1       1.948   1.816  19.546  0.00  0.00    +0.000 F 
ENDBRANCH  12  22
ENDBRANCH   2  10
BRANCH   7  26
ATOM     26  C   UNL     1       0.541  10.569  21.559  0.00  0.00    +0.000 C 
BRANCH  26  27
ATOM     27  C   UNL     1      -0.284  11.725  22.069  0.00  0.00    +0.000 A 
ATOM     28  C   UNL     1      -1.396  11.488  22.891  0.00  0.00    +0.000 A 
ATOM     29  C   UNL     1      -2.161  12.552  23.361  0.00  0.00    +0.000 A 
ATOM     30  C   UNL     1      -1.818  13.852  23.005  0.00  0.00    +0.000 A 
ATOM     31  F   UNL     1      -2.558  14.876  23.451  0.00  0.00    +0.000 F 
ATOM     32  C   UNL     1      -0.720  14.107  22.193  0.00  0.00    +0.000 A 
ATOM     33  C   UNL     1       0.049  13.043  21.723  0.00  0.00    +0.000 A 
ENDBRANCH  26  27
ENDBRANCH   7  26
TORSDOF 5
ENDMDL
MODEL 3
REMARK VINA RESULT:      -8.7      0.295      1.131
REMARK  Name = 
REMARK  5 active torsions:
REMARK  status: ('A' for Active; 'I' for Inactive)
REMARK    1  A    between atoms: C_2  and  C_3
REMARK    2  A    between atoms: C_5  and  C_6
REMARK    3  A    between atoms: C_11  and  C_12
REMARK    4  A    between atoms: N_22  and  C_23
REMARK    5  A    between atoms: C_23  and  C_24
REMARK                            x       y       z     vdW  Elec       q    Type
REMARK                         _______ _______ _______ _____ _____    ______ ____
ROOT
ATOM      1  O   UNL     1       3.134   8.011  16.985  0.00  0.00    +0.000 OA
ATOM      2  C   UNL     1       2.623   7.554  18.003  0.00  0.00    +0.000 C 
ATOM      3  N   UNL     1       1.785   8.326  18.834  0.00  0.00    +0.000 N 
ATOM      4  C   UNL     1       1.481   9.675  18.363  0.00  0.00    +0.000 C 
ATOM      5  C   UNL     1       0.026  10.122  18.464  0.00  0.00    +0.000 C 
ATOM      6  C   UNL     1      -0.803   9.766  19.698  0.00  0.00    +0.000 C 
ATOM      7  N   UNL     1      -0.150   9.554  20.987  0.00  0.00    +0.000 NA
ATOM      8  C   UNL     1       0.534   8.261  21.039  0.00  0.00    +0.000 C 
ATOM      9  C   UNL     1       1.873   8.157  20.297  0.00  0.00    +0.000 C 
ENDROOT
BRANCH   2  10
ATOM     10  C   UNL     1       2.798   6.179  18.395  0.00  0.00    +0.000 A 
ATOM     11  N   UNL     1       1.749   5.320  18.623  0.00  0.00    +0.000 N 
ATOM     12  C   UNL     1       2.243   4.090  18.965  0.00  0.00    +0.000 A 
ATOM     13  N   UNL     1       3.564   4.107  18.920  0.00  0.00    +0.000 NA
ATOM     14  C   UNL     1       3.927   5.397  18.569  0.00  0.00    +0.000 A 
ATOM     15  H   UNL     1       0.769   5.569  18.571  0.00  0.00    +0.000 HD
BRANCH  14  16
ATOM     16  C   UNL     1       5.320   5.810  18.450  0.00  0.00    +0.000 A 
ATOM     17  C   UNL     1       6.242   5.411  19.428  0.00  0.00    +0.000 A 
ATOM     18  C   UNL     1       7.588   5.781  19.336  0.00  0.00    +0.000 A 
ATOM     19  C   UNL     1       8.027   6.562  18.270  0.00  0.00    +0.000 A 
ATOM     20  C   UNL     1       7.120   6.984  17.303  0.00  0.00    +0.000 A 
ATOM     21  C   UNL     1       5.774   6.619  17.397  0.00  0.00    +0.000 A 
ENDBRANCH  14  16
BRANCH  12  22
ATOM     22  C   UNL     1       1.305   2.985  19.323  0.00  0.00    +0.000 C 
ATOM     23  F   UNL     1       0.439   2.743  18.296  0.00  0.00    +0.000 F 
ATOM     24  F   UNL     1       1.941   1.814  19.570  0.00  0.00    +0.000 F 
ATOM     25  F   UNL     1       0.540   3.275  20.403  0.00  0.00    +0.000 F 
ENDBRANCH  12  22
ENDBRANCH   2  10
BRANCH   7  26
ATOM     26  C   UNL     1       0.672  10.658  21.488  0.00  0.00    +0.000 C 
BRANCH  26  27
ATOM     27  C   UNL     1      -0.120  11.877  21.891  0.00  0.00    +0.000 A 
ATOM     28  C   UNL     1       0.161  13.123  21.310  0.00  0.00    +0.000 A 
ATOM     29  C   UNL     1      -0.565  14.251  21.681  0.00  0.00    +0.000 A 
ATOM     30  C   UNL     1      -1.569  14.135  22.638  0.00  0.00    +0.000 A 
ATOM     31  F   UNL     1      -2.264  15.222  23.000  0.00  0.00    +0.000 F 
ATOM     32  C   UNL     1      -1.862  12.911  23.224  0.00  0.00    +0.000 A 
ATOM     33  C   UNL     1      -1.137  11.779  22.851  0.00  0.00    +0.000 A 
ENDBRANCH  26  27
ENDBRANCH   7  26
TORSDOF 5
ENDMDL
MODEL 4
REMARK VINA RESULT:      -8.7      1.089      1.735
REMARK  Name = 
REMARK  5 active torsions:
REMARK  status: ('A' for Active; 'I' for Inactive)
REMARK    1  A    between atoms: C_2  and  C_3
REMARK    2  A    between atoms: C_5  and  C_6
REMARK    3  A    between atoms: C_11  and  C_12
REMARK    4  A    between atoms: N_22  and  C_23
REMARK    5  A    between atoms: C_23  and  C_24
REMARK                            x       y       z     vdW  Elec       q    Type
REMARK                         _______ _______ _______ _____ _____    ______ ____
ROOT
ATOM      1  O   UNL     1       3.413   7.813  17.187  0.00  0.00    +0.000 OA
ATOM      2  C   UNL     1       2.811   7.421  18.182  0.00  0.00    +0.000 C 
ATOM      3  N   UNL     1       1.907   8.244  18.886  0.00  0.00    +0.000 N 
ATOM      4  C   UNL     1       1.655   9.562  18.306  0.00  0.00    +0.000 C 
ATOM      5  C   UNL     1       0.199  10.015  18.250  0.00  0.00    +0.000 C 
ATOM      6  C   UNL     1      -0.737   9.738  19.425  0.00  0.00    +0.000 C 
ATOM      7  N   UNL     1      -0.202   9.607  20.777  0.00  0.00    +0.000 NA
ATOM      8  C   UNL     1       0.467   8.319  20.971  0.00  0.00    +0.000 C 
ATOM      9  C   UNL     1       1.864   8.168  20.358  0.00  0.00    +0.000 C 
ENDROOT
BRANCH   2  10
ATOM     10  C   UNL     1       2.942   6.073  18.673  0.00  0.00    +0.000 A 
ATOM     11  N   UNL     1       2.079   5.515  19.585  0.00  0.00    +0.000 N 
ATOM     12  C   UNL     1       2.464   4.226  19.837  0.00  0.00    +0.000 A 
ATOM     13  N   UNL     1       3.509   3.915  19.090  0.00  0.00    +0.000 NA
ATOM     14  C   UNL     1       3.821   5.051  18.361  0.00  0.00    +0.000 A 
ATOM     15  H   UNL     1       1.299   5.994  20.021  0.00  0.00    +0.000 HD
BRANCH  14  16
ATOM     16  C   UNL     1       4.949   5.100  17.439  0.00  0.00    +0.000 A 
ATOM     17  C   UNL     1       4.877   4.403  16.225  0.00  0.00    +0.000 A 
ATOM     18  C   UNL     1       5.938   4.439  15.314  0.00  0.00    +0.000 A 
ATOM     19  C   UNL     1       7.089   5.166  15.611  0.00  0.00    +0.000 A 
ATOM     20  C   UNL     1       7.184   5.846  16.821  0.00  0.00    +0.000 A 
ATOM     21  C   UNL     1       6.125   5.806  17.733  0.00  0.00    +0.000 A 
ENDBRANCH  14  16
BRANCH  12  22
ATOM     22  C   UNL     1       1.722   3.411  20.845  0.00  0.00    +0.000 C 
ATOM     23  F   UNL     1       0.402   3.758  20.860  0.00  0.00    +0.000 F 
ATOM     24  F   UNL     1       1.765   2.083  20.581  0.00  0.00    +0.000 F 
ATOM     25  F   UNL     1       2.177   3.596  22.108  0.00  0.00    +0.000 F 
ENDBRANCH  12  22
ENDBRANCH   2  10
BRANCH   7  26
ATOM     26  C   UNL     1       0.579  10.740  21.280  0.00  0.00    +0.000 C 
BRANCH  26  27
ATOM     27  C   UNL     1      -0.250  11.807  21.949  0.00  0.00    +0.000 A 
ATOM     28  C   UNL     1      -1.351  11.450  22.742  0.00  0.00    +0.000 A 
ATOM     29  C   UNL     1      -2.121  12.432  23.360  0.00  0.00    +0.000 A 
ATOM     30  C   UNL     1      -1.792  13.772  23.180  0.00  0.00    +0.000 A 
ATOM     31  F   UNL     1      -2.537  14.719  23.768  0.00  0.00    +0.000 F 
ATOM     32  C   UNL     1      -0.706  14.146  22.399  0.00  0.00    +0.000 A 
ATOM     33  C   UNL     1       0.067  13.163  21.782  0.00  0.00    +0.000 A 
ENDBRANCH  26  27
ENDBRANCH   7  26
TORSDOF 5
ENDMDL
MODEL 5
REMARK VINA RESULT:      -8.7      0.328      1.238
REMARK  Name = 
REMARK  5 active torsions:
REMARK  status: ('A' for Active; 'I' for Inactive)
REMARK    1  A    between atoms: C_2  and  C_3
REMARK    2  A    between atoms: C_5  and  C_6
REMARK    3  A    between atoms: C_11  and  C_12
REMARK    4  A    between atoms: N_22  and  C_23
REMARK    5  A    between atoms: C_23  and  C_24
REMARK                            x       y       z     vdW  Elec       q    Type
REMARK                         _______ _______ _______ _____ _____    ______ ____
ROOT
ATOM      1  O   UNL     1       3.085   8.048  17.018  0.00  0.00    +0.000 OA
ATOM      2  C   UNL     1       2.571   7.595  18.036  0.00  0.00    +0.000 C 
ATOM      3  N   UNL     1       1.735   8.371  18.864  0.00  0.00    +0.000 N 
ATOM      4  C   UNL     1       1.437   9.721  18.392  0.00  0.00    +0.000 C 
ATOM      5  C   UNL     1      -0.016  10.174  18.490  0.00  0.00    +0.000 C 
ATOM      6  C   UNL     1      -0.848   9.823  19.723  0.00  0.00    +0.000 C 
ATOM      7  N   UNL     1      -0.198   9.610  21.013  0.00  0.00    +0.000 NA
ATOM      8  C   UNL     1       0.481   8.314  21.068  0.00  0.00    +0.000 C 
ATOM      9  C   UNL     1       1.820   8.204  20.327  0.00  0.00    +0.000 C 
ENDROOT
BRANCH   2  10
ATOM     10  C   UNL     1       2.740   6.219  18.429  0.00  0.00    +0.000 A 
ATOM     11  N   UNL     1       1.687   5.374  18.688  0.00  0.00    +0.000 N 
ATOM     12  C   UNL     1       2.175   4.139  19.023  0.00  0.00    +0.000 A 
ATOM     13  N   UNL     1       3.495   4.141  18.945  0.00  0.00    +0.000 NA
ATOM     14  C   UNL     1       3.863   5.426  18.579  0.00  0.00    +0.000 A 
ATOM     15  H   UNL     1       0.708   5.634  18.660  0.00  0.00    +0.000 HD
BRANCH  14  16
ATOM     16  C   UNL     1       5.257   5.821  18.423  0.00  0.00    +0.000 A 
ATOM     17  C   UNL     1       6.198   5.420  19.381  0.00  0.00    +0.000 A 
ATOM     18  C   UNL     1       7.546   5.773  19.254  0.00  0.00    +0.000 A 
ATOM     19  C   UNL     1       7.967   6.541  18.171  0.00  0.00    +0.000 A 
ATOM     20  C   UNL     1       7.042   6.965  17.222  0.00  0.00    +0.000 A 
ATOM     21  C   UNL     1       5.695   6.616  17.352  0.00  0.00    +0.000 A 
ENDBRANCH  14  16
BRANCH  12  22
ATOM     22  C   UNL     1       1.233   3.047  19.410  0.00  0.00    +0.000 C 
ATOM     23  F   UNL     1       1.920   1.991  19.936  0.00  0.00    +0.000 F 
ATOM     24  F   UNL     1       0.342   3.432  20.356  0.00  0.00    +0.000 F 
ATOM     25  F   UNL     1       0.534   2.558  18.357  0.00  0.00    +0.000 F 
ENDBRANCH  12  22
ENDBRANCH   2  10
BRANCH   7  26
ATOM     26  C   UNL     1       0.629  10.711  21.514  0.00  0.00    +0.000 C 
BRANCH  26  27
ATOM     27  C   UNL     1      -0.157  11.943  21.893  0.00  0.00    +0.000 A 
ATOM     28  C   UNL     1      -1.164  11.864  22.867  0.00  0.00    +0.000 A 
ATOM     29  C   UNL     1      -1.892  12.997  23.218  0.00  0.00    +0.000 A 
ATOM     30  C   UNL     1      -1.617  14.209  22.591  0.00  0.00    +0.000 A 
ATOM     31  F   UNL     1      -2.323  15.298  22.923  0.00  0.00    +0.000 F 
ATOM     32  C   UNL     1      -0.624  14.307  21.625  0.00  0.00    +0.000 A 
ATOM     33  C   UNL     1       0.109  13.173  21.275  0.00  0.00    +0.000 A 
ENDBRANCH  26  27
ENDBRANCH   7  26
TORSDOF 5
ENDMDL
MODEL 6
REMARK VINA RESULT:      -8.7      1.074      1.374
REMARK  Name = 
REMARK  5 active torsions:
REMARK  status: ('A' for Active; 'I' for Inactive)
REMARK    1  A    between atoms: C_2  and  C_3
REMARK    2  A    between atoms: C_5  and  C_6
REMARK    3  A    between atoms: C_11  and  C_12
REMARK    4  A    between atoms: N_22  and  C_23
REMARK    5  A    between atoms: C_23  and  C_24
REMARK                            x       y       z     vdW  Elec       q    Type
REMARK                         _______ _______ _______ _____ _____    ______ ____
ROOT
ATOM      1  O   UNL     1       3.382   7.857  17.196  0.00  0.00    +0.000 OA
ATOM      2  C   UNL     1       2.789   7.466  18.197  0.00  0.00    +0.000 C 
ATOM      3  N   UNL     1       1.878   8.282  18.898  0.00  0.00    +0.000 N 
ATOM      4  C   UNL     1       1.606   9.592  18.310  0.00  0.00    +0.000 C 
ATOM      5  C   UNL     1       0.145  10.027  18.257  0.00  0.00    +0.000 C 
ATOM      6  C   UNL     1      -0.783   9.747  19.438  0.00  0.00    +0.000 C 
ATOM      7  N   UNL     1      -0.240   9.632  20.789  0.00  0.00    +0.000 NA
ATOM      8  C   UNL     1       0.446   8.354  20.989  0.00  0.00    +0.000 C 
ATOM      9  C   UNL     1       1.843   8.217  20.371  0.00  0.00    +0.000 C 
ENDROOT
BRANCH   2  10
ATOM     10  C   UNL     1       2.939   6.123  18.697  0.00  0.00    +0.000 A 
ATOM     11  N   UNL     1       2.084   5.559  19.613  0.00  0.00    +0.000 N 
ATOM     12  C   UNL     1       2.488   4.277  19.874  0.00  0.00    +0.000 A 
ATOM     13  N   UNL     1       3.539   3.977  19.129  0.00  0.00    +0.000 NA
ATOM     14  C   UNL     1       3.834   5.112  18.393  0.00  0.00    +0.000 A 
ATOM     15  H   UNL     1       1.297   6.029  20.044  0.00  0.00    +0.000 HD
BRANCH  14  16
ATOM     16  C   UNL     1       4.962   5.171  17.472  0.00  0.00    +0.000 A 
ATOM     17  C   UNL     1       4.897   4.476  16.257  0.00  0.00    +0.000 A 
ATOM     18  C   UNL     1       5.958   4.522  15.347  0.00  0.00    +0.000 A 
ATOM     19  C   UNL     1       7.103   5.257  15.646  0.00  0.00    +0.000 A 
ATOM     20  C   UNL     1       7.192   5.936  16.858  0.00  0.00    +0.000 A 
ATOM     21  C   UNL     1       6.133   5.886  17.769  0.00  0.00    +0.000 A 
ENDBRANCH  14  16
BRANCH  12  22
ATOM     22  C   UNL     1       1.757   3.458  20.886  0.00  0.00    +0.000 C 
ATOM     23  F   UNL     1       2.216   3.733  22.142  0.00  0.00    +0.000 F 
ATOM     24  F   UNL     1       0.426   3.708  20.903  0.00  0.00    +0.000 F 
ATOM     25  F   UNL     1       1.926   2.126  20.705  0.00  0.00    +0.000 F 
ENDBRANCH  12  22
ENDBRANCH   2  10
BRANCH   7  26
ATOM     26  C   UNL     1       0.529  10.778  21.280  0.00  0.00    +0.000 C 
BRANCH  26  27
ATOM     27  C   UNL     1      -0.305  11.818  21.987  0.00  0.00    +0.000 A 
ATOM     28  C   UNL     1      -0.007  13.181  21.837  0.00  0.00    +0.000 A 
ATOM     29  C   UNL     1      -0.772  14.144  22.490  0.00  0.00    +0.000 A 
ATOM     30  C   UNL     1      -1.832  13.743  23.298  0.00  0.00    +0.000 A 
ATOM     31  F   UNL     1      -2.564  14.668  23.932  0.00  0.00    +0.000 F 
ATOM     32  C   UNL     1      -2.143  12.399  23.459  0.00  0.00    +0.000 A 
ATOM     33  C   UNL     1      -1.379  11.434  22.803  0.00  0.00    +0.000 A 
ENDBRANCH  26  27
ENDBRANCH   7  26
TORSDOF 5
ENDMDL
MODEL 7
REMARK VINA RESULT:      -8.6      1.074      1.678
REMARK  Name = 
REMARK  5 active torsions:
REMARK  status: ('A' for Active; 'I' for Inactive)
REMARK    1  A    between atoms: C_2  and  C_3
REMARK    2  A    between atoms: C_5  and  C_6
REMARK    3  A    between atoms: C_11  and  C_12
REMARK    4  A    between atoms: N_22  and  C_23
REMARK    5  A    between atoms: C_23  and  C_24
REMARK                            x       y       z     vdW  Elec       q    Type
REMARK                         _______ _______ _______ _____ _____    ______ ____
ROOT
ATOM      1  O   UNL     1       3.375   7.835  17.220  0.00  0.00    +0.000 OA
ATOM      2  C   UNL     1       2.790   7.442  18.225  0.00  0.00    +0.000 C 
ATOM      3  N   UNL     1       1.885   8.259  18.934  0.00  0.00    +0.000 N 
ATOM      4  C   UNL     1       1.610   9.570  18.350  0.00  0.00    +0.000 C 
ATOM      5  C   UNL     1       0.149  10.006  18.308  0.00  0.00    +0.000 C 
ATOM      6  C   UNL     1      -0.771   9.725  19.495  0.00  0.00    +0.000 C 
ATOM      7  N   UNL     1      -0.219   9.608  20.842  0.00  0.00    +0.000 NA
ATOM      8  C   UNL     1       0.468   8.329  21.035  0.00  0.00    +0.000 C 
ATOM      9  C   UNL     1       1.860   8.191  20.407  0.00  0.00    +0.000 C 
ENDROOT
BRANCH   2  10
ATOM     10  C   UNL     1       2.942   6.099  18.721  0.00  0.00    +0.000 A 
ATOM     11  N   UNL     1       2.100   5.537  19.651  0.00  0.00    +0.000 N 
ATOM     12  C   UNL     1       2.502   4.254  19.905  0.00  0.00    +0.000 A 
ATOM     13  N   UNL     1       3.539   3.949  19.143  0.00  0.00    +0.000 NA
ATOM     14  C   UNL     1       3.827   5.084  18.402  0.00  0.00    +0.000 A 
ATOM     15  H   UNL     1       1.322   6.011  20.095  0.00  0.00    +0.000 HD
BRANCH  14  16
ATOM     16  C   UNL     1       4.940   5.139  17.462  0.00  0.00    +0.000 A 
ATOM     17  C   UNL     1       6.114   5.816  17.823  0.00  0.00    +0.000 A 
ATOM     18  C   UNL     1       7.204   5.876  16.948  0.00  0.00    +0.000 A 
ATOM     19  C   UNL     1       7.130   5.267  15.697  0.00  0.00    +0.000 A 
ATOM     20  C   UNL     1       5.964   4.609  15.316  0.00  0.00    +0.000 A 
ATOM     21  C   UNL     1       4.874   4.554  16.188  0.00  0.00    +0.000 A 
ENDBRANCH  14  16
BRANCH  12  22
ATOM     22  C   UNL     1       1.785   3.438  20.928  0.00  0.00    +0.000 C 
ATOM     23  F   UNL     1       2.023   2.108  20.729  0.00  0.00    +0.000 F 
ATOM     24  F   UNL     1       2.185   3.712  22.194  0.00  0.00    +0.000 F 
ATOM     25  F   UNL     1       0.440   3.594  20.877  0.00  0.00    +0.000 F 
ENDBRANCH  12  22
ENDBRANCH   2  10
BRANCH   7  26
ATOM     26  C   UNL     1       0.555  10.752  21.329  0.00  0.00    +0.000 C 
BRANCH  26  27
ATOM     27  C   UNL     1      -0.282  11.826  21.980  0.00  0.00    +0.000 A 
ATOM     28  C   UNL     1      -1.391  11.475  22.764  0.00  0.00    +0.000 A 
ATOM     29  C   UNL     1      -2.168  12.462  23.364  0.00  0.00    +0.000 A 
ATOM     30  C   UNL     1      -1.838  13.801  23.175  0.00  0.00    +0.000 A 
ATOM     31  F   UNL     1      -2.589  14.752  23.747  0.00  0.00    +0.000 F 
ATOM     32  C   UNL     1      -0.744  14.168  22.403  0.00  0.00    +0.000 A 
ATOM     33  C   UNL     1       0.037  13.180  21.804  0.00  0.00    +0.000 A 
ENDBRANCH  26  27
ENDBRANCH   7  26
TORSDOF 5
ENDMDL
MODEL 8
REMARK VINA RESULT:      -8.3      3.666      8.726
REMARK  Name = 
REMARK  5 active torsions:
REMARK  status: ('A' for Active; 'I' for Inactive)
REMARK    1  A    between atoms: C_2  and  C_3
REMARK    2  A    between atoms: C_5  and  C_6
REMARK    3  A    between atoms: C_11  and  C_12
REMARK    4  A    between atoms: N_22  and  C_23
REMARK    5  A    between atoms: C_23  and  C_24
REMARK                            x       y       z     vdW  Elec       q    Type
REMARK                         _______ _______ _______ _____ _____    ______ ____
ROOT
ATOM      1  O   UNL     1       0.521   9.906  21.656  0.00  0.00    +0.000 OA
ATOM      2  C   UNL     1       0.571   9.665  20.453  0.00  0.00    +0.000 C 
ATOM      3  N   UNL     1       1.261   8.548  19.939  0.00  0.00    +0.000 N 
ATOM      4  C   UNL     1       1.834   7.637  20.927  0.00  0.00    +0.000 C 
ATOM      5  C   UNL     1       1.626   6.146  20.683  0.00  0.00    +0.000 C 
ATOM      6  C   UNL     1       1.744   5.575  19.270  0.00  0.00    +0.000 C 
ATOM      7  N   UNL     1       2.592   6.232  18.280  0.00  0.00    +0.000 NA
ATOM      8  C   UNL     1       1.972   7.455  17.764  0.00  0.00    +0.000 C 
ATOM      9  C   UNL     1       2.012   8.687  18.677  0.00  0.00    +0.000 C 
ENDROOT
BRANCH   2  10
ATOM     10  C   UNL     1      -0.118  10.477  19.483  0.00  0.00    +0.000 A 
ATOM     11  N   UNL     1      -1.264  10.073  18.839  0.00  0.00    +0.000 N 
ATOM     12  C   UNL     1      -1.677  11.067  17.993  0.00  0.00    +0.000 A 
ATOM     13  N   UNL     1      -0.873  12.111  18.100  0.00  0.00    +0.000 NA
ATOM     14  C   UNL     1       0.102  11.762  19.020  0.00  0.00    +0.000 A 
ATOM     15  H   UNL     1      -1.712   9.172  18.955  0.00  0.00    +0.000 HD
BRANCH  14  16
ATOM     16  C   UNL     1       1.193  12.660  19.377  0.00  0.00    +0.000 A 
ATOM     17  C   UNL     1       2.154  12.995  18.413  0.00  0.00    +0.000 A 
ATOM     18  C   UNL     1       3.206  13.863  18.721  0.00  0.00    +0.000 A 
ATOM     19  C   UNL     1       3.316  14.400  20.001  0.00  0.00    +0.000 A 
ATOM     20  C   UNL     1       2.383  14.061  20.976  0.00  0.00    +0.000 A 
ATOM     21  C   UNL     1       1.334  13.190  20.669  0.00  0.00    +0.000 A 
ENDBRANCH  14  16
BRANCH  12  22
ATOM     22  C   UNL     1      -2.874  10.856  17.126  0.00  0.00    +0.000 C 
ATOM     23  F   UNL     1      -3.814  11.814  17.371  0.00  0.00    +0.000 F 
ATOM     24  F   UNL     1      -2.585  10.934  15.804  0.00  0.00    +0.000 F 
ATOM     25  F   UNL     1      -3.480   9.665  17.347  0.00  0.00    +0.000 F 
ENDBRANCH  12  22
ENDBRANCH   2  10
BRANCH   7  26
ATOM     26  C   UNL     1       3.999   6.414  18.646  0.00  0.00    +0.000 C 
BRANCH  26  27
ATOM     27  C   UNL     1       4.971   5.908  17.609  0.00  0.00    +0.000 A 
ATOM     28  C   UNL     1       4.546   5.001  16.627  0.00  0.00    +0.000 A 
ATOM     29  C   UNL     1       5.441   4.531  15.670  0.00  0.00    +0.000 A 
ATOM     30  C   UNL     1       6.763   4.963  15.699  0.00  0.00    +0.000 A 
ATOM     31  F   UNL     1       7.627   4.505  14.783  0.00  0.00    +0.000 F 
ATOM     32  C   UNL     1       7.204   5.860  16.663  0.00  0.00    +0.000 A 
ATOM     33  C   UNL     1       6.307   6.335  17.620  0.00  0.00    +0.000 A 
ENDBRANCH  26  27
ENDBRANCH   7  26
TORSDOF 5
ENDMDL
MODEL 9
REMARK VINA RESULT:      -8.3      3.675      8.677
REMARK  Name = 
REMARK  5 active torsions:
REMARK  status: ('A' for Active; 'I' for Inactive)
REMARK    1  A    between atoms: C_2  and  C_3
REMARK    2  A    between atoms: C_5  and  C_6
REMARK    3  A    between atoms: C_11  and  C_12
REMARK    4  A    between atoms: N_22  and  C_23
REMARK    5  A    between atoms: C_23  and  C_24
REMARK                            x       y       z     vdW  Elec       q    Type
REMARK                         _______ _______ _______ _____ _____    ______ ____
ROOT
ATOM      1  O   UNL     1       0.542   9.943  21.641  0.00  0.00    +0.000 OA
ATOM      2  C   UNL     1       0.577   9.678  20.443  0.00  0.00    +0.000 C 
ATOM      3  N   UNL     1       1.268   8.556  19.941  0.00  0.00    +0.000 N 
ATOM      4  C   UNL     1       1.863   7.670  20.939  0.00  0.00    +0.000 C 
ATOM      5  C   UNL     1       1.663   6.173  20.728  0.00  0.00    +0.000 C 
ATOM      6  C   UNL     1       1.766   5.575  19.325  0.00  0.00    +0.000 C 
ATOM      7  N   UNL     1       2.595   6.218  18.310  0.00  0.00    +0.000 NA
ATOM      8  C   UNL     1       1.958   7.426  17.779  0.00  0.00    +0.000 C 
ATOM      9  C   UNL     1       2.001   8.676  18.667  0.00  0.00    +0.000 C 
ENDROOT
BRANCH   2  10
ATOM     10  C   UNL     1      -0.132  10.465  19.466  0.00  0.00    +0.000 A 
ATOM     11  N   UNL     1      -1.270  10.031  18.830  0.00  0.00    +0.000 N 
ATOM     12  C   UNL     1      -1.707  11.006  17.975  0.00  0.00    +0.000 A 
ATOM     13  N   UNL     1      -0.925  12.069  18.069  0.00  0.00    +0.000 NA
ATOM     14  C   UNL     1       0.059  11.750  18.990  0.00  0.00    +0.000 A 
ATOM     15  H   UNL     1      -1.699   9.121  18.956  0.00  0.00    +0.000 HD
BRANCH  14  16
ATOM     16  C   UNL     1       1.132  12.675  19.335  0.00  0.00    +0.000 A 
ATOM     17  C   UNL     1       2.143  12.936  18.400  0.00  0.00    +0.000 A 
ATOM     18  C   UNL     1       3.180  13.828  18.696  0.00  0.00    +0.000 A 
ATOM     19  C   UNL     1       3.223  14.462  19.935  0.00  0.00    +0.000 A 
ATOM     20  C   UNL     1       2.238  14.197  20.883  0.00  0.00    +0.000 A 
ATOM     21  C   UNL     1       1.205  13.302  20.588  0.00  0.00    +0.000 A 
ENDBRANCH  14  16
BRANCH  12  22
ATOM     22  C   UNL     1      -2.901  10.761  17.114  0.00  0.00    +0.000 C 
ATOM     23  F   UNL     1      -2.517  10.496  15.831  0.00  0.00    +0.000 F 
ATOM     24  F   UNL     1      -3.634   9.697  17.521  0.00  0.00    +0.000 F 
ATOM     25  F   UNL     1      -3.730  11.832  17.047  0.00  0.00    +0.000 F 
ENDBRANCH  12  22
ENDBRANCH   2  10
BRANCH   7  26
ATOM     26  C   UNL     1       4.005   6.418  18.653  0.00  0.00    +0.000 C 
BRANCH  26  27
ATOM     27  C   UNL     1       4.967   5.927  17.599  0.00  0.00    +0.000 A 
ATOM     28  C   UNL     1       6.282   6.415  17.563  0.00  0.00    +0.000 A 
ATOM     29  C   UNL     1       7.172   5.967  16.591  0.00  0.00    +0.000 A 
ATOM     30  C   UNL     1       6.745   5.034  15.651  0.00  0.00    +0.000 A 
ATOM     31  F   UNL     1       7.599   4.608  14.710  0.00  0.00    +0.000 F 
ATOM     32  C   UNL     1       5.447   4.539  15.669  0.00  0.00    +0.000 A 
ATOM     33  C   UNL     1       4.556   4.985  16.645  0.00  0.00    +0.000 A 
ENDBRANCH  26  27
ENDBRANCH   7  26
TORSDOF 5
ENDMDL
