MODEL 1
REMARK VINA RESULT:      -8.9      0.000      0.000
REMARK  Name = 
REMARK  9 active torsions:
REMARK  status: ('A' for Active; 'I' for Inactive)
REMARK    1  A    between atoms: C_1  and  C_2
REMARK    2  A    between atoms: C_2  and  C_3
REMARK    3  A    between atoms: C_2  and  C_4
REMARK    4  A    between atoms: C_2  and  C_5
REMARK    5  A    between atoms: C_5  and  C_6
REMARK    6  A    between atoms: N_8  and  C_9
REMARK    7  A    between atoms: C_16  and  C_17
REMARK    8  A    between atoms: N_19  and  C_20
REMARK    9  A    between atoms: N_26  and  C_27
REMARK                            x       y       z     vdW  Elec       q    Type
REMARK                         _______ _______ _______ _____ _____    ______ ____
ROOT
ATOM      1  C   UNL     1       2.583   7.033  18.317  0.00  0.00    +0.000 A 
ATOM      2  C   UNL     1       2.523   8.214  17.590  0.00  0.00    +0.000 A 
ATOM      3  C   UNL     1       1.970   9.374  18.128  0.00  0.00    +0.000 A 
ATOM      4  C   UNL     1       1.407   9.341  19.416  0.00  0.00    +0.000 A 
ATOM      5  C   UNL     1       1.432   8.156  20.155  0.00  0.00    +0.000 A 
ATOM      6  C   UNL     1       1.985   6.982  19.584  0.00  0.00    +0.000 A 
ATOM      7  C   UNL     1       0.886   8.456  21.422  0.00  0.00    +0.000 A 
ATOM      8  C   UNL     1       0.546   9.802  21.466  0.00  0.00    +0.000 A 
ATOM      9  N   UNL     1       0.836  10.352  20.210  0.00  0.00    +0.000 N 
ENDROOT
BRANCH   9  10
ATOM     10  C   UNL     1       0.693  11.723  19.792  0.00  0.00    +0.000 A 
ATOM     11  C   UNL     1       1.625  12.702  20.169  0.00  0.00    +0.000 A 
ATOM     12  C   UNL     1       1.501  14.010  19.695  0.00  0.00    +0.000 A 
ATOM     13  C   UNL     1       0.472  14.358  18.819  0.00  0.00    +0.000 A 
ATOM     14  C   UNL     1      -0.460  13.400  18.444  0.00  0.00    +0.000 A 
ATOM     15  C   UNL     1      -0.366  12.099  18.948  0.00  0.00    +0.000 A 
ENDBRANCH   9  10
BRANCH   1  18
ATOM     16  C   UNL     1       4.434   5.382  18.387  0.00  0.00    +0.000 C 
ATOM     17  O   UNL     1       5.002   5.798  19.395  0.00  0.00    +0.000 OA
ATOM     18  N   UNL     1       3.269   5.894  17.832  0.00  0.00    +0.000 N 
ATOM     19  H   UNL     1       2.782   5.318  17.156  0.00  0.00    +0.000 HD
BRANCH  16  20
ATOM     20  C   UNL     1       5.009   4.191  17.650  0.00  0.00    +0.000 C 
BRANCH  20  22
ATOM     21  C   UNL     1       6.060   3.603  15.396  0.00  0.00    +0.000 C 
ATOM     22  C   UNL     1       6.087   4.556  16.605  0.00  0.00    +0.000 C 
ATOM     23  C   UNL     1       7.489   4.532  17.234  0.00  0.00    +0.000 C 
ATOM     24  C   UNL     1       5.791   5.980  16.099  0.00  0.00    +0.000 C 
ENDBRANCH  20  22
ENDBRANCH  16  20
ENDBRANCH   1  18
BRANCH   8  25
ATOM     25  C   UNL     1      -0.116  10.481  22.569  0.00  0.00    +0.000 C 
ATOM     26  O   UNL     1       0.006  10.098  23.727  0.00  0.00    +0.000 OA
ATOM     27  N   UNL     1      -0.899  11.559  22.171  0.00  0.00    +0.000 N 
ATOM     28  H   UNL     1      -0.996  11.706  21.176  0.00  0.00    +0.000 HD
BRANCH  27  29
ATOM     29  C   UNL     1      -1.731  12.349  23.003  0.00  0.00    +0.000 A 
ATOM     30  C   UNL     1      -2.986  11.936  23.456  0.00  0.00    +0.000 A 
ATOM     31  C   UNL     1      -3.797  12.799  24.200  0.00  0.00    +0.000 A 
ATOM     32  C   UNL     1      -3.358  14.083  24.511  0.00  0.00    +0.000 A 
ATOM     33  C   UNL     1      -2.090  14.489  24.106  0.00  0.00    +0.000 A 
ATOM     34  C   UNL     1      -1.275  13.624  23.366  0.00  0.00    +0.000 A 
ENDBRANCH  27  29
ENDBRANCH   8  25
TORSDOF 6
ENDMDL
MODEL 2
REMARK VINA RESULT:      -8.8      0.097      1.149
REMARK  Name = 
REMARK  9 active torsions:
REMARK  status: ('A' for Active; 'I' for Inactive)
REMARK    1  A    between atoms: C_1  and  C_2
REMARK    2  A    between atoms: C_2  and  C_3
REMARK    3  A    between atoms: C_2  and  C_4
REMARK    4  A    between atoms: C_2  and  C_5
REMARK    5  A    between atoms: C_5  and  C_6
REMARK    6  A    between atoms: N_8  and  C_9
REMARK    7  A    between atoms: C_16  and  C_17
REMARK    8  A    between atoms: N_19  and  C_20
REMARK    9  A    between atoms: N_26  and  C_27
REMARK                            x       y       z     vdW  Elec       q    Type
REMARK                         _______ _______ _______ _____ _____    ______ ____
ROOT
ATOM      1  C   UNL     1       2.584   7.003  18.345  0.00  0.00    +0.000 A 
ATOM      2  C   UNL     1       2.511   8.174  17.604  0.00  0.00    +0.000 A 
ATOM      3  C   UNL     1       1.952   9.336  18.130  0.00  0.00    +0.000 A 
ATOM      4  C   UNL     1       1.396   9.315  19.422  0.00  0.00    +0.000 A 
ATOM      5  C   UNL     1       1.433   8.140  20.175  0.00  0.00    +0.000 A 
ATOM      6  C   UNL     1       1.992   6.962  19.616  0.00  0.00    +0.000 A 
ATOM      7  C   UNL     1       0.890   8.451  21.441  0.00  0.00    +0.000 A 
ATOM      8  C   UNL     1       0.541   9.796  21.470  0.00  0.00    +0.000 A 
ATOM      9  N   UNL     1       0.821  10.332  20.206  0.00  0.00    +0.000 N 
ENDROOT
BRANCH   9  10
ATOM     10  C   UNL     1       0.665  11.696  19.771  0.00  0.00    +0.000 A 
ATOM     11  C   UNL     1      -0.392  12.077  18.931  0.00  0.00    +0.000 A 
ATOM     12  C   UNL     1      -0.562  13.418  18.578  0.00  0.00    +0.000 A 
ATOM     13  C   UNL     1       0.294  14.401  19.076  0.00  0.00    +0.000 A 
ATOM     14  C   UNL     1       1.348  14.036  19.903  0.00  0.00    +0.000 A 
ATOM     15  C   UNL     1       1.548  12.691  20.226  0.00  0.00    +0.000 A 
ENDBRANCH   9  10
BRANCH   1  18
ATOM     16  C   UNL     1       4.484   5.406  18.383  0.00  0.00    +0.000 C 
ATOM     17  O   UNL     1       5.092   5.881  19.340  0.00  0.00    +0.000 OA
ATOM     18  N   UNL     1       3.276   5.862  17.871  0.00  0.00    +0.000 N 
ATOM     19  H   UNL     1       2.770   5.245  17.248  0.00  0.00    +0.000 HD
BRANCH  16  20
ATOM     20  C   UNL     1       5.052   4.201  17.665  0.00  0.00    +0.000 C 
BRANCH  20  22
ATOM     21  C   UNL     1       5.805   5.964  15.976  0.00  0.00    +0.000 C 
ATOM     22  C   UNL     1       6.048   4.551  16.537  0.00  0.00    +0.000 C 
ATOM     23  C   UNL     1       5.957   3.531  15.391  0.00  0.00    +0.000 C 
ATOM     24  C   UNL     1       7.468   4.509  17.130  0.00  0.00    +0.000 C 
ENDBRANCH  20  22
ENDBRANCH  16  20
ENDBRANCH   1  18
BRANCH   8  25
ATOM     25  C   UNL     1      -0.122  10.483  22.567  0.00  0.00    +0.000 C 
ATOM     26  O   UNL     1      -0.010  10.101  23.727  0.00  0.00    +0.000 OA
ATOM     27  N   UNL     1      -0.890  11.568  22.162  0.00  0.00    +0.000 N 
ATOM     28  H   UNL     1      -0.979  11.715  21.167  0.00  0.00    +0.000 HD
BRANCH  27  29
ATOM     29  C   UNL     1      -1.719  12.368  22.988  0.00  0.00    +0.000 A 
ATOM     30  C   UNL     1      -2.982  11.971  23.431  0.00  0.00    +0.000 A 
ATOM     31  C   UNL     1      -3.789  12.844  24.168  0.00  0.00    +0.000 A 
ATOM     32  C   UNL     1      -3.337  14.122  24.483  0.00  0.00    +0.000 A 
ATOM     33  C   UNL     1      -2.061  14.513  24.089  0.00  0.00    +0.000 A 
ATOM     34  C   UNL     1      -1.250  13.638  23.355  0.00  0.00    +0.000 A 
ENDBRANCH  27  29
ENDBRANCH   8  25
TORSDOF 6
ENDMDL
MODEL 3
REMARK VINA RESULT:      -8.7      0.126      1.150
REMARK  Name = 
REMARK  9 active torsions:
REMARK  status: ('A' for Active; 'I' for Inactive)
REMARK    1  A    between atoms: C_1  and  C_2
REMARK    2  A    between atoms: C_2  and  C_3
REMARK    3  A    between atoms: C_2  and  C_4
REMARK    4  A    between atoms: C_2  and  C_5
REMARK    5  A    between atoms: C_5  and  C_6
REMARK    6  A    between atoms: N_8  and  C_9
REMARK    7  A    between atoms: C_16  and  C_17
REMARK    8  A    between atoms: N_19  and  C_20
REMARK    9  A    between atoms: N_26  and  C_27
REMARK                            x       y       z     vdW  Elec       q    Type
REMARK                         _______ _______ _______ _____ _____    ______ ____
ROOT
ATOM      1  C   UNL     1       2.552   7.119  18.318  0.00  0.00    +0.000 A 
ATOM      2  C   UNL     1       2.519   8.301  17.593  0.00  0.00    +0.000 A 
ATOM      3  C   UNL     1       1.973   9.468  18.123  0.00  0.00    +0.000 A 
ATOM      4  C   UNL     1       1.391   9.440  19.403  0.00  0.00    +0.000 A 
ATOM      5  C   UNL     1       1.389   8.255  20.140  0.00  0.00    +0.000 A 
ATOM      6  C   UNL     1       1.935   7.073  19.576  0.00  0.00    +0.000 A 
ATOM      7  C   UNL     1       0.827   8.559  21.400  0.00  0.00    +0.000 A 
ATOM      8  C   UNL     1       0.506   9.910  21.441  0.00  0.00    +0.000 A 
ATOM      9  N   UNL     1       0.822  10.458  20.190  0.00  0.00    +0.000 N 
ENDROOT
BRANCH   9  10
ATOM     10  C   UNL     1       0.702  11.831  19.772  0.00  0.00    +0.000 A 
ATOM     11  C   UNL     1       1.658  12.791  20.140  0.00  0.00    +0.000 A 
ATOM     12  C   UNL     1       1.557  14.101  19.666  0.00  0.00    +0.000 A 
ATOM     13  C   UNL     1       0.527  14.470  18.799  0.00  0.00    +0.000 A 
ATOM     14  C   UNL     1      -0.428  13.530  18.433  0.00  0.00    +0.000 A 
ATOM     15  C   UNL     1      -0.356  12.228  18.937  0.00  0.00    +0.000 A 
ENDBRANCH   9  10
BRANCH   1  18
ATOM     16  C   UNL     1       4.387   5.449  18.406  0.00  0.00    +0.000 C 
ATOM     17  O   UNL     1       4.952   5.865  19.417  0.00  0.00    +0.000 OA
ATOM     18  N   UNL     1       3.230   5.971  17.842  0.00  0.00    +0.000 N 
ATOM     19  H   UNL     1       2.742   5.397  17.165  0.00  0.00    +0.000 HD
BRANCH  16  20
ATOM     20  C   UNL     1       4.955   4.250  17.677  0.00  0.00    +0.000 C 
BRANCH  20  22
ATOM     21  C   UNL     1       7.465   4.525  17.290  0.00  0.00    +0.000 C 
ATOM     22  C   UNL     1       6.063   4.599  16.658  0.00  0.00    +0.000 C 
ATOM     23  C   UNL     1       5.848   6.003  16.073  0.00  0.00    +0.000 C 
ATOM     24  C   UNL     1       5.997   3.566  15.518  0.00  0.00    +0.000 C 
ENDBRANCH  20  22
ENDBRANCH  16  20
ENDBRANCH   1  18
BRANCH   8  25
ATOM     25  C   UNL     1      -0.165  10.597  22.534  0.00  0.00    +0.000 C 
ATOM     26  O   UNL     1      -0.099  10.186  23.688  0.00  0.00    +0.000 OA
ATOM     27  N   UNL     1      -0.884  11.716  22.133  0.00  0.00    +0.000 N 
ATOM     28  H   UNL     1      -0.940  11.886  21.139  0.00  0.00    +0.000 HD
BRANCH  27  29
ATOM     29  C   UNL     1      -1.709  12.526  22.953  0.00  0.00    +0.000 A 
ATOM     30  C   UNL     1      -1.327  13.779  23.436  0.00  0.00    +0.000 A 
ATOM     31  C   UNL     1      -2.151  14.489  24.315  0.00  0.00    +0.000 A 
ATOM     32  C   UNL     1      -3.375  13.959  24.712  0.00  0.00    +0.000 A 
ATOM     33  C   UNL     1      -3.789  12.734  24.201  0.00  0.00    +0.000 A 
ATOM     34  C   UNL     1      -2.967  12.024  23.316  0.00  0.00    +0.000 A 
ENDBRANCH  27  29
ENDBRANCH   8  25
TORSDOF 6
ENDMDL
MODEL 4
REMARK VINA RESULT:      -8.6      1.600      2.155
REMARK  Name = 
REMARK  9 active torsions:
REMARK  status: ('A' for Active; 'I' for Inactive)
REMARK    1  A    between atoms: C_1  and  C_2
REMARK    2  A    between atoms: C_2  and  C_3
REMARK    3  A    between atoms: C_2  and  C_4
REMARK    4  A    between atoms: C_2  and  C_5
REMARK    5  A    between atoms: C_5  and  C_6
REMARK    6  A    between atoms: N_8  and  C_9
REMARK    7  A    between atoms: C_16  and  C_17
REMARK    8  A    between atoms: N_19  and  C_20
REMARK    9  A    between atoms: N_26  and  C_27
REMARK                            x       y       z     vdW  Elec       q    Type
REMARK                         _______ _______ _______ _____ _____    ______ ____
ROOT
ATOM      1  C   UNL     1       2.433   6.794  18.699  0.00  0.00    +0.000 A 
ATOM      2  C   UNL     1       2.394   7.919  17.887  0.00  0.00    +0.000 A 
ATOM      3  C   UNL     1       1.856   9.123  18.334  0.00  0.00    +0.000 A 
ATOM      4  C   UNL     1       1.286   9.193  19.618  0.00  0.00    +0.000 A 
ATOM      5  C   UNL     1       1.290   8.067  20.442  0.00  0.00    +0.000 A 
ATOM      6  C   UNL     1       1.828   6.845  19.963  0.00  0.00    +0.000 A 
ATOM      7  C   UNL     1       0.741   8.466  21.681  0.00  0.00    +0.000 A 
ATOM      8  C   UNL     1       0.422   9.817  21.623  0.00  0.00    +0.000 A 
ATOM      9  N   UNL     1       0.726  10.269  20.332  0.00  0.00    +0.000 N 
ENDROOT
BRANCH   9  10
ATOM     10  C   UNL     1       0.605  11.607  19.813  0.00  0.00    +0.000 A 
ATOM     11  C   UNL     1       1.570  12.587  20.091  0.00  0.00    +0.000 A 
ATOM     12  C   UNL     1       1.466  13.858  19.521  0.00  0.00    +0.000 A 
ATOM     13  C   UNL     1       0.423  14.165  18.645  0.00  0.00    +0.000 A 
ATOM     14  C   UNL     1      -0.541  13.205  18.367  0.00  0.00    +0.000 A 
ATOM     15  C   UNL     1      -0.466  11.945  18.967  0.00  0.00    +0.000 A 
ENDBRANCH   9  10
BRANCH   1  18
ATOM     16  C   UNL     1       2.488   4.519  17.709  0.00  0.00    +0.000 C 
ATOM     17  O   UNL     1       1.303   4.438  17.392  0.00  0.00    +0.000 OA
ATOM     18  N   UNL     1       3.105   5.612  18.304  0.00  0.00    +0.000 N 
ATOM     19  H   UNL     1       4.117   5.642  18.289  0.00  0.00    +0.000 HD
BRANCH  16  20
ATOM     20  C   UNL     1       3.412   3.352  17.435  0.00  0.00    +0.000 C 
BRANCH  20  22
ATOM     21  C   UNL     1       4.033   0.971  18.127  0.00  0.00    +0.000 C 
ATOM     22  C   UNL     1       3.517   2.343  18.601  0.00  0.00    +0.000 C 
ATOM     23  C   UNL     1       2.155   2.158  19.288  0.00  0.00    +0.000 C 
ATOM     24  C   UNL     1       4.521   2.905  19.623  0.00  0.00    +0.000 C 
ENDBRANCH  20  22
ENDBRANCH  16  20
ENDBRANCH   1  18
BRANCH   8  25
ATOM     25  C   UNL     1      -0.236  10.585  22.668  0.00  0.00    +0.000 C 
ATOM     26  O   UNL     1      -0.186  10.245  23.846  0.00  0.00    +0.000 OA
ATOM     27  N   UNL     1      -0.927  11.694  22.195  0.00  0.00    +0.000 N 
ATOM     28  H   UNL     1      -0.975  11.805  21.192  0.00  0.00    +0.000 HD
BRANCH  27  29
ATOM     29  C   UNL     1      -1.736  12.573  22.958  0.00  0.00    +0.000 A 
ATOM     30  C   UNL     1      -1.310  13.826  23.403  0.00  0.00    +0.000 A 
ATOM     31  C   UNL     1      -2.124  14.607  24.230  0.00  0.00    +0.000 A 
ATOM     32  C   UNL     1      -3.381  14.149  24.612  0.00  0.00    +0.000 A 
ATOM     33  C   UNL     1      -3.837  12.924  24.137  0.00  0.00    +0.000 A 
ATOM     34  C   UNL     1      -3.025  12.143  23.305  0.00  0.00    +0.000 A 
ENDBRANCH  27  29
ENDBRANCH   8  25
TORSDOF 6
ENDMDL
MODEL 5
REMARK VINA RESULT:      -8.4      1.622      2.186
REMARK  Name = 
REMARK  9 active torsions:
REMARK  status: ('A' for Active; 'I' for Inactive)
REMARK    1  A    between atoms: C_1  and  C_2
REMARK    2  A    between atoms: C_2  and  C_3
REMARK    3  A    between atoms: C_2  and  C_4
REMARK    4  A    between atoms: C_2  and  C_5
REMARK    5  A    between atoms: C_5  and  C_6
REMARK    6  A    between atoms: N_8  and  C_9
REMARK    7  A    between atoms: C_16  and  C_17
REMARK    8  A    between atoms: N_19  and  C_20
REMARK    9  A    between atoms: N_26  and  C_27
REMARK                            x       y       z     vdW  Elec       q    Type
REMARK                         _______ _______ _______ _____ _____    ______ ____
ROOT
ATOM      1  C   UNL     1       2.407   6.769  18.656  0.00  0.00    +0.000 A 
ATOM      2  C   UNL     1       2.397   7.899  17.850  0.00  0.00    +0.000 A 
ATOM      3  C   UNL     1       1.876   9.110  18.298  0.00  0.00    +0.000 A 
ATOM      4  C   UNL     1       1.293   9.183  19.577  0.00  0.00    +0.000 A 
ATOM      5  C   UNL     1       1.267   8.052  20.394  0.00  0.00    +0.000 A 
ATOM      6  C   UNL     1       1.789   6.823  19.913  0.00  0.00    +0.000 A 
ATOM      7  C   UNL     1       0.712   8.454  21.629  0.00  0.00    +0.000 A 
ATOM      8  C   UNL     1       0.417   9.811  21.575  0.00  0.00    +0.000 A 
ATOM      9  N   UNL     1       0.744  10.265  20.290  0.00  0.00    +0.000 N 
ENDROOT
BRANCH   9  10
ATOM     10  C   UNL     1       0.653  11.607  19.778  0.00  0.00    +0.000 A 
ATOM     11  C   UNL     1      -0.389  11.991  18.919  0.00  0.00    +0.000 A 
ATOM     12  C   UNL     1      -0.496  13.315  18.490  0.00  0.00    +0.000 A 
ATOM     13  C   UNL     1       0.410  14.283  18.928  0.00  0.00    +0.000 A 
ATOM     14  C   UNL     1       1.450  13.914  19.772  0.00  0.00    +0.000 A 
ATOM     15  C   UNL     1       1.586  12.582  20.172  0.00  0.00    +0.000 A 
ENDBRANCH   9  10
BRANCH   1  18
ATOM     16  C   UNL     1       2.430   4.494  17.666  0.00  0.00    +0.000 C 
ATOM     17  O   UNL     1       1.244   4.430  17.348  0.00  0.00    +0.000 OA
ATOM     18  N   UNL     1       3.062   5.578  18.261  0.00  0.00    +0.000 N 
ATOM     19  H   UNL     1       4.074   5.593  18.248  0.00  0.00    +0.000 HD
BRANCH  16  20
ATOM     20  C   UNL     1       3.338   3.313  17.392  0.00  0.00    +0.000 C 
BRANCH  20  22
ATOM     21  C   UNL     1       4.532   2.979  19.626  0.00  0.00    +0.000 C 
ATOM     22  C   UNL     1       3.544   2.381  18.607  0.00  0.00    +0.000 C 
ATOM     23  C   UNL     1       4.053   1.003  18.160  0.00  0.00    +0.000 C 
ATOM     24  C   UNL     1       2.182   2.208  19.306  0.00  0.00    +0.000 C 
ENDBRANCH  20  22
ENDBRANCH  16  20
ENDBRANCH   1  18
BRANCH   8  25
ATOM     25  C   UNL     1      -0.238  10.585  22.618  0.00  0.00    +0.000 C 
ATOM     26  O   UNL     1      -0.152  10.274  23.801  0.00  0.00    +0.000 OA
ATOM     27  N   UNL     1      -0.971  11.662  22.136  0.00  0.00    +0.000 N 
ATOM     28  H   UNL     1      -1.045  11.748  21.132  0.00  0.00    +0.000 HD
BRANCH  27  29
ATOM     29  C   UNL     1      -1.788  12.535  22.898  0.00  0.00    +0.000 A 
ATOM     30  C   UNL     1      -3.052  12.188  23.379  0.00  0.00    +0.000 A 
ATOM     31  C   UNL     1      -3.845  13.126  24.047  0.00  0.00    +0.000 A 
ATOM     32  C   UNL     1      -3.379  14.421  24.254  0.00  0.00    +0.000 A 
ATOM     33  C   UNL     1      -2.102  14.765  23.821  0.00  0.00    +0.000 A 
ATOM     34  C   UNL     1      -1.304  13.825  23.157  0.00  0.00    +0.000 A 
ENDBRANCH  27  29
ENDBRANCH   8  25
TORSDOF 6
ENDMDL
MODEL 6
REMARK VINA RESULT:      -8.3      0.830      1.395
REMARK  Name = 
REMARK  9 active torsions:
REMARK  status: ('A' for Active; 'I' for Inactive)
REMARK    1  A    between atoms: C_1  and  C_2
REMARK    2  A    between atoms: C_2  and  C_3
REMARK    3  A    between atoms: C_2  and  C_4
REMARK    4  A    between atoms: C_2  and  C_5
REMARK    5  A    between atoms: C_5  and  C_6
REMARK    6  A    between atoms: N_8  and  C_9
REMARK    7  A    between atoms: C_16  and  C_17
REMARK    8  A    between atoms: N_19  and  C_20
REMARK    9  A    between atoms: N_26  and  C_27
REMARK                            x       y       z     vdW  Elec       q    Type
REMARK                         _______ _______ _______ _____ _____    ______ ____
ROOT
ATOM      1  C   UNL     1       2.889   7.090  18.588  0.00  0.00    +0.000 A 
ATOM      2  C   UNL     1       2.629   8.172  17.758  0.00  0.00    +0.000 A 
ATOM      3  C   UNL     1       1.910   9.278  18.206  0.00  0.00    +0.000 A 
ATOM      4  C   UNL     1       1.383   9.280  19.510  0.00  0.00    +0.000 A 
ATOM      5  C   UNL     1       1.608   8.191  20.352  0.00  0.00    +0.000 A 
ATOM      6  C   UNL     1       2.330   7.067  19.873  0.00  0.00    +0.000 A 
ATOM      7  C   UNL     1       1.045   8.521  21.605  0.00  0.00    +0.000 A 
ATOM      8  C   UNL     1       0.498   9.796  21.536  0.00  0.00    +0.000 A 
ATOM      9  N   UNL     1       0.674  10.262  20.226  0.00  0.00    +0.000 N 
ENDROOT
BRANCH   9  10
ATOM     10  C   UNL     1       0.308  11.547  19.690  0.00  0.00    +0.000 A 
ATOM     11  C   UNL     1       1.114  12.679  19.892  0.00  0.00    +0.000 A 
ATOM     12  C   UNL     1       0.773  13.899  19.304  0.00  0.00    +0.000 A 
ATOM     13  C   UNL     1      -0.352  14.008  18.486  0.00  0.00    +0.000 A 
ATOM     14  C   UNL     1      -1.161  12.897  18.283  0.00  0.00    +0.000 A 
ATOM     15  C   UNL     1      -0.848  11.683  18.902  0.00  0.00    +0.000 A 
ENDBRANCH   9  10
BRANCH   1  18
ATOM     16  C   UNL     1       3.294   4.830  17.645  0.00  0.00    +0.000 C 
ATOM     17  O   UNL     1       2.128   4.538  17.385  0.00  0.00    +0.000 OA
ATOM     18  N   UNL     1       3.737   6.030  18.187  0.00  0.00    +0.000 N 
ATOM     19  H   UNL     1       4.727   6.233  18.124  0.00  0.00    +0.000 HD
BRANCH  16  20
ATOM     20  C   UNL     1       4.394   3.831  17.352  0.00  0.00    +0.000 C 
BRANCH  20  22
ATOM     21  C   UNL     1       5.177   5.761  15.872  0.00  0.00    +0.000 C 
ATOM     22  C   UNL     1       5.536   4.390  16.474  0.00  0.00    +0.000 C 
ATOM     23  C   UNL     1       5.879   3.416  15.337  0.00  0.00    +0.000 C 
ATOM     24  C   UNL     1       6.775   4.570  17.369  0.00  0.00    +0.000 C 
ENDBRANCH  20  22
ENDBRANCH  16  20
ENDBRANCH   1  18
BRANCH   8  25
ATOM     25  C   UNL     1      -0.243  10.466  22.593  0.00  0.00    +0.000 C 
ATOM     26  O   UNL     1      -0.356   9.975  23.712  0.00  0.00    +0.000 OA
ATOM     27  N   UNL     1      -0.812  11.671  22.199  0.00  0.00    +0.000 N 
ATOM     28  H   UNL     1      -0.730  11.913  21.221  0.00  0.00    +0.000 HD
BRANCH  27  29
ATOM     29  C   UNL     1      -1.663  12.496  22.976  0.00  0.00    +0.000 A 
ATOM     30  C   UNL     1      -1.294  13.758  23.449  0.00  0.00    +0.000 A 
ATOM     31  C   UNL     1      -2.145  14.484  24.288  0.00  0.00    +0.000 A 
ATOM     32  C   UNL     1      -3.383  13.963  24.654  0.00  0.00    +0.000 A 
ATOM     33  C   UNL     1      -3.782  12.729  24.151  0.00  0.00    +0.000 A 
ATOM     34  C   UNL     1      -2.932  12.003  23.307  0.00  0.00    +0.000 A 
ENDBRANCH  27  29
ENDBRANCH   8  25
TORSDOF 6
ENDMDL
MODEL 7
REMARK VINA RESULT:      -8.0      2.597     10.835
REMARK  Name = 
REMARK  9 active torsions:
REMARK  status: ('A' for Active; 'I' for Inactive)
REMARK    1  A    between atoms: C_1  and  C_2
REMARK    2  A    between atoms: C_2  and  C_3
REMARK    3  A    between atoms: C_2  and  C_4
REMARK    4  A    between atoms: C_2  and  C_5
REMARK    5  A    between atoms: C_5  and  C_6
REMARK    6  A    between atoms: N_8  and  C_9
REMARK    7  A    between atoms: C_16  and  C_17
REMARK    8  A    between atoms: N_19  and  C_20
REMARK    9  A    between atoms: N_26  and  C_27
REMARK                            x       y       z     vdW  Elec       q    Type
REMARK                         _______ _______ _______ _____ _____    ______ ____
ROOT
ATOM      1  C   UNL     1       1.663   8.515  19.526  0.00  0.00    +0.000 A 
ATOM      2  C   UNL     1       1.432   7.283  20.121  0.00  0.00    +0.000 A 
ATOM      3  C   UNL     1       2.108   6.136  19.711  0.00  0.00    +0.000 A 
ATOM      4  C   UNL     1       3.006   6.210  18.631  0.00  0.00    +0.000 A 
ATOM      5  C   UNL     1       3.234   7.434  18.000  0.00  0.00    +0.000 A 
ATOM      6  C   UNL     1       2.524   8.587  18.422  0.00  0.00    +0.000 A 
ATOM      7  C   UNL     1       4.238   7.211  17.032  0.00  0.00    +0.000 A 
ATOM      8  C   UNL     1       4.630   5.879  17.080  0.00  0.00    +0.000 A 
ATOM      9  N   UNL     1       3.845   5.242  18.049  0.00  0.00    +0.000 N 
ENDROOT
BRANCH   9  10
ATOM     10  C   UNL     1       3.917   3.870  18.482  0.00  0.00    +0.000 A 
ATOM     11  C   UNL     1       4.564   3.515  19.676  0.00  0.00    +0.000 A 
ATOM     12  C   UNL     1       4.561   2.187  20.109  0.00  0.00    +0.000 A 
ATOM     13  C   UNL     1       3.895   1.200  19.381  0.00  0.00    +0.000 A 
ATOM     14  C   UNL     1       3.257   1.538  18.195  0.00  0.00    +0.000 A 
ATOM     15  C   UNL     1       3.290   2.857  17.735  0.00  0.00    +0.000 A 
ENDBRANCH   9  10
BRANCH   1  18
ATOM     16  C   UNL     1       0.109  10.444  19.377  0.00  0.00    +0.000 C 
ATOM     17  O   UNL     1      -0.434  10.149  18.314  0.00  0.00    +0.000 OA
ATOM     18  N   UNL     1       1.088   9.706  20.030  0.00  0.00    +0.000 N 
ATOM     19  H   UNL     1       1.272   9.930  21.000  0.00  0.00    +0.000 HD
BRANCH  16  20
ATOM     20  C   UNL     1      -0.301  11.713  20.094  0.00  0.00    +0.000 C 
BRANCH  20  22
ATOM     21  C   UNL     1       1.809  12.628  18.981  0.00  0.00    +0.000 C 
ATOM     22  C   UNL     1       0.451  12.976  19.620  0.00  0.00    +0.000 C 
ATOM     23  C   UNL     1       0.679  13.949  20.787  0.00  0.00    +0.000 C 
ATOM     24  C   UNL     1      -0.416  13.670  18.553  0.00  0.00    +0.000 C 
ENDBRANCH  20  22
ENDBRANCH  16  20
ENDBRANCH   1  18
BRANCH   8  25
ATOM     25  C   UNL     1       5.585   5.237  16.189  0.00  0.00    +0.000 C 
ATOM     26  O   UNL     1       6.728   4.977  16.550  0.00  0.00    +0.000 OA
ATOM     27  N   UNL     1       5.080   4.985  14.919  0.00  0.00    +0.000 N 
ATOM     28  H   UNL     1       4.156   5.341  14.719  0.00  0.00    +0.000 HD
BRANCH  27  29
ATOM     29  C   UNL     1       5.798   4.458  13.816  0.00  0.00    +0.000 A 
ATOM     30  C   UNL     1       7.037   4.946  13.396  0.00  0.00    +0.000 A 
ATOM     31  C   UNL     1       7.652   4.443  12.245  0.00  0.00    +0.000 A 
ATOM     32  C   UNL     1       7.040   3.434  11.506  0.00  0.00    +0.000 A 
ATOM     33  C   UNL     1       5.829   2.906  11.941  0.00  0.00    +0.000 A 
ATOM     34  C   UNL     1       5.215   3.406  13.097  0.00  0.00    +0.000 A 
ENDBRANCH  27  29
ENDBRANCH   8  25
TORSDOF 6
ENDMDL
MODEL 8
REMARK VINA RESULT:      -8.0      2.088     10.729
REMARK  Name = 
REMARK  9 active torsions:
REMARK  status: ('A' for Active; 'I' for Inactive)
REMARK    1  A    between atoms: C_1  and  C_2
REMARK    2  A    between atoms: C_2  and  C_3
REMARK    3  A    between atoms: C_2  and  C_4
REMARK    4  A    between atoms: C_2  and  C_5
REMARK    5  A    between atoms: C_5  and  C_6
REMARK    6  A    between atoms: N_8  and  C_9
REMARK    7  A    between atoms: C_16  and  C_17
REMARK    8  A    between atoms: N_19  and  C_20
REMARK    9  A    between atoms: N_26  and  C_27
REMARK                            x       y       z     vdW  Elec       q    Type
REMARK                         _______ _______ _______ _____ _____    ______ ____
ROOT
ATOM      1  C   UNL     1       1.204   8.128  20.039  0.00  0.00    +0.000 A 
ATOM      2  C   UNL     1       1.072   6.825  20.497  0.00  0.00    +0.000 A 
ATOM      3  C   UNL     1       1.866   5.793  20.001  0.00  0.00    +0.000 A 
ATOM      4  C   UNL     1       2.788   6.062  18.973  0.00  0.00    +0.000 A 
ATOM      5  C   UNL     1       2.918   7.360  18.478  0.00  0.00    +0.000 A 
ATOM      6  C   UNL     1       2.088   8.394  18.984  0.00  0.00    +0.000 A 
ATOM      7  C   UNL     1       3.969   7.333  17.535  0.00  0.00    +0.000 A 
ATOM      8  C   UNL     1       4.485   6.045  17.464  0.00  0.00    +0.000 A 
ATOM      9  N   UNL     1       3.733   5.240  18.331  0.00  0.00    +0.000 N 
ENDROOT
BRANCH   9  10
ATOM     10  C   UNL     1       3.921   3.843  18.625  0.00  0.00    +0.000 A 
ATOM     11  C   UNL     1       4.626   3.427  19.765  0.00  0.00    +0.000 A 
ATOM     12  C   UNL     1       4.737   2.067  20.066  0.00  0.00    +0.000 A 
ATOM     13  C   UNL     1       4.128   1.105  19.259  0.00  0.00    +0.000 A 
ATOM     14  C   UNL     1       3.434   1.505  18.124  0.00  0.00    +0.000 A 
ATOM     15  C   UNL     1       3.354   2.861  17.795  0.00  0.00    +0.000 A 
ENDBRANCH   9  10
BRANCH   1  18
ATOM     16  C   UNL     1       0.791   9.733  21.886  0.00  0.00    +0.000 C 
ATOM     17  O   UNL     1       1.717   9.394  22.622  0.00  0.00    +0.000 OA
ATOM     18  N   UNL     1       0.502   9.202  20.636  0.00  0.00    +0.000 N 
ATOM     19  H   UNL     1      -0.127   9.728  20.041  0.00  0.00    +0.000 HD
BRANCH  16  20
ATOM     20  C   UNL     1      -0.143  10.839  22.329  0.00  0.00    +0.000 C 
BRANCH  20  22
ATOM     21  C   UNL     1      -0.413  13.375  22.180  0.00  0.00    +0.000 C 
ATOM     22  C   UNL     1      -0.141  12.075  21.402  0.00  0.00    +0.000 C 
ATOM     23  C   UNL     1      -1.190  11.925  20.289  0.00  0.00    +0.000 C 
ATOM     24  C   UNL     1       1.255  12.183  20.762  0.00  0.00    +0.000 C 
ENDBRANCH  20  22
ENDBRANCH  16  20
ENDBRANCH   1  18
BRANCH   8  25
ATOM     25  C   UNL     1       5.524   5.589  16.554  0.00  0.00    +0.000 C 
ATOM     26  O   UNL     1       6.713   5.670  16.842  0.00  0.00    +0.000 OA
ATOM     27  N   UNL     1       5.034   5.093  15.351  0.00  0.00    +0.000 N 
ATOM     28  H   UNL     1       4.039   5.176  15.199  0.00  0.00    +0.000 HD
BRANCH  27  29
ATOM     29  C   UNL     1       5.802   4.666  14.240  0.00  0.00    +0.000 A 
ATOM     30  C   UNL     1       7.066   5.176  13.932  0.00  0.00    +0.000 A 
ATOM     31  C   UNL     1       7.734   4.779  12.770  0.00  0.00    +0.000 A 
ATOM     32  C   UNL     1       7.152   3.856  11.906  0.00  0.00    +0.000 A 
ATOM     33  C   UNL     1       5.916   3.304  12.225  0.00  0.00    +0.000 A 
ATOM     34  C   UNL     1       5.248   3.698  13.392  0.00  0.00    +0.000 A 
ENDBRANCH  27  29
ENDBRANCH   8  25
TORSDOF 6
ENDMDL
MODEL 9
REMARK VINA RESULT:      -7.9      2.683      5.080
REMARK  Name = 
REMARK  9 active torsions:
REMARK  status: ('A' for Active; 'I' for Inactive)
REMARK    1  A    between atoms: C_1  and  C_2
REMARK    2  A    between atoms: C_2  and  C_3
REMARK    3  A    between atoms: C_2  and  C_4
REMARK    4  A    between atoms: C_2  and  C_5
REMARK    5  A    between atoms: C_5  and  C_6
REMARK    6  A    between atoms: N_8  and  C_9
REMARK    7  A    between atoms: C_16  and  C_17
REMARK    8  A    between atoms: N_19  and  C_20
REMARK    9  A    between atoms: N_26  and  C_27
REMARK                            x       y       z     vdW  Elec       q    Type
REMARK                         _______ _______ _______ _____ _____    ______ ____
ROOT
ATOM      1  C   UNL     1       1.545   7.616  20.730  0.00  0.00    +0.000 A 
ATOM      2  C   UNL     1       0.562   7.892  21.670  0.00  0.00    +0.000 A 
ATOM      3  C   UNL     1      -0.162   9.082  21.640  0.00  0.00    +0.000 A 
ATOM      4  C   UNL     1       0.143  10.055  20.671  0.00  0.00    +0.000 A 
ATOM      5  C   UNL     1       1.147   9.809  19.732  0.00  0.00    +0.000 A 
ATOM      6  C   UNL     1       1.883   8.598  19.789  0.00  0.00    +0.000 A 
ATOM      7  C   UNL     1       1.157  10.912  18.850  0.00  0.00    +0.000 A 
ATOM      8  C   UNL     1       0.167  11.809  19.230  0.00  0.00    +0.000 A 
ATOM      9  N   UNL     1      -0.446  11.300  20.383  0.00  0.00    +0.000 N 
ENDROOT
BRANCH   9  10
ATOM     10  C   UNL     1      -1.552  11.859  21.116  0.00  0.00    +0.000 A 
ATOM     11  C   UNL     1      -2.710  12.305  20.460  0.00  0.00    +0.000 A 
ATOM     12  C   UNL     1      -3.797  12.780  21.198  0.00  0.00    +0.000 A 
ATOM     13  C   UNL     1      -3.762  12.794  22.593  0.00  0.00    +0.000 A 
ATOM     14  C   UNL     1      -2.618  12.362  23.253  0.00  0.00    +0.000 A 
ATOM     15  C   UNL     1      -1.512  11.924  22.519  0.00  0.00    +0.000 A 
ENDBRANCH   9  10
BRANCH   1  18
ATOM     16  C   UNL     1       2.433   5.655  19.495  0.00  0.00    +0.000 C 
ATOM     17  O   UNL     1       2.193   6.044  18.354  0.00  0.00    +0.000 OA
ATOM     18  N   UNL     1       2.183   6.354  20.669  0.00  0.00    +0.000 N 
ATOM     19  H   UNL     1       2.643   6.031  21.511  0.00  0.00    +0.000 HD
BRANCH  16  20
ATOM     20  C   UNL     1       3.074   4.299  19.698  0.00  0.00    +0.000 C 
BRANCH  20  22
ATOM     21  C   UNL     1       0.626   3.678  20.087  0.00  0.00    +0.000 C 
ATOM     22  C   UNL     1       2.087   3.193  20.134  0.00  0.00    +0.000 C 
ATOM     23  C   UNL     1       2.408   2.699  21.552  0.00  0.00    +0.000 C 
ATOM     24  C   UNL     1       2.232   2.017  19.151  0.00  0.00    +0.000 C 
ENDBRANCH  20  22
ENDBRANCH  16  20
ENDBRANCH   1  18
BRANCH   8  25
ATOM     25  C   UNL     1      -0.090  13.106  18.623  0.00  0.00    +0.000 C 
ATOM     26  O   UNL     1      -0.782  13.219  17.616  0.00  0.00    +0.000 OA
ATOM     27  N   UNL     1       0.536  14.161  19.274  0.00  0.00    +0.000 N 
ATOM     28  H   UNL     1       1.160  13.921  20.031  0.00  0.00    +0.000 HD
BRANCH  27  29
ATOM     29  C   UNL     1       0.547  15.518  18.863  0.00  0.00    +0.000 A 
ATOM     30  C   UNL     1      -0.588  16.332  18.854  0.00  0.00    +0.000 A 
ATOM     31  C   UNL     1      -0.530  17.636  18.352  0.00  0.00    +0.000 A 
ATOM     32  C   UNL     1       0.669  18.147  17.863  0.00  0.00    +0.000 A 
ATOM     33  C   UNL     1       1.817  17.363  17.911  0.00  0.00    +0.000 A 
ATOM     34  C   UNL     1       1.761  16.059  18.419  0.00  0.00    +0.000 A 
ENDBRANCH  27  29
ENDBRANCH   8  25
TORSDOF 6
ENDMDL
