MODEL 1
REMARK VINA RESULT:      -6.7      0.000      0.000
REMARK  Name = 
REMARK  11 active torsions:
REMARK  status: ('A' for Active; 'I' for Inactive)
REMARK    1  A    between atoms: C_1  and  C_2
REMARK    2  A    between atoms: C_2  and  N_3
REMARK    3  A    between atoms: N_3  and  C_4
REMARK    4  A    between atoms: C_4  and  C_5
REMARK    5  A    between atoms: C_5  and  O_6
REMARK    6  A    between atoms: C_5  and  C_7
REMARK    7  A    between atoms: C_7  and  O_8
REMARK    8  A    between atoms: O_8  and  C_9
REMARK    9  A    between atoms: C_10  and  O_11
REMARK   10  A    between atoms: O_11  and  C_12
REMARK   11  A    between atoms: C_19  and  C_20
REMARK                            x       y       z     vdW  Elec       q    Type
REMARK                         _______ _______ _______ _____ _____    ______ ____
ROOT
ATOM      1  C   UNL     1       5.117   5.303  16.892  0.00  0.00    +0.000 A 
ATOM      2  C   UNL     1       6.231   5.695  17.683  0.00  0.00    +0.000 A 
ATOM      3  C   UNL     1       6.281   5.360  19.041  0.00  0.00    +0.000 A 
ATOM      4  C   UNL     1       5.233   4.662  19.631  0.00  0.00    +0.000 A 
ATOM      5  C   UNL     1       4.141   4.270  18.858  0.00  0.00    +0.000 A 
ATOM      6  C   UNL     1       4.086   4.531  17.472  0.00  0.00    +0.000 A 
ATOM      7  C   UNL     1       2.932   3.963  16.689  0.00  0.00    +0.000 C 
ATOM      8  O   UNL     1       2.171   2.983  17.389  0.00  0.00    +0.000 OA
ATOM      9  C   UNL     1       1.747   3.474  18.655  0.00  0.00    +0.000 C 
ATOM     10  C   UNL     1       0.715   2.512  19.206  0.00  0.00    +0.000 C 
ATOM     11  C   UNL     1       2.982   3.615  19.528  0.00  0.00    +0.000 C 
ATOM     12  O   UNL     1       3.028   3.311  20.712  0.00  0.00    +0.000 OA
ENDROOT
BRANCH   2  13
ATOM     13  O   UNL     1       7.221   6.403  17.042  0.00  0.00    +0.000 OA
ATOM     14  C   UNL     1       7.503   7.715  17.518  0.00  0.00    +0.000 C 
ENDBRANCH   2  13
BRANCH   1  15
ATOM     15  O   UNL     1       5.193   5.699  15.576  0.00  0.00    +0.000 OA
BRANCH  15  16
ATOM     16  C   UNL     1       5.295   4.760  14.508  0.00  0.00    +0.000 C 
BRANCH  16  17
ATOM     17  C   UNL     1       6.720   4.393  14.046  0.00  0.00    +0.000 C 
BRANCH  17  18
ATOM     18  O   UNL     1       7.677   5.447  14.221  0.00  0.00    +0.000 OA
ATOM     19  H   UNL     1       8.364   5.150  14.835  0.00  0.00    +0.000 HD
ENDBRANCH  17  18
BRANCH  17  20
ATOM     20  C   UNL     1       6.695   3.994  12.548  0.00  0.00    +0.000 C 
BRANCH  20  21
ATOM     21  N   UNL     1       6.399   2.570  12.404  0.00  0.00    +0.000 NA
ATOM     22  H   UNL     1       7.267   2.058  12.234  0.00  0.00    +0.000 HD
BRANCH  21  24
ATOM     23  C   UNL     1       4.281   3.305  11.473  0.00  0.00    +0.000 C 
ATOM     24  C   UNL     1       5.421   2.306  11.355  0.00  0.00    +0.000 C 
ENDBRANCH  21  24
ENDBRANCH  20  21
ENDBRANCH  17  20
ENDBRANCH  16  17
ENDBRANCH  15  16
ENDBRANCH   1  15
TORSDOF 8
ENDMDL
MODEL 2
REMARK VINA RESULT:      -6.6      1.266      1.401
REMARK  Name = 
REMARK  11 active torsions:
REMARK  status: ('A' for Active; 'I' for Inactive)
REMARK    1  A    between atoms: C_1  and  C_2
REMARK    2  A    between atoms: C_2  and  N_3
REMARK    3  A    between atoms: N_3  and  C_4
REMARK    4  A    between atoms: C_4  and  C_5
REMARK    5  A    between atoms: C_5  and  O_6
REMARK    6  A    between atoms: C_5  and  C_7
REMARK    7  A    between atoms: C_7  and  O_8
REMARK    8  A    between atoms: O_8  and  C_9
REMARK    9  A    between atoms: C_10  and  O_11
REMARK   10  A    between atoms: O_11  and  C_12
REMARK   11  A    between atoms: C_19  and  C_20
REMARK                            x       y       z     vdW  Elec       q    Type
REMARK                         _______ _______ _______ _____ _____    ______ ____
ROOT
ATOM      1  C   UNL     1       4.999   5.058  16.908  0.00  0.00    +0.000 A 
ATOM      2  C   UNL     1       5.099   6.459  17.123  0.00  0.00    +0.000 A 
ATOM      3  C   UNL     1       4.166   7.115  17.935  0.00  0.00    +0.000 A 
ATOM      4  C   UNL     1       3.121   6.404  18.516  0.00  0.00    +0.000 A 
ATOM      5  C   UNL     1       3.022   5.028  18.313  0.00  0.00    +0.000 A 
ATOM      6  C   UNL     1       3.982   4.324  17.557  0.00  0.00    +0.000 A 
ATOM      7  C   UNL     1       3.870   2.823  17.492  0.00  0.00    +0.000 C 
ATOM      8  O   UNL     1       2.967   2.259  18.438  0.00  0.00    +0.000 OA
ATOM      9  C   UNL     1       1.689   2.877  18.358  0.00  0.00    +0.000 C 
ATOM     10  C   UNL     1       0.716   2.044  19.167  0.00  0.00    +0.000 C 
ATOM     11  C   UNL     1       1.840   4.304  18.859  0.00  0.00    +0.000 C 
ATOM     12  O   UNL     1       1.029   4.872  19.577  0.00  0.00    +0.000 OA
ENDROOT
BRANCH   2  13
ATOM     13  O   UNL     1       6.143   7.104  16.499  0.00  0.00    +0.000 OA
ATOM     14  C   UNL     1       7.286   7.418  17.287  0.00  0.00    +0.000 C 
ENDBRANCH   2  13
BRANCH   1  15
ATOM     15  O   UNL     1       5.977   4.542  16.089  0.00  0.00    +0.000 OA
BRANCH  15  16
ATOM     16  C   UNL     1       5.745   4.278  14.707  0.00  0.00    +0.000 C 
BRANCH  16  17
ATOM     17  C   UNL     1       6.983   4.276  13.788  0.00  0.00    +0.000 C 
BRANCH  17  18
ATOM     18  O   UNL     1       7.743   5.492  13.832  0.00  0.00    +0.000 OA
ATOM     19  H   UNL     1       7.738   5.834  14.738  0.00  0.00    +0.000 HD
ENDBRANCH  17  18
BRANCH  17  20
ATOM     20  C   UNL     1       6.544   4.023  12.323  0.00  0.00    +0.000 C 
BRANCH  20  21
ATOM     21  N   UNL     1       6.626   2.598  12.004  0.00  0.00    +0.000 NA
ATOM     22  H   UNL     1       7.410   2.437  11.368  0.00  0.00    +0.000 HD
BRANCH  21  24
ATOM     23  C   UNL     1       4.374   3.210  11.337  0.00  0.00    +0.000 C 
ATOM     24  C   UNL     1       5.383   2.078  11.445  0.00  0.00    +0.000 C 
ENDBRANCH  21  24
ENDBRANCH  20  21
ENDBRANCH  17  20
ENDBRANCH  16  17
ENDBRANCH  15  16
ENDBRANCH   1  15
TORSDOF 8
ENDMDL
MODEL 3
REMARK VINA RESULT:      -6.6      3.418      5.068
REMARK  Name = 
REMARK  11 active torsions:
REMARK  status: ('A' for Active; 'I' for Inactive)
REMARK    1  A    between atoms: C_1  and  C_2
REMARK    2  A    between atoms: C_2  and  N_3
REMARK    3  A    between atoms: N_3  and  C_4
REMARK    4  A    between atoms: C_4  and  C_5
REMARK    5  A    between atoms: C_5  and  O_6
REMARK    6  A    between atoms: C_5  and  C_7
REMARK    7  A    between atoms: C_7  and  O_8
REMARK    8  A    between atoms: O_8  and  C_9
REMARK    9  A    between atoms: C_10  and  O_11
REMARK   10  A    between atoms: O_11  and  C_12
REMARK   11  A    between atoms: C_19  and  C_20
REMARK                            x       y       z     vdW  Elec       q    Type
REMARK                         _______ _______ _______ _____ _____    ______ ____
ROOT
ATOM      1  C   UNL     1       3.267   5.324  18.003  0.00  0.00    +0.000 A 
ATOM      2  C   UNL     1       3.323   4.206  18.880  0.00  0.00    +0.000 A 
ATOM      3  C   UNL     1       2.759   4.286  20.158  0.00  0.00    +0.000 A 
ATOM      4  C   UNL     1       2.161   5.466  20.588  0.00  0.00    +0.000 A 
ATOM      5  C   UNL     1       2.099   6.563  19.730  0.00  0.00    +0.000 A 
ATOM      6  C   UNL     1       2.597   6.497  18.411  0.00  0.00    +0.000 A 
ATOM      7  C   UNL     1       2.376   7.684  17.510  0.00  0.00    +0.000 C 
ATOM      8  O   UNL     1       1.437   8.633  18.007  0.00  0.00    +0.000 OA
ATOM      9  C   UNL     1       1.772   9.040  19.328  0.00  0.00    +0.000 C 
ATOM     10  C   UNL     1       0.921  10.245  19.673  0.00  0.00    +0.000 C 
ATOM     11  C   UNL     1       1.548   7.849  20.244  0.00  0.00    +0.000 C 
ATOM     12  O   UNL     1       1.045   7.919  21.357  0.00  0.00    +0.000 OA
ENDROOT
BRANCH   2  13
ATOM     13  O   UNL     1       3.949   3.078  18.399  0.00  0.00    +0.000 OA
ATOM     14  C   UNL     1       3.448   1.816  18.829  0.00  0.00    +0.000 C 
ENDBRANCH   2  13
BRANCH   1  15
ATOM     15  O   UNL     1       3.861   5.111  16.780  0.00  0.00    +0.000 OA
BRANCH  15  16
ATOM     16  C   UNL     1       5.180   5.568  16.490  0.00  0.00    +0.000 C 
BRANCH  16  17
ATOM     17  C   UNL     1       6.226   4.486  16.153  0.00  0.00    +0.000 C 
BRANCH  17  18
ATOM     18  O   UNL     1       5.702   3.151  16.149  0.00  0.00    +0.000 OA
ATOM     19  H   UNL     1       5.860   2.748  17.015  0.00  0.00    +0.000 HD
ENDBRANCH  17  18
BRANCH  17  20
ATOM     20  C   UNL     1       7.393   4.554  17.172  0.00  0.00    +0.000 C 
BRANCH  20  21
ATOM     21  N   UNL     1       6.910   4.264  18.522  0.00  0.00    +0.000 NA
ATOM     22  H   UNL     1       5.992   3.818  18.465  0.00  0.00    +0.000 HD
BRANCH  21  24
ATOM     23  C   UNL     1       7.965   6.410  18.938  0.00  0.00    +0.000 C 
ATOM     24  C   UNL     1       6.865   5.452  19.366  0.00  0.00    +0.000 C 
ENDBRANCH  21  24
ENDBRANCH  20  21
ENDBRANCH  17  20
ENDBRANCH  16  17
ENDBRANCH  15  16
ENDBRANCH   1  15
TORSDOF 8
ENDMDL
MODEL 4
REMARK VINA RESULT:      -6.5      2.913      6.076
REMARK  Name = 
REMARK  11 active torsions:
REMARK  status: ('A' for Active; 'I' for Inactive)
REMARK    1  A    between atoms: C_1  and  C_2
REMARK    2  A    between atoms: C_2  and  N_3
REMARK    3  A    between atoms: N_3  and  C_4
REMARK    4  A    between atoms: C_4  and  C_5
REMARK    5  A    between atoms: C_5  and  O_6
REMARK    6  A    between atoms: C_5  and  C_7
REMARK    7  A    between atoms: C_7  and  O_8
REMARK    8  A    between atoms: O_8  and  C_9
REMARK    9  A    between atoms: C_10  and  O_11
REMARK   10  A    between atoms: O_11  and  C_12
REMARK   11  A    between atoms: C_19  and  C_20
REMARK                            x       y       z     vdW  Elec       q    Type
REMARK                         _______ _______ _______ _____ _____    ______ ____
ROOT
ATOM      1  C   UNL     1       3.250   5.832  19.720  0.00  0.00    +0.000 A 
ATOM      2  C   UNL     1       2.373   6.947  19.630  0.00  0.00    +0.000 A 
ATOM      3  C   UNL     1       2.404   7.776  18.502  0.00  0.00    +0.000 A 
ATOM      4  C   UNL     1       3.307   7.528  17.474  0.00  0.00    +0.000 A 
ATOM      5  C   UNL     1       4.165   6.432  17.556  0.00  0.00    +0.000 A 
ATOM      6  C   UNL     1       4.116   5.537  18.645  0.00  0.00    +0.000 A 
ATOM      7  C   UNL     1       4.988   4.310  18.594  0.00  0.00    +0.000 C 
ATOM      8  O   UNL     1       5.558   4.046  17.315  0.00  0.00    +0.000 OA
ATOM      9  C   UNL     1       6.241   5.189  16.814  0.00  0.00    +0.000 C 
ATOM     10  C   UNL     1       7.057   4.755  15.614  0.00  0.00    +0.000 C 
ATOM     11  C   UNL     1       5.194   6.243  16.495  0.00  0.00    +0.000 C 
ATOM     12  O   UNL     1       5.216   6.959  15.503  0.00  0.00    +0.000 OA
ENDROOT
BRANCH   2  13
ATOM     13  O   UNL     1       1.521   7.148  20.692  0.00  0.00    +0.000 OA
ATOM     14  C   UNL     1       1.237   8.494  21.059  0.00  0.00    +0.000 C 
ENDBRANCH   2  13
BRANCH   1  15
ATOM     15  O   UNL     1       3.118   5.105  20.881  0.00  0.00    +0.000 OA
BRANCH  15  16
ATOM     16  C   UNL     1       1.982   4.279  21.131  0.00  0.00    +0.000 C 
BRANCH  16  17
ATOM     17  C   UNL     1       2.200   2.756  21.023  0.00  0.00    +0.000 C 
BRANCH  17  18
ATOM     18  O   UNL     1       3.579   2.368  20.974  0.00  0.00    +0.000 OA
ATOM     19  H   UNL     1       3.959   2.437  21.862  0.00  0.00    +0.000 HD
ENDBRANCH  17  18
BRANCH  17  20
ATOM     20  C   UNL     1       1.490   2.218  19.754  0.00  0.00    +0.000 C 
BRANCH  20  21
ATOM     21  N   UNL     1       2.472   1.706  18.799  0.00  0.00    +0.000 NA
ATOM     22  H   UNL     1       3.411   1.819  19.184  0.00  0.00    +0.000 HD
BRANCH  21  24
ATOM     23  C   UNL     1       1.466   3.565  17.605  0.00  0.00    +0.000 C 
ATOM     24  C   UNL     1       2.361   2.341  17.491  0.00  0.00    +0.000 C 
ENDBRANCH  21  24
ENDBRANCH  20  21
ENDBRANCH  17  20
ENDBRANCH  16  17
ENDBRANCH  15  16
ENDBRANCH   1  15
TORSDOF 8
ENDMDL
MODEL 5
REMARK VINA RESULT:      -6.5      4.119      6.376
REMARK  Name = 
REMARK  11 active torsions:
REMARK  status: ('A' for Active; 'I' for Inactive)
REMARK    1  A    between atoms: C_1  and  C_2
REMARK    2  A    between atoms: C_2  and  N_3
REMARK    3  A    between atoms: N_3  and  C_4
REMARK    4  A    between atoms: C_4  and  C_5
REMARK    5  A    between atoms: C_5  and  O_6
REMARK    6  A    between atoms: C_5  and  C_7
REMARK    7  A    between atoms: C_7  and  O_8
REMARK    8  A    between atoms: O_8  and  C_9
REMARK    9  A    between atoms: C_10  and  O_11
REMARK   10  A    between atoms: O_11  and  C_12
REMARK   11  A    between atoms: C_19  and  C_20
REMARK                            x       y       z     vdW  Elec       q    Type
REMARK                         _______ _______ _______ _____ _____    ______ ____
ROOT
ATOM      1  C   UNL     1       2.971   6.102  19.627  0.00  0.00    +0.000 A 
ATOM      2  C   UNL     1       3.905   5.769  18.608  0.00  0.00    +0.000 A 
ATOM      3  C   UNL     1       4.129   6.650  17.544  0.00  0.00    +0.000 A 
ATOM      4  C   UNL     1       3.423   7.846  17.464  0.00  0.00    +0.000 A 
ATOM      5  C   UNL     1       2.511   8.180  18.464  0.00  0.00    +0.000 A 
ATOM      6  C   UNL     1       2.308   7.348  19.585  0.00  0.00    +0.000 A 
ATOM      7  C   UNL     1       1.400   7.842  20.680  0.00  0.00    +0.000 C 
ATOM      8  O   UNL     1       1.067   9.224  20.589  0.00  0.00    +0.000 OA
ATOM      9  C   UNL     1       0.550   9.542  19.303  0.00  0.00    +0.000 C 
ATOM     10  C   UNL     1      -0.048  10.933  19.371  0.00  0.00    +0.000 C 
ATOM     11  C   UNL     1       1.690   9.414  18.307  0.00  0.00    +0.000 C 
ATOM     12  O   UNL     1       1.891  10.191  17.384  0.00  0.00    +0.000 OA
ENDROOT
BRANCH   2  13
ATOM     13  O   UNL     1       4.551   4.560  18.737  0.00  0.00    +0.000 OA
ATOM     14  C   UNL     1       5.852   4.448  18.170  0.00  0.00    +0.000 C 
ENDBRANCH   2  13
BRANCH   1  15
ATOM     15  O   UNL     1       2.846   5.147  20.610  0.00  0.00    +0.000 OA
BRANCH  15  16
ATOM     16  C   UNL     1       1.587   4.567  20.945  0.00  0.00    +0.000 C 
BRANCH  16  17
ATOM     17  C   UNL     1       1.580   3.051  21.226  0.00  0.00    +0.000 C 
BRANCH  17  18
ATOM     18  O   UNL     1       2.571   2.629  22.173  0.00  0.00    +0.000 OA
ATOM     19  H   UNL     1       3.376   3.150  22.039  0.00  0.00    +0.000 HD
ENDBRANCH  17  18
BRANCH  17  20
ATOM     20  C   UNL     1       1.802   2.275  19.902  0.00  0.00    +0.000 C 
BRANCH  20  21
ATOM     21  N   UNL     1       3.231   2.116  19.637  0.00  0.00    +0.000 NA
ATOM     22  H   UNL     1       3.700   3.015  19.757  0.00  0.00    +0.000 HD
BRANCH  21  24
ATOM     23  C   UNL     1       2.606   2.250  17.295  0.00  0.00    +0.000 C 
ATOM     24  C   UNL     1       3.494   1.557  18.315  0.00  0.00    +0.000 C 
ENDBRANCH  21  24
ENDBRANCH  20  21
ENDBRANCH  17  20
ENDBRANCH  16  17
ENDBRANCH  15  16
ENDBRANCH   1  15
TORSDOF 8
ENDMDL
MODEL 6
REMARK VINA RESULT:      -6.4      3.642      4.673
REMARK  Name = 
REMARK  11 active torsions:
REMARK  status: ('A' for Active; 'I' for Inactive)
REMARK    1  A    between atoms: C_1  and  C_2
REMARK    2  A    between atoms: C_2  and  N_3
REMARK    3  A    between atoms: N_3  and  C_4
REMARK    4  A    between atoms: C_4  and  C_5
REMARK    5  A    between atoms: C_5  and  O_6
REMARK    6  A    between atoms: C_5  and  C_7
REMARK    7  A    between atoms: C_7  and  O_8
REMARK    8  A    between atoms: O_8  and  C_9
REMARK    9  A    between atoms: C_10  and  O_11
REMARK   10  A    between atoms: O_11  and  C_12
REMARK   11  A    between atoms: C_19  and  C_20
REMARK                            x       y       z     vdW  Elec       q    Type
REMARK                         _______ _______ _______ _____ _____    ______ ____
ROOT
ATOM      1  C   UNL     1       3.449   6.218  18.339  0.00  0.00    +0.000 A 
ATOM      2  C   UNL     1       3.486   5.052  19.152  0.00  0.00    +0.000 A 
ATOM      3  C   UNL     1       2.714   4.983  20.318  0.00  0.00    +0.000 A 
ATOM      4  C   UNL     1       1.924   6.062  20.701  0.00  0.00    +0.000 A 
ATOM      5  C   UNL     1       1.880   7.205  19.904  0.00  0.00    +0.000 A 
ATOM      6  C   UNL     1       2.592   7.285  18.688  0.00  0.00    +0.000 A 
ATOM      7  C   UNL     1       2.390   8.504  17.827  0.00  0.00    +0.000 C 
ATOM      8  O   UNL     1       1.281   9.314  18.205  0.00  0.00    +0.000 OA
ATOM      9  C   UNL     1       1.346   9.658  19.583  0.00  0.00    +0.000 C 
ATOM     10  C   UNL     1       0.319  10.742  19.842  0.00  0.00    +0.000 C 
ATOM     11  C   UNL     1       1.111   8.388  20.383  0.00  0.00    +0.000 C 
ATOM     12  O   UNL     1       0.427   8.326  21.396  0.00  0.00    +0.000 OA
ENDROOT
BRANCH   2  13
ATOM     13  O   UNL     1       4.306   4.032  18.727  0.00  0.00    +0.000 OA
ATOM     14  C   UNL     1       4.297   2.825  19.483  0.00  0.00    +0.000 C 
ENDBRANCH   2  13
BRANCH   1  15
ATOM     15  O   UNL     1       4.257   6.155  17.227  0.00  0.00    +0.000 OA
BRANCH  15  16
ATOM     16  C   UNL     1       5.458   6.916  17.120  0.00  0.00    +0.000 C 
BRANCH  16  17
ATOM     17  C   UNL     1       6.734   6.276  17.703  0.00  0.00    +0.000 C 
BRANCH  17  18
ATOM     18  O   UNL     1       7.779   7.216  17.987  0.00  0.00    +0.000 OA
ATOM     19  H   UNL     1       7.447   8.113  17.832  0.00  0.00    +0.000 HD
ENDBRANCH  17  18
BRANCH  17  20
ATOM     20  C   UNL     1       7.282   5.214  16.716  0.00  0.00    +0.000 C 
BRANCH  20  21
ATOM     21  N   UNL     1       6.477   3.994  16.779  0.00  0.00    +0.000 NA
ATOM     22  H   UNL     1       7.054   3.225  17.124  0.00  0.00    +0.000 HD
BRANCH  21  24
ATOM     23  C   UNL     1       6.569   4.439  14.394  0.00  0.00    +0.000 C 
ATOM     24  C   UNL     1       5.869   3.661  15.496  0.00  0.00    +0.000 C 
ENDBRANCH  21  24
ENDBRANCH  20  21
ENDBRANCH  17  20
ENDBRANCH  16  17
ENDBRANCH  15  16
ENDBRANCH   1  15
TORSDOF 8
ENDMDL
MODEL 7
REMARK VINA RESULT:      -6.4      5.294      7.086
REMARK  Name = 
REMARK  11 active torsions:
REMARK  status: ('A' for Active; 'I' for Inactive)
REMARK    1  A    between atoms: C_1  and  C_2
REMARK    2  A    between atoms: C_2  and  N_3
REMARK    3  A    between atoms: N_3  and  C_4
REMARK    4  A    between atoms: C_4  and  C_5
REMARK    5  A    between atoms: C_5  and  O_6
REMARK    6  A    between atoms: C_5  and  C_7
REMARK    7  A    between atoms: C_7  and  O_8
REMARK    8  A    between atoms: O_8  and  C_9
REMARK    9  A    between atoms: C_10  and  O_11
REMARK   10  A    between atoms: O_11  and  C_12
REMARK   11  A    between atoms: C_19  and  C_20
REMARK                            x       y       z     vdW  Elec       q    Type
REMARK                         _______ _______ _______ _____ _____    ______ ____
ROOT
ATOM      1  C   UNL     1       2.048   7.439  19.771  0.00  0.00    +0.000 A 
ATOM      2  C   UNL     1       2.419   7.557  18.403  0.00  0.00    +0.000 A 
ATOM      3  C   UNL     1       2.141   8.734  17.698  0.00  0.00    +0.000 A 
ATOM      4  C   UNL     1       1.480   9.786  18.323  0.00  0.00    +0.000 A 
ATOM      5  C   UNL     1       1.120   9.678  19.665  0.00  0.00    +0.000 A 
ATOM      6  C   UNL     1       1.443   8.534  20.426  0.00  0.00    +0.000 A 
ATOM      7  C   UNL     1       1.130   8.551  21.899  0.00  0.00    +0.000 C 
ATOM      8  O   UNL     1       0.798   9.836  22.416  0.00  0.00    +0.000 OA
ATOM      9  C   UNL     1      -0.244  10.438  21.657  0.00  0.00    +0.000 C 
ATOM     10  C   UNL     1      -0.740  11.646  22.425  0.00  0.00    +0.000 C 
ATOM     11  C   UNL     1       0.322  10.772  20.287  0.00  0.00    +0.000 C 
ATOM     12  O   UNL     1       0.087  11.806  19.677  0.00  0.00    +0.000 OA
ENDROOT
BRANCH   2  13
ATOM     13  O   UNL     1       3.049   6.470  17.841  0.00  0.00    +0.000 OA
ATOM     14  C   UNL     1       4.363   6.665  17.331  0.00  0.00    +0.000 C 
ENDBRANCH   2  13
BRANCH   1  15
ATOM     15  O   UNL     1       2.377   6.231  20.342  0.00  0.00    +0.000 OA
BRANCH  15  16
ATOM     16  C   UNL     1       1.387   5.273  20.707  0.00  0.00    +0.000 C 
BRANCH  16  17
ATOM     17  C   UNL     1       1.858   3.810  20.835  0.00  0.00    +0.000 C 
BRANCH  17  18
ATOM     18  O   UNL     1       2.250   3.438  22.164  0.00  0.00    +0.000 OA
ATOM     19  H   UNL     1       2.034   2.505  22.307  0.00  0.00    +0.000 HD
ENDBRANCH  17  18
BRANCH  17  20
ATOM     20  C   UNL     1       3.055   3.563  19.881  0.00  0.00    +0.000 C 
BRANCH  20  21
ATOM     21  N   UNL     1       2.645   3.746  18.489  0.00  0.00    +0.000 NA
ATOM     22  H   UNL     1       1.625   3.791  18.439  0.00  0.00    +0.000 HD
BRANCH  21  24
ATOM     23  C   UNL     1       3.547   1.492  18.447  0.00  0.00    +0.000 C 
ATOM     24  C   UNL     1       3.168   2.705  17.612  0.00  0.00    +0.000 C 
ENDBRANCH  21  24
ENDBRANCH  20  21
ENDBRANCH  17  20
ENDBRANCH  16  17
ENDBRANCH  15  16
ENDBRANCH   1  15
TORSDOF 8
ENDMDL
MODEL 8
REMARK VINA RESULT:      -6.3      3.086      4.303
REMARK  Name = 
REMARK  11 active torsions:
REMARK  status: ('A' for Active; 'I' for Inactive)
REMARK    1  A    between atoms: C_1  and  C_2
REMARK    2  A    between atoms: C_2  and  N_3
REMARK    3  A    between atoms: N_3  and  C_4
REMARK    4  A    between atoms: C_4  and  C_5
REMARK    5  A    between atoms: C_5  and  O_6
REMARK    6  A    between atoms: C_5  and  C_7
REMARK    7  A    between atoms: C_7  and  O_8
REMARK    8  A    between atoms: O_8  and  C_9
REMARK    9  A    between atoms: C_10  and  O_11
REMARK   10  A    between atoms: O_11  and  C_12
REMARK   11  A    between atoms: C_19  and  C_20
REMARK                            x       y       z     vdW  Elec       q    Type
REMARK                         _______ _______ _______ _____ _____    ______ ____
ROOT
ATOM      1  C   UNL     1       3.641   5.012  18.776  0.00  0.00    +0.000 A 
ATOM      2  C   UNL     1       3.409   3.886  19.613  0.00  0.00    +0.000 A 
ATOM      3  C   UNL     1       2.482   3.966  20.659  0.00  0.00    +0.000 A 
ATOM      4  C   UNL     1       1.799   5.153  20.900  0.00  0.00    +0.000 A 
ATOM      5  C   UNL     1       2.018   6.258  20.078  0.00  0.00    +0.000 A 
ATOM      6  C   UNL     1       2.894   6.194  18.975  0.00  0.00    +0.000 A 
ATOM      7  C   UNL     1       2.977   7.392  18.065  0.00  0.00    +0.000 C 
ATOM      8  O   UNL     1       1.945   8.353  18.263  0.00  0.00    +0.000 OA
ATOM      9  C   UNL     1       1.865   8.744  19.628  0.00  0.00    +0.000 C 
ATOM     10  C   UNL     1       0.966   9.961  19.712  0.00  0.00    +0.000 C 
ATOM     11  C   UNL     1       1.354   7.549  20.416  0.00  0.00    +0.000 C 
ATOM     12  O   UNL     1       0.536   7.619  21.322  0.00  0.00    +0.000 OA
ENDROOT
BRANCH   2  13
ATOM     13  O   UNL     1       4.136   2.752  19.333  0.00  0.00    +0.000 OA
ATOM     14  C   UNL     1       3.452   1.672  18.706  0.00  0.00    +0.000 C 
ENDBRANCH   2  13
BRANCH   1  15
ATOM     15  O   UNL     1       4.578   4.799  17.791  0.00  0.00    +0.000 OA
BRANCH  15  16
ATOM     16  C   UNL     1       5.974   4.962  18.027  0.00  0.00    +0.000 C 
BRANCH  16  17
ATOM     17  C   UNL     1       6.922   4.501  16.902  0.00  0.00    +0.000 C 
BRANCH  17  18
ATOM     18  O   UNL     1       8.218   4.095  17.363  0.00  0.00    +0.000 OA
ATOM     19  H   UNL     1       8.716   4.879  17.638  0.00  0.00    +0.000 HD
ENDBRANCH  17  18
BRANCH  17  20
ATOM     20  C   UNL     1       7.103   5.645  15.871  0.00  0.00    +0.000 C 
BRANCH  20  21
ATOM     21  N   UNL     1       7.295   5.099  14.529  0.00  0.00    +0.000 NA
ATOM     22  H   UNL     1       7.265   5.858  13.846  0.00  0.00    +0.000 HD
BRANCH  21  24
ATOM     23  C   UNL     1       6.424   3.728  12.725  0.00  0.00    +0.000 C 
ATOM     24  C   UNL     1       6.323   4.061  14.205  0.00  0.00    +0.000 C 
ENDBRANCH  21  24
ENDBRANCH  20  21
ENDBRANCH  17  20
ENDBRANCH  16  17
ENDBRANCH  15  16
ENDBRANCH   1  15
TORSDOF 8
ENDMDL
MODEL 9
REMARK VINA RESULT:      -6.2      3.102      4.821
REMARK  Name = 
REMARK  11 active torsions:
REMARK  status: ('A' for Active; 'I' for Inactive)
REMARK    1  A    between atoms: C_1  and  C_2
REMARK    2  A    between atoms: C_2  and  N_3
REMARK    3  A    between atoms: N_3  and  C_4
REMARK    4  A    between atoms: C_4  and  C_5
REMARK    5  A    between atoms: C_5  and  O_6
REMARK    6  A    between atoms: C_5  and  C_7
REMARK    7  A    between atoms: C_7  and  O_8
REMARK    8  A    between atoms: O_8  and  C_9
REMARK    9  A    between atoms: C_10  and  O_11
REMARK   10  A    between atoms: O_11  and  C_12
REMARK   11  A    between atoms: C_19  and  C_20
REMARK                            x       y       z     vdW  Elec       q    Type
REMARK                         _______ _______ _______ _____ _____    ______ ____
ROOT
ATOM      1  C   UNL     1       3.858   4.883  18.781  0.00  0.00    +0.000 A 
ATOM      2  C   UNL     1       3.606   3.788  19.652  0.00  0.00    +0.000 A 
ATOM      3  C   UNL     1       2.639   3.897  20.659  0.00  0.00    +0.000 A 
ATOM      4  C   UNL     1       1.935   5.084  20.828  0.00  0.00    +0.000 A 
ATOM      5  C   UNL     1       2.173   6.159  19.972  0.00  0.00    +0.000 A 
ATOM      6  C   UNL     1       3.092   6.063  18.906  0.00  0.00    +0.000 A 
ATOM      7  C   UNL     1       3.197   7.225  17.954  0.00  0.00    +0.000 C 
ATOM      8  O   UNL     1       2.148   8.182  18.075  0.00  0.00    +0.000 OA
ATOM      9  C   UNL     1       2.012   8.624  19.420  0.00  0.00    +0.000 C 
ATOM     10  C   UNL     1       1.099   9.832  19.423  0.00  0.00    +0.000 C 
ATOM     11  C   UNL     1       1.485   7.454  20.234  0.00  0.00    +0.000 C 
ATOM     12  O   UNL     1       0.632   7.550  21.106  0.00  0.00    +0.000 OA
ENDROOT
BRANCH   2  13
ATOM     13  O   UNL     1       4.355   2.652  19.444  0.00  0.00    +0.000 OA
ATOM     14  C   UNL     1       3.710   1.546  18.820  0.00  0.00    +0.000 C 
ENDBRANCH   2  13
BRANCH   1  15
ATOM     15  O   UNL     1       4.833   4.643  17.842  0.00  0.00    +0.000 OA
BRANCH  15  16
ATOM     16  C   UNL     1       4.521   4.405  16.471  0.00  0.00    +0.000 C 
BRANCH  16  17
ATOM     17  C   UNL     1       5.564   4.873  15.435  0.00  0.00    +0.000 C 
BRANCH  17  18
ATOM     18  O   UNL     1       5.652   4.030  14.277  0.00  0.00    +0.000 OA
ATOM     19  H   UNL     1       5.826   4.580  13.500  0.00  0.00    +0.000 HD
ENDBRANCH  17  18
BRANCH  17  20
ATOM     20  C   UNL     1       6.962   4.945  16.100  0.00  0.00    +0.000 C 
BRANCH  20  21
ATOM     21  N   UNL     1       7.393   6.335  16.235  0.00  0.00    +0.000 NA
ATOM     22  H   UNL     1       8.295   6.458  15.772  0.00  0.00    +0.000 HD
BRANCH  21  24
ATOM     23  C   UNL     1       7.832   8.239  17.676  0.00  0.00    +0.000 C 
ATOM     24  C   UNL     1       7.454   6.768  17.627  0.00  0.00    +0.000 C 
ENDBRANCH  21  24
ENDBRANCH  20  21
ENDBRANCH  17  20
ENDBRANCH  16  17
ENDBRANCH  15  16
ENDBRANCH   1  15
TORSDOF 8
ENDMDL
