MODEL 1
REMARK VINA RESULT:      -8.2      0.000      0.000
REMARK  Name = 
REMARK  4 active torsions:
REMARK  status: ('A' for Active; 'I' for Inactive)
REMARK    1  A    between atoms: C_1  and  C_2
REMARK    2  A    between atoms: C_5  and  C_6
REMARK    3  A    between atoms: N_14  and  C_15
REMARK    4  A    between atoms: C_15  and  C_16
REMARK                            x       y       z     vdW  Elec       q    Type
REMARK                         _______ _______ _______ _____ _____    ______ ____
ROOT
ATOM      1  C   UNL     1       6.685   4.416  17.449  0.00  0.00    +0.000 C 
ATOM      2  O   UNL     1       7.710   4.398  18.136  0.00  0.00    +0.000 OA
ATOM      3  N   UNL     1       5.431   4.386  18.056  0.00  0.00    +0.000 N 
ATOM      4  C   UNL     1       5.280   4.405  19.507  0.00  0.00    +0.000 C 
ATOM      5  C   UNL     1       3.893   3.819  19.779  0.00  0.00    +0.000 C 
ATOM      6  C   UNL     1       3.123   4.192  18.528  0.00  0.00    +0.000 C 
ATOM      7  C   UNL     1       1.893   3.375  18.022  0.00  0.00    +0.000 C 
ATOM      8  C   UNL     1       1.383   4.770  17.549  0.00  0.00    +0.000 C 
ATOM      9  N   UNL     1       2.121   5.315  18.722  0.00  0.00    +0.000 NA
ATOM     10  C   UNL     1       4.154   4.265  17.397  0.00  0.00    +0.000 C 
ENDROOT
BRANCH   1  15
ATOM     11  C   UNL     1       7.204   4.775  11.693  0.00  0.00    +0.000 C 
ATOM     12  C   UNL     1       7.064   4.595  13.171  0.00  0.00    +0.000 A 
ATOM     13  C   UNL     1       6.213   3.662  13.752  0.00  0.00    +0.000 A 
ATOM     14  C   UNL     1       6.112   3.607  15.152  0.00  0.00    +0.000 A 
ATOM     15  C   UNL     1       6.861   4.477  15.955  0.00  0.00    +0.000 A 
ATOM     16  C   UNL     1       7.678   5.356  15.261  0.00  0.00    +0.000 A 
ATOM     17  N   UNL     1       7.797   5.439  13.916  0.00  0.00    +0.000 NA
ENDBRANCH   1  15
BRANCH   9  18
ATOM     18  C   UNL     1       2.717   6.638  18.575  0.00  0.00    +0.000 C 
BRANCH  18  19
ATOM     19  C   UNL     1       2.026   7.822  19.217  0.00  0.00    +0.000 A 
ATOM     20  C   UNL     1       1.599   8.959  18.514  0.00  0.00    +0.000 A 
ATOM     21  C   UNL     1       0.887   9.968  19.171  0.00  0.00    +0.000 A 
ATOM     22  C   UNL     1       0.583   9.836  20.521  0.00  0.00    +0.000 A 
ATOM     23  F   UNL     1      -0.122  10.793  21.140  0.00  0.00    +0.000 F 
ATOM     24  C   UNL     1       0.980   8.716  21.236  0.00  0.00    +0.000 A 
ATOM     25  C   UNL     1       1.697   7.715  20.584  0.00  0.00    +0.000 A 
ENDBRANCH  18  19
ENDBRANCH   9  18
TORSDOF 3
ENDMDL
MODEL 2
REMARK VINA RESULT:      -8.1      0.326      1.011
REMARK  Name = 
REMARK  4 active torsions:
REMARK  status: ('A' for Active; 'I' for Inactive)
REMARK    1  A    between atoms: C_1  and  C_2
REMARK    2  A    between atoms: C_5  and  C_6
REMARK    3  A    between atoms: N_14  and  C_15
REMARK    4  A    between atoms: C_15  and  C_16
REMARK                            x       y       z     vdW  Elec       q    Type
REMARK                         _______ _______ _______ _____ _____    ______ ____
ROOT
ATOM      1  C   UNL     1       6.749   4.411  17.381  0.00  0.00    +0.000 C 
ATOM      2  O   UNL     1       7.787   4.401  18.049  0.00  0.00    +0.000 OA
ATOM      3  N   UNL     1       5.507   4.370  18.011  0.00  0.00    +0.000 N 
ATOM      4  C   UNL     1       5.382   4.386  19.465  0.00  0.00    +0.000 C 
ATOM      5  C   UNL     1       4.006   3.787  19.762  0.00  0.00    +0.000 C 
ATOM      6  C   UNL     1       3.209   4.154  18.526  0.00  0.00    +0.000 C 
ATOM      7  C   UNL     1       1.977   3.327  18.042  0.00  0.00    +0.000 C 
ATOM      8  C   UNL     1       1.446   4.719  17.581  0.00  0.00    +0.000 C 
ATOM      9  N   UNL     1       2.201   5.268  18.741  0.00  0.00    +0.000 NA
ATOM     10  C   UNL     1       4.218   4.238  17.376  0.00  0.00    +0.000 C 
ENDROOT
BRANCH   1  15
ATOM     11  C   UNL     1       7.158   4.783  11.617  0.00  0.00    +0.000 C 
ATOM     12  C   UNL     1       7.047   4.600  13.098  0.00  0.00    +0.000 A 
ATOM     13  C   UNL     1       6.210   3.662  13.693  0.00  0.00    +0.000 A 
ATOM     14  C   UNL     1       6.136   3.604  15.094  0.00  0.00    +0.000 A 
ATOM     15  C   UNL     1       6.896   4.476  15.884  0.00  0.00    +0.000 A 
ATOM     16  C   UNL     1       7.696   5.359  15.177  0.00  0.00    +0.000 A 
ATOM     17  N   UNL     1       7.789   5.445  13.830  0.00  0.00    +0.000 NA
ENDBRANCH   1  15
BRANCH   9  18
ATOM     18  C   UNL     1       2.783   6.597  18.584  0.00  0.00    +0.000 C 
BRANCH  18  19
ATOM     19  C   UNL     1       2.010   7.794  19.096  0.00  0.00    +0.000 A 
ATOM     20  C   UNL     1       1.599   7.952  20.428  0.00  0.00    +0.000 A 
ATOM     21  C   UNL     1       0.967   9.132  20.836  0.00  0.00    +0.000 A 
ATOM     22  C   UNL     1       0.763  10.161  19.922  0.00  0.00    +0.000 A 
ATOM     23  F   UNL     1       0.181  11.299  20.323  0.00  0.00    +0.000 F 
ATOM     24  C   UNL     1       1.173  10.035  18.604  0.00  0.00    +0.000 A 
ATOM     25  C   UNL     1       1.794   8.856  18.196  0.00  0.00    +0.000 A 
ENDBRANCH  18  19
ENDBRANCH   9  18
TORSDOF 3
ENDMDL
MODEL 3
REMARK VINA RESULT:      -8.1      3.490      7.904
REMARK  Name = 
REMARK  4 active torsions:
REMARK  status: ('A' for Active; 'I' for Inactive)
REMARK    1  A    between atoms: C_1  and  C_2
REMARK    2  A    between atoms: C_5  and  C_6
REMARK    3  A    between atoms: N_14  and  C_15
REMARK    4  A    between atoms: C_15  and  C_16
REMARK                            x       y       z     vdW  Elec       q    Type
REMARK                         _______ _______ _______ _____ _____    ______ ____
ROOT
ATOM      1  C   UNL     1       2.685   5.647  18.527  0.00  0.00    +0.000 C 
ATOM      2  O   UNL     1       1.837   4.754  18.446  0.00  0.00    +0.000 OA
ATOM      3  N   UNL     1       4.029   5.363  18.291  0.00  0.00    +0.000 N 
ATOM      4  C   UNL     1       4.473   4.037  17.874  0.00  0.00    +0.000 C 
ATOM      5  C   UNL     1       5.954   3.965  18.251  0.00  0.00    +0.000 C 
ATOM      6  C   UNL     1       6.390   5.415  18.163  0.00  0.00    +0.000 C 
ATOM      7  C   UNL     1       7.591   5.984  18.981  0.00  0.00    +0.000 C 
ATOM      8  C   UNL     1       7.792   6.885  17.724  0.00  0.00    +0.000 C 
ATOM      9  N   UNL     1       7.243   5.738  16.950  0.00  0.00    +0.000 NA
ATOM     10  C   UNL     1       5.147   6.255  18.478  0.00  0.00    +0.000 C 
ENDROOT
BRANCH   1  15
ATOM     11  C   UNL     1       0.627  10.898  19.836  0.00  0.00    +0.000 C 
ATOM     12  C   UNL     1       1.214   9.580  19.442  0.00  0.00    +0.000 A 
ATOM     13  C   UNL     1       1.579   9.263  18.137  0.00  0.00    +0.000 A 
ATOM     14  C   UNL     1       2.072   7.978  17.859  0.00  0.00    +0.000 A 
ATOM     15  C   UNL     1       2.198   7.026  18.880  0.00  0.00    +0.000 A 
ATOM     16  C   UNL     1       1.811   7.462  20.137  0.00  0.00    +0.000 A 
ATOM     17  N   UNL     1       1.328   8.689  20.440  0.00  0.00    +0.000 NA
ENDBRANCH   1  15
BRANCH   9  18
ATOM     18  C   UNL     1       6.450   6.055  15.768  0.00  0.00    +0.000 C 
BRANCH  18  19
ATOM     19  C   UNL     1       6.483   5.100  14.593  0.00  0.00    +0.000 A 
ATOM     20  C   UNL     1       5.477   4.164  14.313  0.00  0.00    +0.000 A 
ATOM     21  C   UNL     1       5.544   3.382  13.155  0.00  0.00    +0.000 A 
ATOM     22  C   UNL     1       6.602   3.547  12.267  0.00  0.00    +0.000 A 
ATOM     23  F   UNL     1       6.648   2.813  11.146  0.00  0.00    +0.000 F 
ATOM     24  C   UNL     1       7.601   4.475  12.513  0.00  0.00    +0.000 A 
ATOM     25  C   UNL     1       7.540   5.247  13.671  0.00  0.00    +0.000 A 
ENDBRANCH  18  19
ENDBRANCH   9  18
TORSDOF 3
ENDMDL
MODEL 4
REMARK VINA RESULT:      -7.9      1.457      1.912
REMARK  Name = 
REMARK  4 active torsions:
REMARK  status: ('A' for Active; 'I' for Inactive)
REMARK    1  A    between atoms: C_1  and  C_2
REMARK    2  A    between atoms: C_5  and  C_6
REMARK    3  A    between atoms: N_14  and  C_15
REMARK    4  A    between atoms: C_15  and  C_16
REMARK                            x       y       z     vdW  Elec       q    Type
REMARK                         _______ _______ _______ _____ _____    ______ ____
ROOT
ATOM      1  C   UNL     1       6.809   5.443  15.797  0.00  0.00    +0.000 C 
ATOM      2  O   UNL     1       7.800   6.175  15.726  0.00  0.00    +0.000 OA
ATOM      3  N   UNL     1       6.111   5.320  16.997  0.00  0.00    +0.000 N 
ATOM      4  C   UNL     1       6.474   6.095  18.179  0.00  0.00    +0.000 C 
ATOM      5  C   UNL     1       5.897   5.320  19.366  0.00  0.00    +0.000 C 
ATOM      6  C   UNL     1       4.693   4.628  18.758  0.00  0.00    +0.000 C 
ATOM      7  C   UNL     1       4.108   3.299  19.331  0.00  0.00    +0.000 C 
ATOM      8  C   UNL     1       2.749   3.902  18.862  0.00  0.00    +0.000 C 
ATOM      9  N   UNL     1       3.358   5.227  19.160  0.00  0.00    +0.000 NA
ATOM     10  C   UNL     1       5.027   4.411  17.279  0.00  0.00    +0.000 C 
ENDROOT
BRANCH   1  15
ATOM     11  C   UNL     1       5.321   2.470  11.056  0.00  0.00    +0.000 C 
ATOM     12  C   UNL     1       5.750   3.293  12.230  0.00  0.00    +0.000 A 
ATOM     13  C   UNL     1       7.016   3.856  12.348  0.00  0.00    +0.000 A 
ATOM     14  C   UNL     1       7.341   4.568  13.515  0.00  0.00    +0.000 A 
ATOM     15  C   UNL     1       6.402   4.714  14.545  0.00  0.00    +0.000 A 
ATOM     16  C   UNL     1       5.175   4.116  14.307  0.00  0.00    +0.000 A 
ATOM     17  N   UNL     1       4.830   3.420  13.199  0.00  0.00    +0.000 NA
ENDBRANCH   1  15
BRANCH   9  18
ATOM     18  C   UNL     1       2.961   6.346  18.313  0.00  0.00    +0.000 C 
BRANCH  18  19
ATOM     19  C   UNL     1       2.269   7.531  18.952  0.00  0.00    +0.000 A 
ATOM     20  C   UNL     1       1.870   8.679  18.252  0.00  0.00    +0.000 A 
ATOM     21  C   UNL     1       1.154   9.690  18.904  0.00  0.00    +0.000 A 
ATOM     22  C   UNL     1       0.819   9.547  20.246  0.00  0.00    +0.000 A 
ATOM     23  F   UNL     1       0.112  10.506  20.859  0.00  0.00    +0.000 F 
ATOM     24  C   UNL     1       1.189   8.416  20.957  0.00  0.00    +0.000 A 
ATOM     25  C   UNL     1       1.910   7.414  20.311  0.00  0.00    +0.000 A 
ENDBRANCH  18  19
ENDBRANCH   9  18
TORSDOF 3
ENDMDL
MODEL 5
REMARK VINA RESULT:      -7.8      0.762      1.078
REMARK  Name = 
REMARK  4 active torsions:
REMARK  status: ('A' for Active; 'I' for Inactive)
REMARK    1  A    between atoms: C_1  and  C_2
REMARK    2  A    between atoms: C_5  and  C_6
REMARK    3  A    between atoms: N_14  and  C_15
REMARK    4  A    between atoms: C_15  and  C_16
REMARK                            x       y       z     vdW  Elec       q    Type
REMARK                         _______ _______ _______ _____ _____    ______ ____
ROOT
ATOM      1  C   UNL     1       6.747   4.686  16.924  0.00  0.00    +0.000 C 
ATOM      2  O   UNL     1       7.835   4.898  17.465  0.00  0.00    +0.000 OA
ATOM      3  N   UNL     1       5.582   4.627  17.686  0.00  0.00    +0.000 N 
ATOM      4  C   UNL     1       5.591   4.881  19.123  0.00  0.00    +0.000 C 
ATOM      5  C   UNL     1       4.330   4.204  19.664  0.00  0.00    +0.000 C 
ATOM      6  C   UNL     1       3.384   4.269  18.480  0.00  0.00    +0.000 C 
ATOM      7  C   UNL     1       2.221   3.249  18.276  0.00  0.00    +0.000 C 
ATOM      8  C   UNL     1       1.487   4.478  17.658  0.00  0.00    +0.000 C 
ATOM      9  N   UNL     1       2.274   5.294  18.623  0.00  0.00    +0.000 NA
ATOM     10  C   UNL     1       4.266   4.256  17.228  0.00  0.00    +0.000 C 
ENDROOT
BRANCH   1  15
ATOM     11  C   UNL     1       6.896   3.862  11.194  0.00  0.00    +0.000 C 
ATOM     12  C   UNL     1       6.870   4.161  12.660  0.00  0.00    +0.000 A 
ATOM     13  C   UNL     1       7.706   5.092  13.267  0.00  0.00    +0.000 A 
ATOM     14  C   UNL     1       7.642   5.262  14.660  0.00  0.00    +0.000 A 
ATOM     15  C   UNL     1       6.747   4.506  15.429  0.00  0.00    +0.000 A 
ATOM     16  C   UNL     1       5.963   3.619  14.711  0.00  0.00    +0.000 A 
ATOM     17  N   UNL     1       6.000   3.426  13.372  0.00  0.00    +0.000 NA
ENDBRANCH   1  15
BRANCH   9  18
ATOM     18  C   UNL     1       2.675   6.628  18.191  0.00  0.00    +0.000 C 
BRANCH  18  19
ATOM     19  C   UNL     1       2.076   7.830  18.890  0.00  0.00    +0.000 A 
ATOM     20  C   UNL     1       1.688   9.008  18.235  0.00  0.00    +0.000 A 
ATOM     21  C   UNL     1       1.058  10.036  18.944  0.00  0.00    +0.000 A 
ATOM     22  C   UNL     1       0.797   9.882  20.302  0.00  0.00    +0.000 A 
ATOM     23  F   UNL     1       0.171  10.859  20.972  0.00  0.00    +0.000 F 
ATOM     24  C   UNL     1       1.157   8.722  20.970  0.00  0.00    +0.000 A 
ATOM     25  C   UNL     1       1.793   7.702  20.265  0.00  0.00    +0.000 A 
ENDBRANCH  18  19
ENDBRANCH   9  18
TORSDOF 3
ENDMDL
MODEL 6
REMARK VINA RESULT:      -7.7      0.782      1.460
REMARK  Name = 
REMARK  4 active torsions:
REMARK  status: ('A' for Active; 'I' for Inactive)
REMARK    1  A    between atoms: C_1  and  C_2
REMARK    2  A    between atoms: C_5  and  C_6
REMARK    3  A    between atoms: N_14  and  C_15
REMARK    4  A    between atoms: C_15  and  C_16
REMARK                            x       y       z     vdW  Elec       q    Type
REMARK                         _______ _______ _______ _____ _____    ______ ____
ROOT
ATOM      1  C   UNL     1       6.743   4.555  16.989  0.00  0.00    +0.000 C 
ATOM      2  O   UNL     1       7.831   4.694  17.555  0.00  0.00    +0.000 OA
ATOM      3  N   UNL     1       5.565   4.507  17.733  0.00  0.00    +0.000 N 
ATOM      4  C   UNL     1       5.563   4.688  19.181  0.00  0.00    +0.000 C 
ATOM      5  C   UNL     1       4.266   4.038  19.670  0.00  0.00    +0.000 C 
ATOM      6  C   UNL     1       3.342   4.202  18.479  0.00  0.00    +0.000 C 
ATOM      7  C   UNL     1       2.141   3.243  18.208  0.00  0.00    +0.000 C 
ATOM      8  C   UNL     1       1.468   4.531  17.644  0.00  0.00    +0.000 C 
ATOM      9  N   UNL     1       2.273   5.264  18.659  0.00  0.00    +0.000 NA
ATOM     10  C   UNL     1       4.242   4.214  17.239  0.00  0.00    +0.000 C 
ENDROOT
BRANCH   1  15
ATOM     11  C   UNL     1       6.956   4.025  11.227  0.00  0.00    +0.000 C 
ATOM     12  C   UNL     1       6.910   4.249  12.706  0.00  0.00    +0.000 A 
ATOM     13  C   UNL     1       7.705   5.180  13.365  0.00  0.00    +0.000 A 
ATOM     14  C   UNL     1       7.627   5.278  14.764  0.00  0.00    +0.000 A 
ATOM     15  C   UNL     1       6.758   4.450  15.488  0.00  0.00    +0.000 A 
ATOM     16  C   UNL     1       6.014   3.569  14.720  0.00  0.00    +0.000 A 
ATOM     17  N   UNL     1       6.066   3.446  13.374  0.00  0.00    +0.000 NA
ENDBRANCH   1  15
BRANCH   9  18
ATOM     18  C   UNL     1       2.736   6.600  18.300  0.00  0.00    +0.000 C 
BRANCH  18  19
ATOM     19  C   UNL     1       2.004   7.798  18.865  0.00  0.00    +0.000 A 
ATOM     20  C   UNL     1       1.659   7.943  20.217  0.00  0.00    +0.000 A 
ATOM     21  C   UNL     1       1.063   9.125  20.671  0.00  0.00    +0.000 A 
ATOM     22  C   UNL     1       0.829  10.168  19.783  0.00  0.00    +0.000 A 
ATOM     23  F   UNL     1       0.281  11.308  20.227  0.00  0.00    +0.000 F 
ATOM     24  C   UNL     1       1.173  10.057  18.444  0.00  0.00    +0.000 A 
ATOM     25  C   UNL     1       1.758   8.876  17.991  0.00  0.00    +0.000 A 
ENDBRANCH  18  19
ENDBRANCH   9  18
TORSDOF 3
ENDMDL
MODEL 7
REMARK VINA RESULT:      -7.7      3.510      7.872
REMARK  Name = 
REMARK  4 active torsions:
REMARK  status: ('A' for Active; 'I' for Inactive)
REMARK    1  A    between atoms: C_1  and  C_2
REMARK    2  A    between atoms: C_5  and  C_6
REMARK    3  A    between atoms: N_14  and  C_15
REMARK    4  A    between atoms: C_15  and  C_16
REMARK                            x       y       z     vdW  Elec       q    Type
REMARK                         _______ _______ _______ _____ _____    ______ ____
ROOT
ATOM      1  C   UNL     1       2.602   5.633  18.365  0.00  0.00    +0.000 C 
ATOM      2  O   UNL     1       1.748   4.751  18.244  0.00  0.00    +0.000 OA
ATOM      3  N   UNL     1       3.946   5.350  18.125  0.00  0.00    +0.000 N 
ATOM      4  C   UNL     1       4.382   4.038  17.658  0.00  0.00    +0.000 C 
ATOM      5  C   UNL     1       5.861   3.941  18.041  0.00  0.00    +0.000 C 
ATOM      6  C   UNL     1       6.307   5.390  18.013  0.00  0.00    +0.000 C 
ATOM      7  C   UNL     1       7.507   5.918  18.859  0.00  0.00    +0.000 C 
ATOM      8  C   UNL     1       7.722   6.866  17.641  0.00  0.00    +0.000 C 
ATOM      9  N   UNL     1       7.169   5.755  16.818  0.00  0.00    +0.000 NA
ATOM     10  C   UNL     1       5.069   6.225  18.354  0.00  0.00    +0.000 C 
ENDROOT
BRANCH   1  15
ATOM     11  C   UNL     1       0.946  10.944  19.970  0.00  0.00    +0.000 C 
ATOM     12  C   UNL     1       1.316   9.540  19.613  0.00  0.00    +0.000 A 
ATOM     13  C   UNL     1       1.411   8.512  20.545  0.00  0.00    +0.000 A 
ATOM     14  C   UNL     1       1.819   7.237  20.117  0.00  0.00    +0.000 A 
ATOM     15  C   UNL     1       2.123   7.002  18.770  0.00  0.00    +0.000 A 
ATOM     16  C   UNL     1       1.983   8.100  17.937  0.00  0.00    +0.000 A 
ATOM     17  N   UNL     1       1.597   9.341  18.315  0.00  0.00    +0.000 NA
ENDBRANCH   1  15
BRANCH   9  18
ATOM     18  C   UNL     1       6.386   6.124  15.645  0.00  0.00    +0.000 C 
BRANCH  18  19
ATOM     19  C   UNL     1       6.451   5.238  14.419  0.00  0.00    +0.000 A 
ATOM     20  C   UNL     1       7.536   5.206  13.530  0.00  0.00    +0.000 A 
ATOM     21  C   UNL     1       7.554   4.292  12.471  0.00  0.00    +0.000 A 
ATOM     22  C   UNL     1       6.502   3.397  12.311  0.00  0.00    +0.000 A 
ATOM     23  F   UNL     1       6.535   2.506  11.310  0.00  0.00    +0.000 F 
ATOM     24  C   UNL     1       5.425   3.398  13.183  0.00  0.00    +0.000 A 
ATOM     25  C   UNL     1       5.403   4.315  14.232  0.00  0.00    +0.000 A 
ENDBRANCH  18  19
ENDBRANCH   9  18
TORSDOF 3
ENDMDL
MODEL 8
REMARK VINA RESULT:      -7.6      3.484      7.919
REMARK  Name = 
REMARK  4 active torsions:
REMARK  status: ('A' for Active; 'I' for Inactive)
REMARK    1  A    between atoms: C_1  and  C_2
REMARK    2  A    between atoms: C_5  and  C_6
REMARK    3  A    between atoms: N_14  and  C_15
REMARK    4  A    between atoms: C_15  and  C_16
REMARK                            x       y       z     vdW  Elec       q    Type
REMARK                         _______ _______ _______ _____ _____    ______ ____
ROOT
ATOM      1  C   UNL     1       3.174   5.331  19.072  0.00  0.00    +0.000 C 
ATOM      2  O   UNL     1       2.553   4.280  19.250  0.00  0.00    +0.000 OA
ATOM      3  N   UNL     1       4.476   5.303  18.577  0.00  0.00    +0.000 N 
ATOM      4  C   UNL     1       5.123   4.055  18.186  0.00  0.00    +0.000 C 
ATOM      5  C   UNL     1       6.625   4.340  18.240  0.00  0.00    +0.000 C 
ATOM      6  C   UNL     1       6.693   5.825  17.940  0.00  0.00    +0.000 C 
ATOM      7  C   UNL     1       7.866   6.730  18.430  0.00  0.00    +0.000 C 
ATOM      8  C   UNL     1       7.611   7.483  17.089  0.00  0.00    +0.000 C 
ATOM      9  N   UNL     1       7.201   6.158  16.550  0.00  0.00    +0.000 NA
ATOM     10  C   UNL     1       5.376   6.423  18.444  0.00  0.00    +0.000 C 
ENDROOT
BRANCH   1  15
ATOM     11  C   UNL     1       0.604  10.340  20.429  0.00  0.00    +0.000 C 
ATOM     12  C   UNL     1       1.207   9.005  20.126  0.00  0.00    +0.000 A 
ATOM     13  C   UNL     1       1.308   7.980  21.061  0.00  0.00    +0.000 A 
ATOM     14  C   UNL     1       1.940   6.780  20.695  0.00  0.00    +0.000 A 
ATOM     15  C   UNL     1       2.461   6.615  19.405  0.00  0.00    +0.000 A 
ATOM     16  C   UNL     1       2.294   7.702  18.563  0.00  0.00    +0.000 A 
ATOM     17  N   UNL     1       1.694   8.872  18.882  0.00  0.00    +0.000 NA
ENDBRANCH   1  15
BRANCH   9  18
ATOM     18  C   UNL     1       6.145   6.150  15.543  0.00  0.00    +0.000 C 
BRANCH  18  19
ATOM     19  C   UNL     1       6.190   5.102  14.451  0.00  0.00    +0.000 A 
ATOM     20  C   UNL     1       5.144   4.209  14.176  0.00  0.00    +0.000 A 
ATOM     21  C   UNL     1       5.233   3.332  13.089  0.00  0.00    +0.000 A 
ATOM     22  C   UNL     1       6.354   3.358  12.267  0.00  0.00    +0.000 A 
ATOM     23  F   UNL     1       6.423   2.534  11.213  0.00  0.00    +0.000 F 
ATOM     24  C   UNL     1       7.395   4.240  12.509  0.00  0.00    +0.000 A 
ATOM     25  C   UNL     1       7.311   5.107  13.596  0.00  0.00    +0.000 A 
ENDBRANCH  18  19
ENDBRANCH   9  18
TORSDOF 3
ENDMDL
MODEL 9
REMARK VINA RESULT:      -7.5      1.407      2.055
REMARK  Name = 
REMARK  4 active torsions:
REMARK  status: ('A' for Active; 'I' for Inactive)
REMARK    1  A    between atoms: C_1  and  C_2
REMARK    2  A    between atoms: C_5  and  C_6
REMARK    3  A    between atoms: N_14  and  C_15
REMARK    4  A    between atoms: C_15  and  C_16
REMARK                            x       y       z     vdW  Elec       q    Type
REMARK                         _______ _______ _______ _____ _____    ______ ____
ROOT
ATOM      1  C   UNL     1       6.852   5.471  15.792  0.00  0.00    +0.000 C 
ATOM      2  O   UNL     1       7.774   6.285  15.693  0.00  0.00    +0.000 OA
ATOM      3  N   UNL     1       6.187   5.305  17.005  0.00  0.00    +0.000 N 
ATOM      4  C   UNL     1       6.500   6.125  18.171  0.00  0.00    +0.000 C 
ATOM      5  C   UNL     1       6.013   5.320  19.378  0.00  0.00    +0.000 C 
ATOM      6  C   UNL     1       4.865   4.516  18.799  0.00  0.00    +0.000 C 
ATOM      7  C   UNL     1       4.407   3.150  19.400  0.00  0.00    +0.000 C 
ATOM      8  C   UNL     1       2.993   3.624  18.946  0.00  0.00    +0.000 C 
ATOM      9  N   UNL     1       3.489   5.001  19.217  0.00  0.00    +0.000 NA
ATOM     10  C   UNL     1       5.192   4.308  17.317  0.00  0.00    +0.000 C 
ENDROOT
BRANCH   1  15
ATOM     11  C   UNL     1       5.386   2.635  10.961  0.00  0.00    +0.000 C 
ATOM     12  C   UNL     1       5.718   3.310  12.254  0.00  0.00    +0.000 A 
ATOM     13  C   UNL     1       4.805   3.467  13.292  0.00  0.00    +0.000 A 
ATOM     14  C   UNL     1       5.197   4.163  14.447  0.00  0.00    +0.000 A 
ATOM     15  C   UNL     1       6.491   4.690  14.556  0.00  0.00    +0.000 A 
ATOM     16  C   UNL     1       7.310   4.462  13.463  0.00  0.00    +0.000 A 
ATOM     17  N   UNL     1       6.965   3.800  12.334  0.00  0.00    +0.000 NA
ENDBRANCH   1  15
BRANCH   9  18
ATOM     18  C   UNL     1       2.981   6.069  18.362  0.00  0.00    +0.000 C 
BRANCH  18  19
ATOM     19  C   UNL     1       2.228   7.216  19.002  0.00  0.00    +0.000 A 
ATOM     20  C   UNL     1       1.858   7.256  20.355  0.00  0.00    +0.000 A 
ATOM     21  C   UNL     1       1.243   8.395  20.884  0.00  0.00    +0.000 A 
ATOM     22  C   UNL     1       1.015   9.501  20.072  0.00  0.00    +0.000 A 
ATOM     23  F   UNL     1       0.448  10.599  20.590  0.00  0.00    +0.000 F 
ATOM     24  C   UNL     1       1.383   9.493  18.736  0.00  0.00    +0.000 A 
ATOM     25  C   UNL     1       1.987   8.354  18.206  0.00  0.00    +0.000 A 
ENDBRANCH  18  19
ENDBRANCH   9  18
TORSDOF 3
ENDMDL
