MODEL 1
REMARK VINA RESULT:      -5.9      0.000      0.000
REMARK  Name = 
REMARK  10 active torsions:
REMARK  status: ('A' for Active; 'I' for Inactive)
REMARK    1  A    between atoms: C_1  and  C_2
REMARK    2  A    between atoms: C_2  and  C_3
REMARK    3  A    between atoms: C_3  and  N_4
REMARK    4  A    between atoms: N_4  and  C_5
REMARK    5  A    between atoms: N_4  and  C_8
REMARK    6  A    between atoms: C_5  and  C_6
REMARK    7  A    between atoms: C_6  and  C_7
REMARK    8  A    between atoms: C_8  and  C_9
REMARK    9  A    between atoms: C_9  and  C_10
REMARK   10  A    between atoms: C_15  and  O_16
REMARK                            x       y       z     vdW  Elec       q    Type
REMARK                         _______ _______ _______ _____ _____    ______ ____
ROOT
ATOM      1  C   UNL     1       3.510   2.454  17.534  0.00  0.00    +0.000 C 
ENDROOT
BRANCH   1   2
ATOM      2  C   UNL     1       2.834   2.628  18.882  0.00  0.00    +0.000 A 
ATOM      3  C   UNL     1       1.458   2.903  18.941  0.00  0.00    +0.000 A 
ATOM      4  C   UNL     1       0.816   3.099  20.166  0.00  0.00    +0.000 A 
ATOM      5  C   UNL     1       1.537   3.000  21.353  0.00  0.00    +0.000 A 
ATOM      6  C   UNL     1       2.898   2.706  21.318  0.00  0.00    +0.000 A 
ATOM      7  C   UNL     1       3.538   2.524  20.089  0.00  0.00    +0.000 A 
BRANCH   7   8
ATOM      8  O   UNL     1       4.876   2.246  20.063  0.00  0.00    +0.000 OA
ATOM      9  H   UNL     1       5.367   3.081  20.002  0.00  0.00    +0.000 HD
ENDBRANCH   7   8
ENDBRANCH   1   2
BRANCH   1  10
ATOM     10  C   UNL     1       4.000   3.801  16.960  0.00  0.00    +0.000 C 
BRANCH  10  11
ATOM     11  N   UNL     1       5.140   4.443  17.662  0.00  0.00    +0.000 NA
BRANCH  11  12
ATOM     12  C   UNL     1       6.305   4.457  16.752  0.00  0.00    +0.000 C 
BRANCH  12  14
ATOM     13  C   UNL     1       6.542   4.650  14.211  0.00  0.00    +0.000 C 
ATOM     14  C   UNL     1       6.130   3.777  15.384  0.00  0.00    +0.000 C 
ENDBRANCH  12  14
ENDBRANCH  11  12
BRANCH  11  15
ATOM     15  C   UNL     1       4.808   5.768  18.217  0.00  0.00    +0.000 C 
BRANCH  15  16
ATOM     16  C   UNL     1       3.337   6.195  18.110  0.00  0.00    +0.000 C 
ATOM     17  C   UNL     1       2.709   6.374  19.483  0.00  0.00    +0.000 C 
ENDBRANCH  15  16
ENDBRANCH  11  15
ENDBRANCH  10  11
ENDBRANCH   1  10
TORSDOF 8
ENDMDL
MODEL 2
REMARK VINA RESULT:      -5.8      1.310      2.867
REMARK  Name = 
REMARK  10 active torsions:
REMARK  status: ('A' for Active; 'I' for Inactive)
REMARK    1  A    between atoms: C_1  and  C_2
REMARK    2  A    between atoms: C_2  and  C_3
REMARK    3  A    between atoms: C_3  and  N_4
REMARK    4  A    between atoms: N_4  and  C_5
REMARK    5  A    between atoms: N_4  and  C_8
REMARK    6  A    between atoms: C_5  and  C_6
REMARK    7  A    between atoms: C_6  and  C_7
REMARK    8  A    between atoms: C_8  and  C_9
REMARK    9  A    between atoms: C_9  and  C_10
REMARK   10  A    between atoms: C_15  and  O_16
REMARK                            x       y       z     vdW  Elec       q    Type
REMARK                         _______ _______ _______ _____ _____    ______ ____
ROOT
ATOM      1  C   UNL     1       3.561   3.754  17.517  0.00  0.00    +0.000 C 
ENDROOT
BRANCH   1   2
ATOM      2  C   UNL     1       2.901   3.521  18.863  0.00  0.00    +0.000 A 
ATOM      3  C   UNL     1       1.603   4.006  19.096  0.00  0.00    +0.000 A 
ATOM      4  C   UNL     1       0.983   3.832  20.336  0.00  0.00    +0.000 A 
ATOM      5  C   UNL     1       1.643   3.151  21.355  0.00  0.00    +0.000 A 
ATOM      6  C   UNL     1       2.922   2.643  21.137  0.00  0.00    +0.000 A 
ATOM      7  C   UNL     1       3.543   2.830  19.900  0.00  0.00    +0.000 A 
BRANCH   7   8
ATOM      8  O   UNL     1       4.801   2.337  19.698  0.00  0.00    +0.000 OA
ATOM      9  H   UNL     1       4.751   1.369  19.641  0.00  0.00    +0.000 HD
ENDBRANCH   7   8
ENDBRANCH   1   2
BRANCH   1  10
ATOM     10  C   UNL     1       4.323   5.097  17.477  0.00  0.00    +0.000 C 
BRANCH  10  11
ATOM     11  N   UNL     1       5.720   5.050  16.975  0.00  0.00    +0.000 NA
BRANCH  11  12
ATOM     12  C   UNL     1       6.626   4.854  18.126  0.00  0.00    +0.000 C 
BRANCH  12  14
ATOM     13  C   UNL     1       7.444   7.210  17.551  0.00  0.00    +0.000 C 
ATOM     14  C   UNL     1       7.627   5.982  18.425  0.00  0.00    +0.000 C 
ENDBRANCH  12  14
ENDBRANCH  11  12
BRANCH  11  15
ATOM     15  C   UNL     1       5.915   4.066  15.895  0.00  0.00    +0.000 C 
BRANCH  15  16
ATOM     16  C   UNL     1       5.508   4.520  14.486  0.00  0.00    +0.000 C 
ATOM     17  C   UNL     1       6.280   3.766  13.414  0.00  0.00    +0.000 C 
ENDBRANCH  15  16
ENDBRANCH  11  15
ENDBRANCH  10  11
ENDBRANCH   1  10
TORSDOF 8
ENDMDL
MODEL 3
REMARK VINA RESULT:      -5.8      1.834      2.684
REMARK  Name = 
REMARK  10 active torsions:
REMARK  status: ('A' for Active; 'I' for Inactive)
REMARK    1  A    between atoms: C_1  and  C_2
REMARK    2  A    between atoms: C_2  and  C_3
REMARK    3  A    between atoms: C_3  and  N_4
REMARK    4  A    between atoms: N_4  and  C_5
REMARK    5  A    between atoms: N_4  and  C_8
REMARK    6  A    between atoms: C_5  and  C_6
REMARK    7  A    between atoms: C_6  and  C_7
REMARK    8  A    between atoms: C_8  and  C_9
REMARK    9  A    between atoms: C_9  and  C_10
REMARK   10  A    between atoms: C_15  and  O_16
REMARK                            x       y       z     vdW  Elec       q    Type
REMARK                         _______ _______ _______ _____ _____    ______ ____
ROOT
ATOM      1  C   UNL     1       3.680   5.211  17.756  0.00  0.00    +0.000 C 
ENDROOT
BRANCH   1   2
ATOM      2  C   UNL     1       2.617   4.477  18.552  0.00  0.00    +0.000 A 
ATOM      3  C   UNL     1       2.060   3.292  18.044  0.00  0.00    +0.000 A 
ATOM      4  C   UNL     1       1.057   2.612  18.741  0.00  0.00    +0.000 A 
ATOM      5  C   UNL     1       0.611   3.097  19.968  0.00  0.00    +0.000 A 
ATOM      6  C   UNL     1       1.166   4.259  20.500  0.00  0.00    +0.000 A 
ATOM      7  C   UNL     1       2.160   4.942  19.793  0.00  0.00    +0.000 A 
BRANCH   7   8
ATOM      8  O   UNL     1       2.691   6.086  20.317  0.00  0.00    +0.000 OA
ATOM      9  H   UNL     1       3.587   5.894  20.641  0.00  0.00    +0.000 HD
ENDBRANCH   7   8
ENDBRANCH   1   2
BRANCH   1  10
ATOM     10  C   UNL     1       5.102   4.881  18.260  0.00  0.00    +0.000 C 
BRANCH  10  11
ATOM     11  N   UNL     1       6.028   4.269  17.273  0.00  0.00    +0.000 NA
BRANCH  11  12
ATOM     12  C   UNL     1       5.322   4.144  15.981  0.00  0.00    +0.000 C 
BRANCH  12  14
ATOM     13  C   UNL     1       6.172   3.838  13.586  0.00  0.00    +0.000 C 
ATOM     14  C   UNL     1       5.989   4.790  14.756  0.00  0.00    +0.000 C 
ENDBRANCH  12  14
ENDBRANCH  11  12
BRANCH  11  15
ATOM     15  C   UNL     1       7.320   4.973  17.175  0.00  0.00    +0.000 C 
BRANCH  15  16
ATOM     16  C   UNL     1       7.563   6.084  18.207  0.00  0.00    +0.000 C 
ATOM     17  C   UNL     1       7.605   7.454  17.549  0.00  0.00    +0.000 C 
ENDBRANCH  15  16
ENDBRANCH  11  15
ENDBRANCH  10  11
ENDBRANCH   1  10
TORSDOF 8
ENDMDL
MODEL 4
REMARK VINA RESULT:      -5.7      1.845      2.792
REMARK  Name = 
REMARK  10 active torsions:
REMARK  status: ('A' for Active; 'I' for Inactive)
REMARK    1  A    between atoms: C_1  and  C_2
REMARK    2  A    between atoms: C_2  and  C_3
REMARK    3  A    between atoms: C_3  and  N_4
REMARK    4  A    between atoms: N_4  and  C_5
REMARK    5  A    between atoms: N_4  and  C_8
REMARK    6  A    between atoms: C_5  and  C_6
REMARK    7  A    between atoms: C_6  and  C_7
REMARK    8  A    between atoms: C_8  and  C_9
REMARK    9  A    between atoms: C_9  and  C_10
REMARK   10  A    between atoms: C_15  and  O_16
REMARK                            x       y       z     vdW  Elec       q    Type
REMARK                         _______ _______ _______ _____ _____    ______ ____
ROOT
ATOM      1  C   UNL     1       3.061   6.392  18.288  0.00  0.00    +0.000 C 
ENDROOT
BRANCH   1   2
ATOM      2  C   UNL     1       2.288   5.194  18.808  0.00  0.00    +0.000 A 
ATOM      3  C   UNL     1       1.920   4.166  17.925  0.00  0.00    +0.000 A 
ATOM      4  C   UNL     1       1.182   3.066  18.371  0.00  0.00    +0.000 A 
ATOM      5  C   UNL     1       0.819   2.968  19.712  0.00  0.00    +0.000 A 
ATOM      6  C   UNL     1       1.194   3.967  20.608  0.00  0.00    +0.000 A 
ATOM      7  C   UNL     1       1.921   5.071  20.155  0.00  0.00    +0.000 A 
BRANCH   7   8
ATOM      8  O   UNL     1       2.275   6.051  21.039  0.00  0.00    +0.000 OA
ATOM      9  H   UNL     1       1.659   6.031  21.790  0.00  0.00    +0.000 HD
ENDBRANCH   7   8
ENDBRANCH   1   2
BRANCH   1  10
ATOM     10  C   UNL     1       4.227   5.967  17.369  0.00  0.00    +0.000 C 
BRANCH  10  11
ATOM     11  N   UNL     1       5.227   5.040  17.954  0.00  0.00    +0.000 NA
BRANCH  11  12
ATOM     12  C   UNL     1       5.846   4.264  16.859  0.00  0.00    +0.000 C 
BRANCH  12  14
ATOM     13  C   UNL     1       6.643   4.843  14.497  0.00  0.00    +0.000 C 
ATOM     14  C   UNL     1       5.454   4.648  15.424  0.00  0.00    +0.000 C 
ENDBRANCH  12  14
ENDBRANCH  11  12
BRANCH  11  15
ATOM     15  C   UNL     1       6.205   5.716  18.825  0.00  0.00    +0.000 C 
BRANCH  15  16
ATOM     16  C   UNL     1       7.569   6.028  18.194  0.00  0.00    +0.000 C 
ATOM     17  C   UNL     1       7.600   7.429  17.602  0.00  0.00    +0.000 C 
ENDBRANCH  15  16
ENDBRANCH  11  15
ENDBRANCH  10  11
ENDBRANCH   1  10
TORSDOF 8
ENDMDL
MODEL 5
REMARK VINA RESULT:      -5.7      1.897      2.480
REMARK  Name = 
REMARK  10 active torsions:
REMARK  status: ('A' for Active; 'I' for Inactive)
REMARK    1  A    between atoms: C_1  and  C_2
REMARK    2  A    between atoms: C_2  and  C_3
REMARK    3  A    between atoms: C_3  and  N_4
REMARK    4  A    between atoms: N_4  and  C_5
REMARK    5  A    between atoms: N_4  and  C_8
REMARK    6  A    between atoms: C_5  and  C_6
REMARK    7  A    between atoms: C_6  and  C_7
REMARK    8  A    between atoms: C_8  and  C_9
REMARK    9  A    between atoms: C_9  and  C_10
REMARK   10  A    between atoms: C_15  and  O_16
REMARK                            x       y       z     vdW  Elec       q    Type
REMARK                         _______ _______ _______ _____ _____    ______ ____
ROOT
ATOM      1  C   UNL     1       3.717   3.985  17.149  0.00  0.00    +0.000 C 
ENDROOT
BRANCH   1   2
ATOM      2  C   UNL     1       2.819   3.848  18.364  0.00  0.00    +0.000 A 
ATOM      3  C   UNL     1       2.461   4.991  19.099  0.00  0.00    +0.000 A 
ATOM      4  C   UNL     1       1.661   4.890  20.240  0.00  0.00    +0.000 A 
ATOM      5  C   UNL     1       1.189   3.646  20.651  0.00  0.00    +0.000 A 
ATOM      6  C   UNL     1       1.514   2.503  19.924  0.00  0.00    +0.000 A 
ATOM      7  C   UNL     1       2.325   2.608  18.791  0.00  0.00    +0.000 A 
BRANCH   7   8
ATOM      8  O   UNL     1       2.648   1.480  18.089  0.00  0.00    +0.000 OA
ATOM      9  H   UNL     1       3.209   1.731  17.338  0.00  0.00    +0.000 HD
ENDBRANCH   7   8
ENDBRANCH   1   2
BRANCH   1  10
ATOM     10  C   UNL     1       4.357   5.388  17.064  0.00  0.00    +0.000 C 
BRANCH  10  11
ATOM     11  N   UNL     1       5.806   5.474  17.374  0.00  0.00    +0.000 NA
BRANCH  11  12
ATOM     12  C   UNL     1       6.517   4.445  16.587  0.00  0.00    +0.000 C 
BRANCH  12  14
ATOM     13  C   UNL     1       6.150   3.987  14.096  0.00  0.00    +0.000 C 
ATOM     14  C   UNL     1       6.888   4.807  15.140  0.00  0.00    +0.000 C 
ENDBRANCH  12  14
ENDBRANCH  11  12
BRANCH  11  15
ATOM     15  C   UNL     1       6.356   6.832  17.206  0.00  0.00    +0.000 C 
BRANCH  15  16
ATOM     16  C   UNL     1       7.690   7.112  17.912  0.00  0.00    +0.000 C 
ATOM     17  C   UNL     1       8.062   8.585  17.834  0.00  0.00    +0.000 C 
ENDBRANCH  15  16
ENDBRANCH  11  15
ENDBRANCH  10  11
ENDBRANCH   1  10
TORSDOF 8
ENDMDL
MODEL 6
REMARK VINA RESULT:      -5.6      1.476      2.022
REMARK  Name = 
REMARK  10 active torsions:
REMARK  status: ('A' for Active; 'I' for Inactive)
REMARK    1  A    between atoms: C_1  and  C_2
REMARK    2  A    between atoms: C_2  and  C_3
REMARK    3  A    between atoms: C_3  and  N_4
REMARK    4  A    between atoms: N_4  and  C_5
REMARK    5  A    between atoms: N_4  and  C_8
REMARK    6  A    between atoms: C_5  and  C_6
REMARK    7  A    between atoms: C_6  and  C_7
REMARK    8  A    between atoms: C_8  and  C_9
REMARK    9  A    between atoms: C_9  and  C_10
REMARK   10  A    between atoms: C_15  and  O_16
REMARK                            x       y       z     vdW  Elec       q    Type
REMARK                         _______ _______ _______ _____ _____    ______ ____
ROOT
ATOM      1  C   UNL     1       3.683   4.026  17.318  0.00  0.00    +0.000 C 
ENDROOT
BRANCH   1   2
ATOM      2  C   UNL     1       3.014   3.744  18.651  0.00  0.00    +0.000 A 
ATOM      3  C   UNL     1       1.726   4.245  18.904  0.00  0.00    +0.000 A 
ATOM      4  C   UNL     1       1.100   4.026  20.134  0.00  0.00    +0.000 A 
ATOM      5  C   UNL     1       1.743   3.285  21.121  0.00  0.00    +0.000 A 
ATOM      6  C   UNL     1       3.012   2.761  20.882  0.00  0.00    +0.000 A 
ATOM      7  C   UNL     1       3.640   2.993  19.655  0.00  0.00    +0.000 A 
BRANCH   7   8
ATOM      8  O   UNL     1       4.888   2.484  19.433  0.00  0.00    +0.000 OA
ATOM      9  H   UNL     1       5.138   1.931  20.191  0.00  0.00    +0.000 HD
ENDBRANCH   7   8
ENDBRANCH   1   2
BRANCH   1  10
ATOM     10  C   UNL     1       4.755   5.131  17.437  0.00  0.00    +0.000 C 
BRANCH  10  11
ATOM     11  N   UNL     1       6.170   4.682  17.445  0.00  0.00    +0.000 NA
BRANCH  11  12
ATOM     12  C   UNL     1       6.451   3.991  16.170  0.00  0.00    +0.000 C 
BRANCH  12  14
ATOM     13  C   UNL     1       5.860   3.925  13.680  0.00  0.00    +0.000 C 
ATOM     14  C   UNL     1       6.219   4.789  14.877  0.00  0.00    +0.000 C 
ENDBRANCH  12  14
ENDBRANCH  11  12
BRANCH  11  15
ATOM     15  C   UNL     1       7.121   5.765  17.753  0.00  0.00    +0.000 C 
BRANCH  15  16
ATOM     16  C   UNL     1       6.663   7.187  17.396  0.00  0.00    +0.000 C 
ATOM     17  C   UNL     1       7.773   8.201  17.624  0.00  0.00    +0.000 C 
ENDBRANCH  15  16
ENDBRANCH  11  15
ENDBRANCH  10  11
ENDBRANCH   1  10
TORSDOF 8
ENDMDL
MODEL 7
REMARK VINA RESULT:      -5.6      0.514      3.070
REMARK  Name = 
REMARK  10 active torsions:
REMARK  status: ('A' for Active; 'I' for Inactive)
REMARK    1  A    between atoms: C_1  and  C_2
REMARK    2  A    between atoms: C_2  and  C_3
REMARK    3  A    between atoms: C_3  and  N_4
REMARK    4  A    between atoms: N_4  and  C_5
REMARK    5  A    between atoms: N_4  and  C_8
REMARK    6  A    between atoms: C_5  and  C_6
REMARK    7  A    between atoms: C_6  and  C_7
REMARK    8  A    between atoms: C_8  and  C_9
REMARK    9  A    between atoms: C_9  and  C_10
REMARK   10  A    between atoms: C_15  and  O_16
REMARK                            x       y       z     vdW  Elec       q    Type
REMARK                         _______ _______ _______ _____ _____    ______ ____
ROOT
ATOM      1  C   UNL     1       3.798   2.705  17.761  0.00  0.00    +0.000 C 
ENDROOT
BRANCH   1   2
ATOM      2  C   UNL     1       2.951   2.789  19.017  0.00  0.00    +0.000 A 
ATOM      3  C   UNL     1       1.582   3.086  18.917  0.00  0.00    +0.000 A 
ATOM      4  C   UNL     1       0.785   3.200  20.059  0.00  0.00    +0.000 A 
ATOM      5  C   UNL     1       1.342   2.997  21.319  0.00  0.00    +0.000 A 
ATOM      6  C   UNL     1       2.694   2.680  21.439  0.00  0.00    +0.000 A 
ATOM      7  C   UNL     1       3.489   2.580  20.295  0.00  0.00    +0.000 A 
BRANCH   7   8
ATOM      8  O   UNL     1       4.815   2.278  20.423  0.00  0.00    +0.000 OA
ATOM      9  H   UNL     1       4.972   1.934  21.317  0.00  0.00    +0.000 HD
ENDBRANCH   7   8
ENDBRANCH   1   2
BRANCH   1  10
ATOM     10  C   UNL     1       3.599   3.937  16.852  0.00  0.00    +0.000 C 
BRANCH  10  11
ATOM     11  N   UNL     1       4.710   4.921  16.820  0.00  0.00    +0.000 NA
BRANCH  11  12
ATOM     12  C   UNL     1       4.531   5.870  17.938  0.00  0.00    +0.000 C 
BRANCH  12  14
ATOM     13  C   UNL     1       2.585   6.514  19.471  0.00  0.00    +0.000 C 
ATOM     14  C   UNL     1       3.158   6.549  18.064  0.00  0.00    +0.000 C 
ENDBRANCH  12  14
ENDBRANCH  11  12
BRANCH  11  15
ATOM     15  C   UNL     1       6.043   4.290  16.788  0.00  0.00    +0.000 C 
BRANCH  15  16
ATOM     16  C   UNL     1       7.019   4.829  15.733  0.00  0.00    +0.000 C 
ATOM     17  C   UNL     1       6.561   4.484  14.324  0.00  0.00    +0.000 C 
ENDBRANCH  15  16
ENDBRANCH  11  15
ENDBRANCH  10  11
ENDBRANCH   1  10
TORSDOF 8
ENDMDL
MODEL 8
REMARK VINA RESULT:      -5.6      2.138      2.969
REMARK  Name = 
REMARK  10 active torsions:
REMARK  status: ('A' for Active; 'I' for Inactive)
REMARK    1  A    between atoms: C_1  and  C_2
REMARK    2  A    between atoms: C_2  and  C_3
REMARK    3  A    between atoms: C_3  and  N_4
REMARK    4  A    between atoms: N_4  and  C_5
REMARK    5  A    between atoms: N_4  and  C_8
REMARK    6  A    between atoms: C_5  and  C_6
REMARK    7  A    between atoms: C_6  and  C_7
REMARK    8  A    between atoms: C_8  and  C_9
REMARK    9  A    between atoms: C_9  and  C_10
REMARK   10  A    between atoms: C_15  and  O_16
REMARK                            x       y       z     vdW  Elec       q    Type
REMARK                         _______ _______ _______ _____ _____    ______ ____
ROOT
ATOM      1  C   UNL     1       5.144   4.940  19.426  0.00  0.00    +0.000 C 
ENDROOT
BRANCH   1   2
ATOM      2  C   UNL     1       4.018   4.031  18.968  0.00  0.00    +0.000 A 
ATOM      3  C   UNL     1       2.918   4.575  18.282  0.00  0.00    +0.000 A 
ATOM      4  C   UNL     1       1.854   3.766  17.876  0.00  0.00    +0.000 A 
ATOM      5  C   UNL     1       1.883   2.397  18.130  0.00  0.00    +0.000 A 
ATOM      6  C   UNL     1       2.974   1.835  18.789  0.00  0.00    +0.000 A 
ATOM      7  C   UNL     1       4.030   2.650  19.205  0.00  0.00    +0.000 A 
BRANCH   7   8
ATOM      8  O   UNL     1       5.092   2.091  19.859  0.00  0.00    +0.000 OA
ATOM      9  H   UNL     1       5.655   1.640  19.210  0.00  0.00    +0.000 HD
ENDBRANCH   7   8
ENDBRANCH   1   2
BRANCH   1  10
ATOM     10  C   UNL     1       5.617   5.880  18.296  0.00  0.00    +0.000 C 
BRANCH  10  11
ATOM     11  N   UNL     1       7.026   5.726  17.855  0.00  0.00    +0.000 NA
BRANCH  11  12
ATOM     12  C   UNL     1       7.038   5.485  16.397  0.00  0.00    +0.000 C 
BRANCH  12  14
ATOM     13  C   UNL     1       5.783   4.317  14.496  0.00  0.00    +0.000 C 
ATOM     14  C   UNL     1       6.362   4.198  15.896  0.00  0.00    +0.000 C 
ENDBRANCH  12  14
ENDBRANCH  11  12
BRANCH  11  15
ATOM     15  C   UNL     1       7.892   6.842  18.276  0.00  0.00    +0.000 C 
BRANCH  15  16
ATOM     16  C   UNL     1       7.655   8.184  17.569  0.00  0.00    +0.000 C 
ATOM     17  C   UNL     1       8.476   9.298  18.202  0.00  0.00    +0.000 C 
ENDBRANCH  15  16
ENDBRANCH  11  15
ENDBRANCH  10  11
ENDBRANCH   1  10
TORSDOF 8
ENDMDL
MODEL 9
REMARK VINA RESULT:      -5.6      2.001      2.830
REMARK  Name = 
REMARK  10 active torsions:
REMARK  status: ('A' for Active; 'I' for Inactive)
REMARK    1  A    between atoms: C_1  and  C_2
REMARK    2  A    between atoms: C_2  and  C_3
REMARK    3  A    between atoms: C_3  and  N_4
REMARK    4  A    between atoms: N_4  and  C_5
REMARK    5  A    between atoms: N_4  and  C_8
REMARK    6  A    between atoms: C_5  and  C_6
REMARK    7  A    between atoms: C_6  and  C_7
REMARK    8  A    between atoms: C_8  and  C_9
REMARK    9  A    between atoms: C_9  and  C_10
REMARK   10  A    between atoms: C_15  and  O_16
REMARK                            x       y       z     vdW  Elec       q    Type
REMARK                         _______ _______ _______ _____ _____    ______ ____
ROOT
ATOM      1  C   UNL     1       3.988   5.248  17.494  0.00  0.00    +0.000 C 
ENDROOT
BRANCH   1   2
ATOM      2  C   UNL     1       2.965   4.803  18.522  0.00  0.00    +0.000 A 
ATOM      3  C   UNL     1       2.956   5.392  19.797  0.00  0.00    +0.000 A 
ATOM      4  C   UNL     1       2.045   4.980  20.773  0.00  0.00    +0.000 A 
ATOM      5  C   UNL     1       1.113   3.988  20.481  0.00  0.00    +0.000 A 
ATOM      6  C   UNL     1       1.091   3.406  19.215  0.00  0.00    +0.000 A 
ATOM      7  C   UNL     1       2.012   3.812  18.246  0.00  0.00    +0.000 A 
BRANCH   7   8
ATOM      8  O   UNL     1       1.989   3.229  17.011  0.00  0.00    +0.000 OA
ATOM      9  H   UNL     1       2.165   2.280  17.111  0.00  0.00    +0.000 HD
ENDBRANCH   7   8
ENDBRANCH   1   2
BRANCH   1  10
ATOM     10  C   UNL     1       5.087   4.184  17.281  0.00  0.00    +0.000 C 
BRANCH  10  11
ATOM     11  N   UNL     1       6.415   4.682  16.843  0.00  0.00    +0.000 NA
BRANCH  11  12
ATOM     12  C   UNL     1       6.726   4.095  15.524  0.00  0.00    +0.000 C 
BRANCH  12  14
ATOM     13  C   UNL     1       6.069   3.659  13.088  0.00  0.00    +0.000 C 
ATOM     14  C   UNL     1       5.754   4.405  14.374  0.00  0.00    +0.000 C 
ENDBRANCH  12  14
ENDBRANCH  11  12
BRANCH  11  15
ATOM     15  C   UNL     1       6.521   6.153  16.875  0.00  0.00    +0.000 C 
BRANCH  15  16
ATOM     16  C   UNL     1       7.470   6.738  17.931  0.00  0.00    +0.000 C 
ATOM     17  C   UNL     1       7.798   8.194  17.637  0.00  0.00    +0.000 C 
ENDBRANCH  15  16
ENDBRANCH  11  15
ENDBRANCH  10  11
ENDBRANCH   1  10
TORSDOF 8
ENDMDL
