MODEL 1
REMARK VINA RESULT:      -7.7      0.000      0.000
REMARK  Name = 
REMARK  13 active torsions:
REMARK  status: ('A' for Active; 'I' for Inactive)
REMARK    1  A    between atoms: C_2  and  C_22
REMARK    2  A    between atoms: N_3  and  C_4
REMARK    3  A    between atoms: C_4  and  C_5
REMARK    4  A    between atoms: C_4  and  C_7
REMARK    5  A    between atoms: C_5  and  O_6
REMARK    6  A    between atoms: C_7  and  C_8
REMARK    7  A    between atoms: C_8  and  C_9
REMARK    8  A    between atoms: C_9  and  C_10
REMARK    9  A    between atoms: C_10  and  N_11
REMARK   10  A    between atoms: C_12  and  C_14
REMARK   11  A    between atoms: C_18  and  O_19
REMARK   12  A    between atoms: C_20  and  O_21
REMARK   13  A    between atoms: C_26  and  O_27
REMARK                            x       y       z     vdW  Elec       q    Type
REMARK                         _______ _______ _______ _____ _____    ______ ____
ROOT
ATOM      1  C   UNK A   1       2.441   4.915  18.342  0.00  0.00    +0.000 C 
ENDROOT
BRANCH   1   2
ATOM      2  C   UNK A   1       3.838   4.258  18.335  0.00  0.00    +0.000 C 
BRANCH   2   5
ATOM      3  O   UNK A   0       6.638   4.493  17.630  0.00  0.00    +0.000 OA
ATOM      4  C   UNK A   0       5.796   4.394  16.745  0.00  0.00    +0.000 C 
ATOM      5  N   UNK A   1       4.450   4.245  16.998  0.00  0.00    +0.000 N 
ATOM      6  H   UNK A   1       3.831   4.077  16.216  0.00  0.00    +0.000 HD
BRANCH   4   7
ATOM      7  C   UNK A   0       6.200   4.431  15.309  0.00  0.00    +0.000 A 
ATOM      8  C   UNK A   0       5.494   3.643  14.390  0.00  0.00    +0.000 A 
ATOM      9  C   UNK A   0       5.865   3.630  13.040  0.00  0.00    +0.000 A 
ATOM     10  C   UNK A   0       6.951   4.390  12.605  0.00  0.00    +0.000 A 
ATOM     11  C   UNK A   0       7.658   5.159  13.526  0.00  0.00    +0.000 A 
ATOM     12  C   UNK A   0       7.295   5.187  14.872  0.00  0.00    +0.000 A 
BRANCH  11  13
ATOM     13  O   UNK A   0       8.738   5.900  13.142  0.00  0.00    +0.000 OA
ATOM     14  H   UNK A   0       9.513   5.610  13.652  0.00  0.00    +0.000 HD
ENDBRANCH  11  13
ENDBRANCH   4   7
ENDBRANCH   2   5
BRANCH   2  15
ATOM     15  C   UNK A   1       3.859   2.863  19.000  0.00  0.00    +0.000 C 
BRANCH  15  16
ATOM     16  O   UNK A   1       5.088   2.573  19.654  0.00  0.00    +0.000 OA
ATOM     17  H   UNK A   1       5.264   1.613  19.528  0.00  0.00    +0.000 HD
ENDBRANCH  15  16
ENDBRANCH   2  15
ENDBRANCH   1   2
BRANCH   1  18
ATOM     18  C   UNK A   1       2.493   6.343  18.897  0.00  0.00    +0.000 C 
BRANCH  18  19
ATOM     19  C   UNK A   1       3.191   7.317  17.950  0.00  0.00    +0.000 C 
BRANCH  19  20
ATOM     20  C   UNK A   1       2.306   8.534  17.694  0.00  0.00    +0.000 C 
BRANCH  20  21
ATOM     21  N   UNK A   1       1.731   9.048  18.911  0.00  0.00    +0.000 N 
ATOM     22  C   UNK A   1       0.526   9.708  18.928  0.00  0.00    +0.000 C 
ATOM     23  O   UNK A   1      -0.152   9.880  17.919  0.00  0.00    +0.000 OA
ATOM     24  H   UNK A   1       2.230   8.952  19.794  0.00  0.00    +0.000 HD
BRANCH  22  25
ATOM     25  C   UNK A   1       0.057  10.223  20.251  0.00  0.00    +0.000 A 
ATOM     26  C   UNK A   1      -0.750  11.374  20.250  0.00  0.00    +0.000 A 
ATOM     27  C   UNK A   1      -1.223  11.923  21.447  0.00  0.00    +0.000 A 
ATOM     28  C   UNK A   1      -0.895  11.335  22.667  0.00  0.00    +0.000 A 
ATOM     29  C   UNK A   1      -0.099  10.197  22.673  0.00  0.00    +0.000 A 
ATOM     30  C   UNK A   1       0.374   9.639  21.480  0.00  0.00    +0.000 A 
BRANCH  29  31
ATOM     31  O   UNK A   1       0.258   9.574  23.839  0.00  0.00    +0.000 OA
ATOM     32  H   UNK A   1       1.229   9.625  23.926  0.00  0.00    +0.000 HD
ENDBRANCH  29  31
BRANCH  30  33
ATOM     33  O   UNK A   1       1.148   8.508  21.582  0.00  0.00    +0.000 OA
ATOM     34  H   UNK A   1       1.774   8.572  20.829  0.00  0.00    +0.000 HD
ENDBRANCH  30  33
ENDBRANCH  22  25
ENDBRANCH  20  21
ENDBRANCH  19  20
ENDBRANCH  18  19
ENDBRANCH   1  18
TORSDOF 13
ENDMDL
MODEL 2
REMARK VINA RESULT:      -7.6      2.962      4.082
REMARK  Name = 
REMARK  13 active torsions:
REMARK  status: ('A' for Active; 'I' for Inactive)
REMARK    1  A    between atoms: C_2  and  C_22
REMARK    2  A    between atoms: N_3  and  C_4
REMARK    3  A    between atoms: C_4  and  C_5
REMARK    4  A    between atoms: C_4  and  C_7
REMARK    5  A    between atoms: C_5  and  O_6
REMARK    6  A    between atoms: C_7  and  C_8
REMARK    7  A    between atoms: C_8  and  C_9
REMARK    8  A    between atoms: C_9  and  C_10
REMARK    9  A    between atoms: C_10  and  N_11
REMARK   10  A    between atoms: C_12  and  C_14
REMARK   11  A    between atoms: C_18  and  O_19
REMARK   12  A    between atoms: C_20  and  O_21
REMARK   13  A    between atoms: C_26  and  O_27
REMARK                            x       y       z     vdW  Elec       q    Type
REMARK                         _______ _______ _______ _____ _____    ______ ____
ROOT
ATOM      1  C   UNK A   1       3.059   2.213  20.025  0.00  0.00    +0.000 C 
ENDROOT
BRANCH   1   2
ATOM      2  C   UNK A   1       3.531   2.446  18.573  0.00  0.00    +0.000 C 
BRANCH   2   5
ATOM      3  O   UNK A   0       5.152   3.282  16.323  0.00  0.00    +0.000 OA
ATOM      4  C   UNK A   0       5.117   3.973  17.334  0.00  0.00    +0.000 C 
ATOM      5  N   UNK A   1       4.346   3.663  18.433  0.00  0.00    +0.000 N 
ATOM      6  H   UNK A   1       4.300   4.331  19.190  0.00  0.00    +0.000 HD
BRANCH   4   7
ATOM      7  C   UNK A   0       5.931   5.220  17.427  0.00  0.00    +0.000 A 
ATOM      8  C   UNK A   0       5.730   6.228  16.474  0.00  0.00    +0.000 A 
ATOM      9  C   UNK A   0       6.497   7.398  16.512  0.00  0.00    +0.000 A 
ATOM     10  C   UNK A   0       7.478   7.560  17.491  0.00  0.00    +0.000 A 
ATOM     11  C   UNK A   0       7.683   6.549  18.426  0.00  0.00    +0.000 A 
ATOM     12  C   UNK A   0       6.921   5.382  18.404  0.00  0.00    +0.000 A 
BRANCH  11  13
ATOM     13  O   UNK A   0       8.646   6.663  19.386  0.00  0.00    +0.000 OA
ATOM     14  H   UNK A   0       8.680   7.587  19.686  0.00  0.00    +0.000 HD
ENDBRANCH  11  13
ENDBRANCH   4   7
ENDBRANCH   2   5
BRANCH   2  15
ATOM     15  C   UNK A   1       2.380   2.392  17.542  0.00  0.00    +0.000 C 
BRANCH  15  16
ATOM     16  O   UNK A   1       1.849   3.674  17.228  0.00  0.00    +0.000 OA
ATOM     17  H   UNK A   1       2.243   4.314  17.863  0.00  0.00    +0.000 HD
ENDBRANCH  15  16
ENDBRANCH   2  15
ENDBRANCH   1   2
BRANCH   1  18
ATOM     18  C   UNK A   1       1.532   2.277  20.137  0.00  0.00    +0.000 C 
BRANCH  18  19
ATOM     19  C   UNK A   1       1.046   3.542  20.841  0.00  0.00    +0.000 C 
BRANCH  19  20
ATOM     20  C   UNK A   1       2.224   4.461  21.155  0.00  0.00    +0.000 C 
BRANCH  20  21
ATOM     21  N   UNK A   1       1.894   5.848  20.943  0.00  0.00    +0.000 N 
ATOM     22  C   UNK A   1       2.163   6.489  19.758  0.00  0.00    +0.000 C 
ATOM     23  O   UNK A   1       2.672   5.923  18.796  0.00  0.00    +0.000 OA
ATOM     24  H   UNK A   1       1.472   6.395  21.692  0.00  0.00    +0.000 HD
BRANCH  22  25
ATOM     25  C   UNK A   1       1.804   7.939  19.678  0.00  0.00    +0.000 A 
ATOM     26  C   UNK A   1       1.125   8.501  20.773  0.00  0.00    +0.000 A 
ATOM     27  C   UNK A   1       0.748   9.848  20.772  0.00  0.00    +0.000 A 
ATOM     28  C   UNK A   1       1.039  10.658  19.676  0.00  0.00    +0.000 A 
ATOM     29  C   UNK A   1       1.711  10.107  18.592  0.00  0.00    +0.000 A 
ATOM     30  C   UNK A   1       2.096   8.763  18.587  0.00  0.00    +0.000 A 
BRANCH  29  31
ATOM     31  O   UNK A   1       2.026  10.852  17.486  0.00  0.00    +0.000 OA
ATOM     32  H   UNK A   1       2.016  11.794  17.741  0.00  0.00    +0.000 HD
ENDBRANCH  29  31
BRANCH  30  33
ATOM     33  O   UNK A   1       2.764   8.307  17.477  0.00  0.00    +0.000 OA
ATOM     34  H   UNK A   1       2.997   7.379  17.695  0.00  0.00    +0.000 HD
ENDBRANCH  30  33
ENDBRANCH  22  25
ENDBRANCH  20  21
ENDBRANCH  19  20
ENDBRANCH  18  19
ENDBRANCH   1  18
TORSDOF 13
ENDMDL
MODEL 3
REMARK VINA RESULT:      -7.5      5.714      8.495
REMARK  Name = 
REMARK  13 active torsions:
REMARK  status: ('A' for Active; 'I' for Inactive)
REMARK    1  A    between atoms: C_2  and  C_22
REMARK    2  A    between atoms: N_3  and  C_4
REMARK    3  A    between atoms: C_4  and  C_5
REMARK    4  A    between atoms: C_4  and  C_7
REMARK    5  A    between atoms: C_5  and  O_6
REMARK    6  A    between atoms: C_7  and  C_8
REMARK    7  A    between atoms: C_8  and  C_9
REMARK    8  A    between atoms: C_9  and  C_10
REMARK    9  A    between atoms: C_10  and  N_11
REMARK   10  A    between atoms: C_12  and  C_14
REMARK   11  A    between atoms: C_18  and  O_19
REMARK   12  A    between atoms: C_20  and  O_21
REMARK   13  A    between atoms: C_26  and  O_27
REMARK                            x       y       z     vdW  Elec       q    Type
REMARK                         _______ _______ _______ _____ _____    ______ ____
ROOT
ATOM      1  C   UNK A   1       5.952   6.658  16.762  0.00  0.00    +0.000 C 
ENDROOT
BRANCH   1   2
ATOM      2  C   UNK A   1       5.404   5.303  16.264  0.00  0.00    +0.000 C 
BRANCH   2   5
ATOM      3  O   UNK A   0       5.541   3.895  18.792  0.00  0.00    +0.000 OA
ATOM      4  C   UNK A   0       4.451   4.111  18.276  0.00  0.00    +0.000 C 
ATOM      5  N   UNK A   1       4.299   4.802  17.094  0.00  0.00    +0.000 N 
ATOM      6  H   UNK A   1       3.361   5.019  16.783  0.00  0.00    +0.000 HD
BRANCH   4   7
ATOM      7  C   UNK A   0       3.198   3.620  18.924  0.00  0.00    +0.000 A 
ATOM      8  C   UNK A   0       2.078   3.371  18.120  0.00  0.00    +0.000 A 
ATOM      9  C   UNK A   0       0.878   2.939  18.697  0.00  0.00    +0.000 A 
ATOM     10  C   UNK A   0       0.787   2.770  20.078  0.00  0.00    +0.000 A 
ATOM     11  C   UNK A   0       1.899   3.033  20.873  0.00  0.00    +0.000 A 
ATOM     12  C   UNK A   0       3.103   3.456  20.311  0.00  0.00    +0.000 A 
BRANCH  11  13
ATOM     13  O   UNK A   0       1.842   2.898  22.230  0.00  0.00    +0.000 OA
ATOM     14  H   UNK A   0       2.723   3.077  22.599  0.00  0.00    +0.000 HD
ENDBRANCH  11  13
ENDBRANCH   4   7
ENDBRANCH   2   5
BRANCH   2  15
ATOM     15  C   UNK A   1       6.506   4.240  16.055  0.00  0.00    +0.000 C 
BRANCH  15  16
ATOM     16  O   UNK A   1       6.563   3.747  14.721  0.00  0.00    +0.000 OA
ATOM     17  H   UNK A   1       5.648   3.492  14.467  0.00  0.00    +0.000 HD
ENDBRANCH  15  16
ENDBRANCH   2  15
ENDBRANCH   1   2
BRANCH   1  18
ATOM     18  C   UNK A   1       7.134   6.469  17.720  0.00  0.00    +0.000 C 
BRANCH  18  19
ATOM     19  C   UNK A   1       8.169   7.586  17.607  0.00  0.00    +0.000 C 
BRANCH  19  20
ATOM     20  C   UNK A   1       7.510   8.944  17.831  0.00  0.00    +0.000 C 
BRANCH  20  21
ATOM     21  N   UNK A   1       8.452  10.027  17.697  0.00  0.00    +0.000 N 
ATOM     22  C   UNK A   1       9.166  10.510  18.767  0.00  0.00    +0.000 C 
ATOM     23  O   UNK A   1       9.070  10.039  19.897  0.00  0.00    +0.000 OA
ATOM     24  H   UNK A   1       8.590  10.478  16.795  0.00  0.00    +0.000 HD
BRANCH  22  25
ATOM     25  C   UNK A   1      10.084  11.660  18.503  0.00  0.00    +0.000 A 
ATOM     26  C   UNK A   1      11.382  11.591  19.040  0.00  0.00    +0.000 A 
ATOM     27  C   UNK A   1      12.298  12.630  18.844  0.00  0.00    +0.000 A 
ATOM     28  C   UNK A   1      11.935  13.758  18.111  0.00  0.00    +0.000 A 
ATOM     29  C   UNK A   1      10.655  13.830  17.578  0.00  0.00    +0.000 A 
ATOM     30  C   UNK A   1       9.734  12.794  17.765  0.00  0.00    +0.000 A 
BRANCH  29  31
ATOM     31  O   UNK A   1      10.238  14.913  16.849  0.00  0.00    +0.000 OA
ATOM     32  H   UNK A   1       9.589  14.603  16.189  0.00  0.00    +0.000 HD
ENDBRANCH  29  31
BRANCH  30  33
ATOM     33  O   UNK A   1       8.494  12.947  17.194  0.00  0.00    +0.000 OA
ATOM     34  H   UNK A   1       7.906  12.370  17.726  0.00  0.00    +0.000 HD
ENDBRANCH  30  33
ENDBRANCH  22  25
ENDBRANCH  20  21
ENDBRANCH  19  20
ENDBRANCH  18  19
ENDBRANCH   1  18
TORSDOF 13
ENDMDL
MODEL 4
REMARK VINA RESULT:      -7.5      2.258      3.169
REMARK  Name = 
REMARK  13 active torsions:
REMARK  status: ('A' for Active; 'I' for Inactive)
REMARK    1  A    between atoms: C_2  and  C_22
REMARK    2  A    between atoms: N_3  and  C_4
REMARK    3  A    between atoms: C_4  and  C_5
REMARK    4  A    between atoms: C_4  and  C_7
REMARK    5  A    between atoms: C_5  and  O_6
REMARK    6  A    between atoms: C_7  and  C_8
REMARK    7  A    between atoms: C_8  and  C_9
REMARK    8  A    between atoms: C_9  and  C_10
REMARK    9  A    between atoms: C_10  and  N_11
REMARK   10  A    between atoms: C_12  and  C_14
REMARK   11  A    between atoms: C_18  and  O_19
REMARK   12  A    between atoms: C_20  and  O_21
REMARK   13  A    between atoms: C_26  and  O_27
REMARK                            x       y       z     vdW  Elec       q    Type
REMARK                         _______ _______ _______ _____ _____    ______ ____
ROOT
ATOM      1  C   UNK A   1       2.916   2.661  20.816  0.00  0.00    +0.000 C 
ENDROOT
BRANCH   1   2
ATOM      2  C   UNK A   1       4.401   2.558  20.405  0.00  0.00    +0.000 C 
BRANCH   2   5
ATOM      3  O   UNK A   0       6.024   4.856  19.714  0.00  0.00    +0.000 OA
ATOM      4  C   UNK A   0       5.424   4.250  18.833  0.00  0.00    +0.000 C 
ATOM      5  N   UNK A   1       4.660   3.130  19.075  0.00  0.00    +0.000 N 
ATOM      6  H   UNK A   1       4.274   2.633  18.283  0.00  0.00    +0.000 HD
BRANCH   4   7
ATOM      7  C   UNK A   0       5.496   4.711  17.416  0.00  0.00    +0.000 A 
ATOM      8  C   UNK A   0       5.149   6.035  17.120  0.00  0.00    +0.000 A 
ATOM      9  C   UNK A   0       5.176   6.494  15.797  0.00  0.00    +0.000 A 
ATOM     10  C   UNK A   0       5.534   5.628  14.764  0.00  0.00    +0.000 A 
ATOM     11  C   UNK A   0       5.864   4.308  15.063  0.00  0.00    +0.000 A 
ATOM     12  C   UNK A   0       5.848   3.841  16.376  0.00  0.00    +0.000 A 
BRANCH  11  13
ATOM     13  O   UNK A   0       6.200   3.426  14.077  0.00  0.00    +0.000 OA
ATOM     14  H   UNK A   0       5.532   2.721  14.047  0.00  0.00    +0.000 HD
ENDBRANCH  11  13
ENDBRANCH   4   7
ENDBRANCH   2   5
BRANCH   2  15
ATOM     15  C   UNK A   1       4.976   1.130  20.549  0.00  0.00    +0.000 C 
BRANCH  15  16
ATOM     16  O   UNK A   1       4.880   0.365  19.353  0.00  0.00    +0.000 OA
ATOM     17  H   UNK A   1       4.611   0.982  18.636  0.00  0.00    +0.000 HD
ENDBRANCH  15  16
ENDBRANCH   2  15
ENDBRANCH   1   2
BRANCH   1  18
ATOM     18  C   UNK A   1       2.084   3.373  19.743  0.00  0.00    +0.000 C 
BRANCH  18  19
ATOM     19  C   UNK A   1       1.423   4.648  20.261  0.00  0.00    +0.000 C 
BRANCH  19  20
ATOM     20  C   UNK A   1       2.443   5.781  20.340  0.00  0.00    +0.000 C 
BRANCH  20  21
ATOM     21  N   UNK A   1       1.807   7.071  20.437  0.00  0.00    +0.000 N 
ATOM     22  C   UNK A   1       1.925   8.019  19.450  0.00  0.00    +0.000 C 
ATOM     23  O   UNK A   1       2.553   7.825  18.413  0.00  0.00    +0.000 OA
ATOM     24  H   UNK A   1       1.270   7.316  21.267  0.00  0.00    +0.000 HD
BRANCH  22  25
ATOM     25  C   UNK A   1       1.247   9.330  19.688  0.00  0.00    +0.000 A 
ATOM     26  C   UNK A   1       0.665   9.540  20.950  0.00  0.00    +0.000 A 
ATOM     27  C   UNK A   1       0.005  10.737  21.249  0.00  0.00    +0.000 A 
ATOM     28  C   UNK A   1      -0.090  11.745  20.291  0.00  0.00    +0.000 A 
ATOM     29  C   UNK A   1       0.485  11.542  19.042  0.00  0.00    +0.000 A 
ATOM     30  C   UNK A   1       1.151  10.350  18.738  0.00  0.00    +0.000 A 
BRANCH  29  31
ATOM     31  O   UNK A   1       0.425  12.494  18.059  0.00  0.00    +0.000 OA
ATOM     32  H   UNK A   1      -0.496  12.545  17.741  0.00  0.00    +0.000 HD
ENDBRANCH  29  31
BRANCH  30  33
ATOM     33  O   UNK A   1       1.695  10.241  17.481  0.00  0.00    +0.000 OA
ATOM     34  H   UNK A   1       1.321  11.001  16.986  0.00  0.00    +0.000 HD
ENDBRANCH  30  33
ENDBRANCH  22  25
ENDBRANCH  20  21
ENDBRANCH  19  20
ENDBRANCH  18  19
ENDBRANCH   1  18
TORSDOF 13
ENDMDL
MODEL 5
REMARK VINA RESULT:      -7.4      3.011      9.384
REMARK  Name = 
REMARK  13 active torsions:
REMARK  status: ('A' for Active; 'I' for Inactive)
REMARK    1  A    between atoms: C_2  and  C_22
REMARK    2  A    between atoms: N_3  and  C_4
REMARK    3  A    between atoms: C_4  and  C_5
REMARK    4  A    between atoms: C_4  and  C_7
REMARK    5  A    between atoms: C_5  and  O_6
REMARK    6  A    between atoms: C_7  and  C_8
REMARK    7  A    between atoms: C_8  and  C_9
REMARK    8  A    between atoms: C_9  and  C_10
REMARK    9  A    between atoms: C_10  and  N_11
REMARK   10  A    between atoms: C_12  and  C_14
REMARK   11  A    between atoms: C_18  and  O_19
REMARK   12  A    between atoms: C_20  and  O_21
REMARK   13  A    between atoms: C_26  and  O_27
REMARK                            x       y       z     vdW  Elec       q    Type
REMARK                         _______ _______ _______ _____ _____    ______ ____
ROOT
ATOM      1  C   UNK A   1       1.410   8.904  20.246  0.00  0.00    +0.000 C 
ENDROOT
BRANCH   1   2
ATOM      2  C   UNK A   1       0.388  10.052  20.399  0.00  0.00    +0.000 C 
BRANCH   2   5
ATOM      3  O   UNK A   0      -1.893  11.804  20.057  0.00  0.00    +0.000 OA
ATOM      4  C   UNK A   0      -1.620  10.988  19.185  0.00  0.00    +0.000 C 
ATOM      5  N   UNK A   1      -0.534  10.143  19.257  0.00  0.00    +0.000 N 
ATOM      6  H   UNK A   1      -0.324   9.564  18.455  0.00  0.00    +0.000 HD
BRANCH   4   7
ATOM      7  C   UNK A   0      -2.476  10.867  17.968  0.00  0.00    +0.000 A 
ATOM      8  C   UNK A   0      -1.932  10.279  16.819  0.00  0.00    +0.000 A 
ATOM      9  C   UNK A   0      -2.696  10.175  15.650  0.00  0.00    +0.000 A 
ATOM     10  C   UNK A   0      -3.998  10.672  15.620  0.00  0.00    +0.000 A 
ATOM     11  C   UNK A   0      -4.528  11.269  16.761  0.00  0.00    +0.000 A 
ATOM     12  C   UNK A   0      -3.781  11.372  17.933  0.00  0.00    +0.000 A 
BRANCH  11  13
ATOM     13  O   UNK A   0      -5.792  11.784  16.764  0.00  0.00    +0.000 OA
ATOM     14  H   UNK A   0      -6.424  11.063  16.920  0.00  0.00    +0.000 HD
ENDBRANCH  11  13
ENDBRANCH   4   7
ENDBRANCH   2   5
BRANCH   2  15
ATOM     15  C   UNK A   1       1.044  11.412  20.729  0.00  0.00    +0.000 C 
BRANCH  15  16
ATOM     16  O   UNK A   1       0.439  12.072  21.835  0.00  0.00    +0.000 OA
ATOM     17  H   UNK A   1      -0.476  11.721  21.916  0.00  0.00    +0.000 HD
ENDBRANCH  15  16
ENDBRANCH   2  15
ENDBRANCH   1   2
BRANCH   1  18
ATOM     18  C   UNK A   1       1.394   8.323  18.828  0.00  0.00    +0.000 C 
BRANCH  18  19
ATOM     19  C   UNK A   1       2.365   9.036  17.889  0.00  0.00    +0.000 C 
BRANCH  19  20
ATOM     20  C   UNK A   1       3.439   8.068  17.400  0.00  0.00    +0.000 C 
BRANCH  20  21
ATOM     21  N   UNK A   1       3.217   6.729  17.884  0.00  0.00    +0.000 N 
ATOM     22  C   UNK A   1       3.917   5.652  17.397  0.00  0.00    +0.000 C 
ATOM     23  O   UNK A   1       4.792   5.758  16.542  0.00  0.00    +0.000 OA
ATOM     24  H   UNK A   1       2.505   6.551  18.590  0.00  0.00    +0.000 HD
BRANCH  22  25
ATOM     25  C   UNK A   1       3.567   4.310  17.956  0.00  0.00    +0.000 A 
ATOM     26  C   UNK A   1       2.261   3.838  17.741  0.00  0.00    +0.000 A 
ATOM     27  C   UNK A   1       1.853   2.595  18.240  0.00  0.00    +0.000 A 
ATOM     28  C   UNK A   1       2.741   1.804  18.966  0.00  0.00    +0.000 A 
ATOM     29  C   UNK A   1       4.033   2.267  19.180  0.00  0.00    +0.000 A 
ATOM     30  C   UNK A   1       4.450   3.505  18.681  0.00  0.00    +0.000 A 
BRANCH  29  31
ATOM     31  O   UNK A   1       4.952   1.535  19.886  0.00  0.00    +0.000 OA
ATOM     32  H   UNK A   1       4.975   0.634  19.512  0.00  0.00    +0.000 HD
ENDBRANCH  29  31
BRANCH  30  33
ATOM     33  O   UNK A   1       5.748   3.877  18.934  0.00  0.00    +0.000 OA
ATOM     34  H   UNK A   1       5.893   4.662  18.365  0.00  0.00    +0.000 HD
ENDBRANCH  30  33
ENDBRANCH  22  25
ENDBRANCH  20  21
ENDBRANCH  19  20
ENDBRANCH  18  19
ENDBRANCH   1  18
TORSDOF 13
ENDMDL
MODEL 6
REMARK VINA RESULT:      -7.4      4.754      7.275
REMARK  Name = 
REMARK  13 active torsions:
REMARK  status: ('A' for Active; 'I' for Inactive)
REMARK    1  A    between atoms: C_2  and  C_22
REMARK    2  A    between atoms: N_3  and  C_4
REMARK    3  A    between atoms: C_4  and  C_5
REMARK    4  A    between atoms: C_4  and  C_7
REMARK    5  A    between atoms: C_5  and  O_6
REMARK    6  A    between atoms: C_7  and  C_8
REMARK    7  A    between atoms: C_8  and  C_9
REMARK    8  A    between atoms: C_9  and  C_10
REMARK    9  A    between atoms: C_10  and  N_11
REMARK   10  A    between atoms: C_12  and  C_14
REMARK   11  A    between atoms: C_18  and  O_19
REMARK   12  A    between atoms: C_20  and  O_21
REMARK   13  A    between atoms: C_26  and  O_27
REMARK                            x       y       z     vdW  Elec       q    Type
REMARK                         _______ _______ _______ _____ _____    ______ ____
ROOT
ATOM      1  C   UNK A   1       7.740   6.566  16.754  0.00  0.00    +0.000 C 
ENDROOT
BRANCH   1   2
ATOM      2  C   UNK A   1       7.574   6.883  18.256  0.00  0.00    +0.000 C 
BRANCH   2   5
ATOM      3  O   UNK A   0       7.386   9.660  17.454  0.00  0.00    +0.000 OA
ATOM      4  C   UNK A   0       8.265   9.312  18.233  0.00  0.00    +0.000 C 
ATOM      5  N   UNK A   1       8.401   8.019  18.688  0.00  0.00    +0.000 N 
ATOM      6  H   UNK A   1       9.094   7.832  19.401  0.00  0.00    +0.000 HD
BRANCH   4   7
ATOM      7  C   UNK A   0       9.260  10.302  18.741  0.00  0.00    +0.000 A 
ATOM      8  C   UNK A   0      10.264  10.754  17.874  0.00  0.00    +0.000 A 
ATOM      9  C   UNK A   0      11.231  11.659  18.324  0.00  0.00    +0.000 A 
ATOM     10  C   UNK A   0      11.211  12.105  19.645  0.00  0.00    +0.000 A 
ATOM     11  C   UNK A   0      10.220  11.641  20.507  0.00  0.00    +0.000 A 
ATOM     12  C   UNK A   0       9.246  10.745  20.069  0.00  0.00    +0.000 A 
BRANCH  11  13
ATOM     13  O   UNK A   0      10.179  12.039  21.812  0.00  0.00    +0.000 OA
ATOM     14  H   UNK A   0      10.934  12.626  21.984  0.00  0.00    +0.000 HD
ENDBRANCH  11  13
ENDBRANCH   4   7
ENDBRANCH   2   5
BRANCH   2  15
ATOM     15  C   UNK A   1       7.760   5.646  19.164  0.00  0.00    +0.000 C 
BRANCH  15  16
ATOM     16  O   UNK A   1       7.942   4.438  18.434  0.00  0.00    +0.000 OA
ATOM     17  H   UNK A   1       8.770   4.536  17.914  0.00  0.00    +0.000 HD
ENDBRANCH  15  16
ENDBRANCH   2  15
ENDBRANCH   1   2
BRANCH   1  18
ATOM     18  C   UNK A   1       6.396   6.230  16.098  0.00  0.00    +0.000 C 
BRANCH  18  19
ATOM     19  C   UNK A   1       6.462   4.976  15.229  0.00  0.00    +0.000 C 
BRANCH  19  20
ATOM     20  C   UNK A   1       5.690   3.834  15.884  0.00  0.00    +0.000 C 
BRANCH  20  21
ATOM     21  N   UNK A   1       4.929   4.283  17.023  0.00  0.00    +0.000 N 
ATOM     22  C   UNK A   1       4.080   3.447  17.708  0.00  0.00    +0.000 C 
ATOM     23  O   UNK A   1       3.934   2.264  17.418  0.00  0.00    +0.000 OA
ATOM     24  H   UNK A   1       4.988   5.252  17.329  0.00  0.00    +0.000 HD
BRANCH  22  25
ATOM     25  C   UNK A   1       3.321   4.044  18.849  0.00  0.00    +0.000 A 
ATOM     26  C   UNK A   1       2.849   5.360  18.698  0.00  0.00    +0.000 A 
ATOM     27  C   UNK A   1       2.137   5.992  19.722  0.00  0.00    +0.000 A 
ATOM     28  C   UNK A   1       1.886   5.324  20.920  0.00  0.00    +0.000 A 
ATOM     29  C   UNK A   1       2.349   4.024  21.074  0.00  0.00    +0.000 A 
ATOM     30  C   UNK A   1       3.058   3.383  20.052  0.00  0.00    +0.000 A 
BRANCH  29  31
ATOM     31  O   UNK A   1       2.135   3.315  22.226  0.00  0.00    +0.000 OA
ATOM     32  H   UNK A   1       2.878   2.692  22.342  0.00  0.00    +0.000 HD
ENDBRANCH  29  31
BRANCH  30  33
ATOM     33  O   UNK A   1       3.470   2.094  20.290  0.00  0.00    +0.000 OA
ATOM     34  H   UNK A   1       2.670   1.548  20.132  0.00  0.00    +0.000 HD
ENDBRANCH  30  33
ENDBRANCH  22  25
ENDBRANCH  20  21
ENDBRANCH  19  20
ENDBRANCH  18  19
ENDBRANCH   1  18
TORSDOF 13
ENDMDL
MODEL 7
REMARK VINA RESULT:      -7.4      2.370      3.186
REMARK  Name = 
REMARK  13 active torsions:
REMARK  status: ('A' for Active; 'I' for Inactive)
REMARK    1  A    between atoms: C_2  and  C_22
REMARK    2  A    between atoms: N_3  and  C_4
REMARK    3  A    between atoms: C_4  and  C_5
REMARK    4  A    between atoms: C_4  and  C_7
REMARK    5  A    between atoms: C_5  and  O_6
REMARK    6  A    between atoms: C_7  and  C_8
REMARK    7  A    between atoms: C_8  and  C_9
REMARK    8  A    between atoms: C_9  and  C_10
REMARK    9  A    between atoms: C_10  and  N_11
REMARK   10  A    between atoms: C_12  and  C_14
REMARK   11  A    between atoms: C_18  and  O_19
REMARK   12  A    between atoms: C_20  and  O_21
REMARK   13  A    between atoms: C_26  and  O_27
REMARK                            x       y       z     vdW  Elec       q    Type
REMARK                         _______ _______ _______ _____ _____    ______ ____
ROOT
ATOM      1  C   UNK A   1       3.394   5.885  19.226  0.00  0.00    +0.000 C 
ENDROOT
BRANCH   1   2
ATOM      2  C   UNK A   1       3.384   4.462  18.627  0.00  0.00    +0.000 C 
BRANCH   2   5
ATOM      3  O   UNK A   0       6.218   4.567  18.039  0.00  0.00    +0.000 OA
ATOM      4  C   UNK A   0       5.412   4.483  17.121  0.00  0.00    +0.000 C 
ATOM      5  N   UNK A   1       4.051   4.395  17.318  0.00  0.00    +0.000 N 
ATOM      6  H   UNK A   1       3.460   4.235  16.513  0.00  0.00    +0.000 HD
BRANCH   4   7
ATOM      7  C   UNK A   0       5.879   4.472  15.703  0.00  0.00    +0.000 A 
ATOM      8  C   UNK A   0       5.174   3.703  14.768  0.00  0.00    +0.000 A 
ATOM      9  C   UNK A   0       5.601   3.645  13.436  0.00  0.00    +0.000 A 
ATOM     10  C   UNK A   0       6.741   4.342  13.037  0.00  0.00    +0.000 A 
ATOM     11  C   UNK A   0       7.445   5.093  13.973  0.00  0.00    +0.000 A 
ATOM     12  C   UNK A   0       7.027   5.165  15.301  0.00  0.00    +0.000 A 
BRANCH  11  13
ATOM     13  O   UNK A   0       8.576   5.773  13.624  0.00  0.00    +0.000 OA
ATOM     14  H   UNK A   0       8.499   6.689  13.938  0.00  0.00    +0.000 HD
ENDBRANCH  11  13
ENDBRANCH   4   7
ENDBRANCH   2   5
BRANCH   2  15
ATOM     15  C   UNK A   1       1.976   3.823  18.598  0.00  0.00    +0.000 C 
BRANCH  15  16
ATOM     16  O   UNK A   1       1.455   3.676  17.283  0.00  0.00    +0.000 OA
ATOM     17  H   UNK A   1       1.695   2.774  16.975  0.00  0.00    +0.000 HD
ENDBRANCH  15  16
ENDBRANCH   2  15
ENDBRANCH   1   2
BRANCH   1  18
ATOM     18  C   UNK A   1       2.779   6.905  18.261  0.00  0.00    +0.000 C 
BRANCH  18  19
ATOM     19  C   UNK A   1       2.048   8.033  18.985  0.00  0.00    +0.000 C 
BRANCH  19  20
ATOM     20  C   UNK A   1       1.976   9.275  18.100  0.00  0.00    +0.000 C 
BRANCH  20  21
ATOM     21  N   UNK A   1       0.620   9.594  17.731  0.00  0.00    +0.000 N 
ATOM     22  C   UNK A   1      -0.166  10.426  18.491  0.00  0.00    +0.000 C 
ATOM     23  O   UNK A   1       0.237  10.971  19.515  0.00  0.00    +0.000 OA
ATOM     24  H   UNK A   1       0.205   9.182  16.898  0.00  0.00    +0.000 HD
BRANCH  22  25
ATOM     25  C   UNK A   1      -1.567  10.650  18.018  0.00  0.00    +0.000 A 
ATOM     26  C   UNK A   1      -1.983   9.954  16.870  0.00  0.00    +0.000 A 
ATOM     27  C   UNK A   1      -3.276  10.115  16.359  0.00  0.00    +0.000 A 
ATOM     28  C   UNK A   1      -4.176  10.976  16.984  0.00  0.00    +0.000 A 
ATOM     29  C   UNK A   1      -3.769  11.665  18.120  0.00  0.00    +0.000 A 
ATOM     30  C   UNK A   1      -2.480  11.506  18.640  0.00  0.00    +0.000 A 
BRANCH  29  31
ATOM     31  O   UNK A   1      -4.607  12.526  18.779  0.00  0.00    +0.000 OA
ATOM     32  H   UNK A   1      -4.439  13.428  18.445  0.00  0.00    +0.000 HD
ENDBRANCH  29  31
BRANCH  30  33
ATOM     33  O   UNK A   1      -2.169  12.221  19.771  0.00  0.00    +0.000 OA
ATOM     34  H   UNK A   1      -3.038  12.459  20.157  0.00  0.00    +0.000 HD
ENDBRANCH  30  33
ENDBRANCH  22  25
ENDBRANCH  20  21
ENDBRANCH  19  20
ENDBRANCH  18  19
ENDBRANCH   1  18
TORSDOF 13
ENDMDL
MODEL 8
REMARK VINA RESULT:      -7.4      2.487      3.700
REMARK  Name = 
REMARK  13 active torsions:
REMARK  status: ('A' for Active; 'I' for Inactive)
REMARK    1  A    between atoms: C_2  and  C_22
REMARK    2  A    between atoms: N_3  and  C_4
REMARK    3  A    between atoms: C_4  and  C_5
REMARK    4  A    between atoms: C_4  and  C_7
REMARK    5  A    between atoms: C_5  and  O_6
REMARK    6  A    between atoms: C_7  and  C_8
REMARK    7  A    between atoms: C_8  and  C_9
REMARK    8  A    between atoms: C_9  and  C_10
REMARK    9  A    between atoms: C_10  and  N_11
REMARK   10  A    between atoms: C_12  and  C_14
REMARK   11  A    between atoms: C_18  and  O_19
REMARK   12  A    between atoms: C_20  and  O_21
REMARK   13  A    between atoms: C_26  and  O_27
REMARK                            x       y       z     vdW  Elec       q    Type
REMARK                         _______ _______ _______ _____ _____    ______ ____
ROOT
ATOM      1  C   UNK A   1       1.235   4.627  20.424  0.00  0.00    +0.000 C 
ENDROOT
BRANCH   1   2
ATOM      2  C   UNK A   1       2.114   3.604  19.673  0.00  0.00    +0.000 C 
BRANCH   2   5
ATOM      3  O   UNK A   0       4.938   2.979  19.844  0.00  0.00    +0.000 OA
ATOM      4  C   UNK A   0       4.562   3.898  19.125  0.00  0.00    +0.000 C 
ATOM      5  N   UNK A   1       3.237   4.236  18.964  0.00  0.00    +0.000 N 
ATOM      6  H   UNK A   1       3.003   4.946  18.283  0.00  0.00    +0.000 HD
BRANCH   4   7
ATOM      7  C   UNK A   0       5.553   4.719  18.368  0.00  0.00    +0.000 A 
ATOM      8  C   UNK A   0       6.556   5.389  19.080  0.00  0.00    +0.000 A 
ATOM      9  C   UNK A   0       7.484   6.192  18.406  0.00  0.00    +0.000 A 
ATOM     10  C   UNK A   0       7.404   6.341  17.022  0.00  0.00    +0.000 A 
ATOM     11  C   UNK A   0       6.396   5.684  16.321  0.00  0.00    +0.000 A 
ATOM     12  C   UNK A   0       5.471   4.876  16.979  0.00  0.00    +0.000 A 
BRANCH  11  13
ATOM     13  O   UNK A   0       6.275   5.821  14.969  0.00  0.00    +0.000 OA
ATOM     14  H   UNK A   0       5.332   5.793  14.736  0.00  0.00    +0.000 HD
ENDBRANCH  11  13
ENDBRANCH   4   7
ENDBRANCH   2   5
BRANCH   2  15
ATOM     15  C   UNK A   1       1.303   2.659  18.757  0.00  0.00    +0.000 C 
BRANCH  15  16
ATOM     16  O   UNK A   1       2.118   1.911  17.862  0.00  0.00    +0.000 OA
ATOM     17  H   UNK A   1       1.637   1.077  17.661  0.00  0.00    +0.000 HD
ENDBRANCH  15  16
ENDBRANCH   2  15
ENDBRANCH   1   2
BRANCH   1  18
ATOM     18  C   UNK A   1       1.778   6.053  20.273  0.00  0.00    +0.000 C 
BRANCH  18  19
ATOM     19  C   UNK A   1       1.155   7.028  21.269  0.00  0.00    +0.000 C 
BRANCH  19  20
ATOM     20  C   UNK A   1       1.434   8.468  20.848  0.00  0.00    +0.000 C 
BRANCH  20  21
ATOM     21  N   UNK A   1       0.272   9.094  20.270  0.00  0.00    +0.000 N 
ATOM     22  C   UNK A   1       0.310   9.709  19.041  0.00  0.00    +0.000 C 
ATOM     23  O   UNK A   1       1.320   9.744  18.346  0.00  0.00    +0.000 OA
ATOM     24  H   UNK A   1      -0.608   9.115  20.782  0.00  0.00    +0.000 HD
BRANCH  22  25
ATOM     25  C   UNK A   1      -0.955  10.352  18.569  0.00  0.00    +0.000 A 
ATOM     26  C   UNK A   1      -1.459   9.953  17.319  0.00  0.00    +0.000 A 
ATOM     27  C   UNK A   1      -2.633  10.513  16.804  0.00  0.00    +0.000 A 
ATOM     28  C   UNK A   1      -3.323  11.486  17.525  0.00  0.00    +0.000 A 
ATOM     29  C   UNK A   1      -2.829  11.883  18.761  0.00  0.00    +0.000 A 
ATOM     30  C   UNK A   1      -1.659  11.324  19.286  0.00  0.00    +0.000 A 
BRANCH  29  31
ATOM     31  O   UNK A   1      -3.461  12.834  19.518  0.00  0.00    +0.000 OA
ATOM     32  H   UNK A   1      -2.971  12.930  20.357  0.00  0.00    +0.000 HD
ENDBRANCH  29  31
BRANCH  30  33
ATOM     33  O   UNK A   1      -1.249  11.771  20.519  0.00  0.00    +0.000 OA
ATOM     34  H   UNK A   1      -1.848  12.523  20.718  0.00  0.00    +0.000 HD
ENDBRANCH  30  33
ENDBRANCH  22  25
ENDBRANCH  20  21
ENDBRANCH  19  20
ENDBRANCH  18  19
ENDBRANCH   1  18
TORSDOF 13
ENDMDL
MODEL 9
REMARK VINA RESULT:      -7.4      1.807      3.110
REMARK  Name = 
REMARK  13 active torsions:
REMARK  status: ('A' for Active; 'I' for Inactive)
REMARK    1  A    between atoms: C_2  and  C_22
REMARK    2  A    between atoms: N_3  and  C_4
REMARK    3  A    between atoms: C_4  and  C_5
REMARK    4  A    between atoms: C_4  and  C_7
REMARK    5  A    between atoms: C_5  and  O_6
REMARK    6  A    between atoms: C_7  and  C_8
REMARK    7  A    between atoms: C_8  and  C_9
REMARK    8  A    between atoms: C_9  and  C_10
REMARK    9  A    between atoms: C_10  and  N_11
REMARK   10  A    between atoms: C_12  and  C_14
REMARK   11  A    between atoms: C_18  and  O_19
REMARK   12  A    between atoms: C_20  and  O_21
REMARK   13  A    between atoms: C_26  and  O_27
REMARK                            x       y       z     vdW  Elec       q    Type
REMARK                         _______ _______ _______ _____ _____    ______ ____
ROOT
ATOM      1  C   UNK A   1       1.217   4.398  19.785  0.00  0.00    +0.000 C 
ENDROOT
BRANCH   1   2
ATOM      2  C   UNK A   1       2.301   3.335  19.502  0.00  0.00    +0.000 C 
BRANCH   2   5
ATOM      3  O   UNK A   0       5.193   3.456  19.606  0.00  0.00    +0.000 OA
ATOM      4  C   UNK A   0       4.608   3.810  18.589  0.00  0.00    +0.000 C 
ATOM      5  N   UNK A   1       3.238   3.752  18.449  0.00  0.00    +0.000 N 
ATOM      6  H   UNK A   1       2.839   3.974  17.546  0.00  0.00    +0.000 HD
BRANCH   4   7
ATOM      7  C   UNK A   0       5.373   4.336  17.421  0.00  0.00    +0.000 A 
ATOM      8  C   UNK A   0       5.267   3.671  16.192  0.00  0.00    +0.000 A 
ATOM      9  C   UNK A   0       5.993   4.119  15.082  0.00  0.00    +0.000 A 
ATOM     10  C   UNK A   0       6.839   5.221  15.199  0.00  0.00    +0.000 A 
ATOM     11  C   UNK A   0       6.951   5.869  16.426  0.00  0.00    +0.000 A 
ATOM     12  C   UNK A   0       6.228   5.439  17.537  0.00  0.00    +0.000 A 
BRANCH  11  13
ATOM     13  O   UNK A   0       7.784   6.939  16.584  0.00  0.00    +0.000 OA
ATOM     14  H   UNK A   0       8.491   6.886  15.919  0.00  0.00    +0.000 HD
ENDBRANCH  11  13
ENDBRANCH   4   7
ENDBRANCH   2   5
BRANCH   2  15
ATOM     15  C   UNK A   1       1.720   1.926  19.243  0.00  0.00    +0.000 C 
BRANCH  15  16
ATOM     16  O   UNK A   1       1.628   1.604  17.861  0.00  0.00    +0.000 OA
ATOM     17  H   UNK A   1       1.124   0.762  17.793  0.00  0.00    +0.000 HD
ENDBRANCH  15  16
ENDBRANCH   2  15
ENDBRANCH   1   2
BRANCH   1  18
ATOM     18  C   UNK A   1       1.736   5.495  20.722  0.00  0.00    +0.000 C 
BRANCH  18  19
ATOM     19  C   UNK A   1       2.025   6.804  19.991  0.00  0.00    +0.000 C 
BRANCH  19  20
ATOM     20  C   UNK A   1       1.819   7.992  20.928  0.00  0.00    +0.000 C 
BRANCH  20  21
ATOM     21  N   UNK A   1       0.855   8.927  20.407  0.00  0.00    +0.000 N 
ATOM     22  C   UNK A   1       0.649  10.159  20.981  0.00  0.00    +0.000 C 
ATOM     23  O   UNK A   1       1.285  10.554  21.953  0.00  0.00    +0.000 OA
ATOM     24  H   UNK A   1       0.280   8.678  19.604  0.00  0.00    +0.000 HD
BRANCH  22  25
ATOM     25  C   UNK A   1      -0.406  11.022  20.367  0.00  0.00    +0.000 A 
ATOM     26  C   UNK A   1      -1.310  11.659  21.234  0.00  0.00    +0.000 A 
ATOM     27  C   UNK A   1      -2.330  12.477  20.736  0.00  0.00    +0.000 A 
ATOM     28  C   UNK A   1      -2.469  12.671  19.363  0.00  0.00    +0.000 A 
ATOM     29  C   UNK A   1      -1.577  12.044  18.502  0.00  0.00    +0.000 A 
ATOM     30  C   UNK A   1      -0.551  11.229  18.992  0.00  0.00    +0.000 A 
BRANCH  29  31
ATOM     31  O   UNK A   1      -1.661  12.195  17.143  0.00  0.00    +0.000 OA
ATOM     32  H   UNK A   1      -0.843  12.630  16.835  0.00  0.00    +0.000 HD
ENDBRANCH  29  31
BRANCH  30  33
ATOM     33  O   UNK A   1       0.289  10.657  18.067  0.00  0.00    +0.000 OA
ATOM     34  H   UNK A   1      -0.088  10.916  17.200  0.00  0.00    +0.000 HD
ENDBRANCH  30  33
ENDBRANCH  22  25
ENDBRANCH  20  21
ENDBRANCH  19  20
ENDBRANCH  18  19
ENDBRANCH   1  18
TORSDOF 13
ENDMDL
