MODEL 1
REMARK VINA RESULT:      -8.4      0.000      0.000
REMARK  Name = 
REMARK  9 active torsions:
REMARK  status: ('A' for Active; 'I' for Inactive)
REMARK    1  A    between atoms: C_1  and  N_2
REMARK    2  A    between atoms: C_3  and  C_5
REMARK    3  A    between atoms: C_6  and  C_7
REMARK    4  A    between atoms: C_21  and  C_22
REMARK    5  A    between atoms: C_23  and  C_24
REMARK    6  A    between atoms: C_24  and  C_25
REMARK    7  A    between atoms: C_24  and  O_26
REMARK    8  A    between atoms: C_24  and  C_27
REMARK    9  A    between atoms: C_29  and  C_30
REMARK                            x       y       z     vdW  Elec       q    Type
REMARK                         _______ _______ _______ _____ _____    ______ ____
ROOT
ATOM      1  C   UNL     1       0.683  11.909  20.417  0.00  0.00    +0.000 A 
ATOM      2  C   UNL     1       1.115  11.885  19.097  0.00  0.00    +0.000 A 
ATOM      3  N   UNL     1       1.488  10.592  18.739  0.00  0.00    +0.000 NA
ATOM      4  C   UNL     1       1.301   9.827  19.797  0.00  0.00    +0.000 A 
ATOM      5  N   UNL     1       0.795  10.598  20.834  0.00  0.00    +0.000 N 
ATOM      6  C   UNL     1       0.287  10.135  22.118  0.00  0.00    +0.000 C 
ATOM      7  C   UNL     1      -0.858   9.117  21.922  0.00  0.00    +0.000 C 
ATOM      8  C   UNL     1       0.193   7.995  21.998  0.00  0.00    +0.000 C 
ATOM      9  C   UNL     1       1.078   8.996  22.796  0.00  0.00    +0.000 C 
ATOM     10  C   UNL     1       0.966   7.483  20.732  0.00  0.00    +0.000 A 
ATOM     11  C   UNL     1       1.263   6.112  20.640  0.00  0.00    +0.000 A 
ATOM     12  C   UNL     1       2.309   5.658  19.857  0.00  0.00    +0.000 A 
ATOM     13  F   UNL     1       2.653   4.364  19.926  0.00  0.00    +0.000 F 
ATOM     14  C   UNL     1       3.054   6.557  19.109  0.00  0.00    +0.000 A 
ATOM     15  C   UNL     1       2.649   7.890  19.020  0.00  0.00    +0.000 A 
ATOM     16  C   UNL     1       1.606   8.374  19.829  0.00  0.00    +0.000 A 
ENDROOT
BRANCH   1  19
ATOM     17  C   UNL     1      -1.878  14.493  21.222  0.00  0.00    +0.000 C 
ATOM     18  N   UNL     1      -1.207  13.305  20.767  0.00  0.00    +0.000 N 
ATOM     19  C   UNL     1       0.098  13.028  21.117  0.00  0.00    +0.000 C 
ATOM     20  O   UNL     1       0.724  13.734  21.893  0.00  0.00    +0.000 OA
ATOM     21  H   UNL     1      -1.738  12.619  20.249  0.00  0.00    +0.000 HD
ENDBRANCH   1  19
BRANCH   2  22
ATOM     22  C   UNL     1       1.190  13.024  18.166  0.00  0.00    +0.000 C 
ATOM     23  N   UNL     1       2.340  13.065  17.433  0.00  0.00    +0.000 N 
ATOM     24  O   UNL     1       0.318  13.871  18.053  0.00  0.00    +0.000 OA
ATOM     25  H   UNL     1       3.045  12.347  17.540  0.00  0.00    +0.000 HD
ATOM     26  H   UNL     1       2.445  13.791  16.746  0.00  0.00    +0.000 HD
ENDBRANCH   2  22
BRANCH  14  27
ATOM     27  C   UNL     1       4.260   6.118  18.492  0.00  0.00    +0.000 C 
ATOM     28  C   UNL     1       5.408   5.724  18.015  0.00  0.00    +0.000 C 
BRANCH  28  29
ATOM     29  C   UNL     1       6.746   5.265  17.458  0.00  0.00    +0.000 C 
ATOM     30  C   UNL     1       7.809   6.327  17.769  0.00  0.00    +0.000 C 
BRANCH  29  31
ATOM     31  C   UNL     1       6.647   4.998  15.980  0.00  0.00    +0.000 A 
ATOM     32  C   UNL     1       5.794   4.076  15.325  0.00  0.00    +0.000 A 
ATOM     33  C   UNL     1       6.134   4.167  14.000  0.00  0.00    +0.000 A 
ATOM     34  C   UNL     1       5.670   3.497  12.774  0.00  0.00    +0.000 C 
ATOM     35  O   UNL     1       7.123   5.087  13.855  0.00  0.00    +0.000 OA
ATOM     36  N   UNL     1       7.456   5.608  15.094  0.00  0.00    +0.000 NA
ENDBRANCH  29  31
BRANCH  29  37
ATOM     37  O   UNL     1       7.126   4.074  18.172  0.00  0.00    +0.000 OA
ATOM     38  H   UNL     1       7.932   3.746  17.739  0.00  0.00    +0.000 HD
ENDBRANCH  29  37
ENDBRANCH  28  29
ENDBRANCH  14  27
TORSDOF 6
ENDMDL
MODEL 2
REMARK VINA RESULT:      -7.9      2.237      8.916
REMARK  Name = 
REMARK  9 active torsions:
REMARK  status: ('A' for Active; 'I' for Inactive)
REMARK    1  A    between atoms: C_1  and  N_2
REMARK    2  A    between atoms: C_3  and  C_5
REMARK    3  A    between atoms: C_6  and  C_7
REMARK    4  A    between atoms: C_21  and  C_22
REMARK    5  A    between atoms: C_23  and  C_24
REMARK    6  A    between atoms: C_24  and  C_25
REMARK    7  A    between atoms: C_24  and  O_26
REMARK    8  A    between atoms: C_24  and  C_27
REMARK    9  A    between atoms: C_29  and  C_30
REMARK                            x       y       z     vdW  Elec       q    Type
REMARK                         _______ _______ _______ _____ _____    ______ ____
ROOT
ATOM      1  C   UNL     1       5.083   4.981  16.545  0.00  0.00    +0.000 A 
ATOM      2  C   UNL     1       5.740   6.118  16.999  0.00  0.00    +0.000 A 
ATOM      3  N   UNL     1       4.993   6.734  18.000  0.00  0.00    +0.000 NA
ATOM      4  C   UNL     1       3.901   6.014  18.169  0.00  0.00    +0.000 A 
ATOM      5  N   UNL     1       3.934   4.927  17.307  0.00  0.00    +0.000 N 
ATOM      6  C   UNL     1       3.023   3.790  17.277  0.00  0.00    +0.000 C 
ATOM      7  C   UNL     1       2.986   3.078  18.647  0.00  0.00    +0.000 C 
ATOM      8  C   UNL     1       1.781   3.961  19.018  0.00  0.00    +0.000 C 
ATOM      9  C   UNL     1       1.527   4.107  17.489  0.00  0.00    +0.000 C 
ATOM     10  C   UNL     1       1.950   5.378  19.674  0.00  0.00    +0.000 A 
ATOM     11  C   UNL     1       1.013   5.780  20.642  0.00  0.00    +0.000 A 
ATOM     12  C   UNL     1       0.790   7.120  20.906  0.00  0.00    +0.000 A 
ATOM     13  F   UNL     1      -0.222   7.457  21.719  0.00  0.00    +0.000 F 
ATOM     14  C   UNL     1       1.531   8.088  20.247  0.00  0.00    +0.000 A 
ATOM     15  C   UNL     1       2.605   7.710  19.440  0.00  0.00    +0.000 A 
ATOM     16  C   UNL     1       2.829   6.355  19.138  0.00  0.00    +0.000 A 
ENDROOT
BRANCH   1  19
ATOM     17  C   UNL     1       5.903   3.522  13.216  0.00  0.00    +0.000 C 
ATOM     18  N   UNL     1       5.611   4.425  14.296  0.00  0.00    +0.000 N 
ATOM     19  C   UNL     1       5.588   4.004  15.609  0.00  0.00    +0.000 C 
ATOM     20  O   UNL     1       5.890   2.864  15.929  0.00  0.00    +0.000 OA
ATOM     21  H   UNL     1       5.506   5.409  14.089  0.00  0.00    +0.000 HD
ENDBRANCH   1  19
BRANCH   2  22
ATOM     22  C   UNL     1       7.034   6.642  16.530  0.00  0.00    +0.000 C 
ATOM     23  N   UNL     1       7.398   7.820  17.115  0.00  0.00    +0.000 N 
ATOM     24  O   UNL     1       7.729   6.093  15.690  0.00  0.00    +0.000 OA
ATOM     25  H   UNL     1       6.808   8.252  17.815  0.00  0.00    +0.000 HD
ATOM     26  H   UNL     1       8.289   8.219  16.876  0.00  0.00    +0.000 HD
ENDBRANCH   2  22
BRANCH  14  27
ATOM     27  C   UNL     1       1.142   9.454  20.352  0.00  0.00    +0.000 C 
ATOM     28  C   UNL     1       0.848  10.712  20.525  0.00  0.00    +0.000 C 
BRANCH  28  29
ATOM     29  C   UNL     1       0.503  12.179  20.725  0.00  0.00    +0.000 C 
ATOM     30  C   UNL     1      -0.762  12.511  19.922  0.00  0.00    +0.000 C 
BRANCH  29  31
ATOM     31  C   UNL     1       1.657  13.060  20.325  0.00  0.00    +0.000 A 
ATOM     32  C   UNL     1       2.088  13.374  19.012  0.00  0.00    +0.000 A 
ATOM     33  C   UNL     1       3.205  14.149  19.188  0.00  0.00    +0.000 A 
ATOM     34  C   UNL     1       4.153  14.803  18.271  0.00  0.00    +0.000 C 
ATOM     35  O   UNL     1       3.437  14.303  20.517  0.00  0.00    +0.000 OA
ATOM     36  N   UNL     1       2.474  13.617  21.237  0.00  0.00    +0.000 NA
ENDBRANCH  29  31
BRANCH  29  37
ATOM     37  O   UNL     1       0.175  12.362  22.115  0.00  0.00    +0.000 OA
ATOM     38  H   UNL     1       0.930  12.826  22.512  0.00  0.00    +0.000 HD
ENDBRANCH  29  37
ENDBRANCH  28  29
ENDBRANCH  14  27
TORSDOF 6
ENDMDL
MODEL 3
REMARK VINA RESULT:      -7.8      2.238      9.533
REMARK  Name = 
REMARK  9 active torsions:
REMARK  status: ('A' for Active; 'I' for Inactive)
REMARK    1  A    between atoms: C_1  and  N_2
REMARK    2  A    between atoms: C_3  and  C_5
REMARK    3  A    between atoms: C_6  and  C_7
REMARK    4  A    between atoms: C_21  and  C_22
REMARK    5  A    between atoms: C_23  and  C_24
REMARK    6  A    between atoms: C_24  and  C_25
REMARK    7  A    between atoms: C_24  and  O_26
REMARK    8  A    between atoms: C_24  and  C_27
REMARK    9  A    between atoms: C_29  and  C_30
REMARK                            x       y       z     vdW  Elec       q    Type
REMARK                         _______ _______ _______ _____ _____    ______ ____
ROOT
ATOM      1  C   UNL     1       5.122   4.991  16.526  0.00  0.00    +0.000 A 
ATOM      2  C   UNL     1       5.764   6.136  16.981  0.00  0.00    +0.000 A 
ATOM      3  N   UNL     1       5.007   6.744  17.979  0.00  0.00    +0.000 NA
ATOM      4  C   UNL     1       3.923   6.010  18.146  0.00  0.00    +0.000 A 
ATOM      5  N   UNL     1       3.971   4.923  17.285  0.00  0.00    +0.000 N 
ATOM      6  C   UNL     1       3.075   3.775  17.254  0.00  0.00    +0.000 C 
ATOM      7  C   UNL     1       3.043   3.064  18.624  0.00  0.00    +0.000 C 
ATOM      8  C   UNL     1       1.826   3.932  18.991  0.00  0.00    +0.000 C 
ATOM      9  C   UNL     1       1.575   4.073  17.461  0.00  0.00    +0.000 C 
ATOM     10  C   UNL     1       1.975   5.351  19.646  0.00  0.00    +0.000 A 
ATOM     11  C   UNL     1       1.031   5.743  20.611  0.00  0.00    +0.000 A 
ATOM     12  C   UNL     1       0.790   7.080  20.874  0.00  0.00    +0.000 A 
ATOM     13  F   UNL     1      -0.228   7.405  21.683  0.00  0.00    +0.000 F 
ATOM     14  C   UNL     1       1.521   8.056  20.215  0.00  0.00    +0.000 A 
ATOM     15  C   UNL     1       2.602   7.692  19.412  0.00  0.00    +0.000 A 
ATOM     16  C   UNL     1       2.844   6.339  19.111  0.00  0.00    +0.000 A 
ENDROOT
BRANCH   1  19
ATOM     17  C   UNL     1       5.993   3.551  13.202  0.00  0.00    +0.000 C 
ATOM     18  N   UNL     1       5.684   4.448  14.283  0.00  0.00    +0.000 N 
ATOM     19  C   UNL     1       5.642   4.020  15.593  0.00  0.00    +0.000 C 
ATOM     20  O   UNL     1       5.940   2.878  15.911  0.00  0.00    +0.000 OA
ATOM     21  H   UNL     1       5.582   5.432  14.080  0.00  0.00    +0.000 HD
ENDBRANCH   1  19
BRANCH   2  22
ATOM     22  C   UNL     1       7.052   6.676  16.516  0.00  0.00    +0.000 C 
ATOM     23  N   UNL     1       7.418   7.840  17.128  0.00  0.00    +0.000 N 
ATOM     24  O   UNL     1       7.742   6.151  15.656  0.00  0.00    +0.000 OA
ATOM     25  H   UNL     1       6.833   8.251  17.844  0.00  0.00    +0.000 HD
ATOM     26  H   UNL     1       8.306   8.247  16.892  0.00  0.00    +0.000 HD
ENDBRANCH   2  22
BRANCH  14  27
ATOM     27  C   UNL     1       1.115   9.417  20.318  0.00  0.00    +0.000 C 
ATOM     28  C   UNL     1       0.839  10.688  20.417  0.00  0.00    +0.000 C 
BRANCH  28  29
ATOM     29  C   UNL     1       0.515  12.169  20.532  0.00  0.00    +0.000 C 
ATOM     30  C   UNL     1       1.823  12.958  20.681  0.00  0.00    +0.000 C 
BRANCH  29  31
ATOM     31  C   UNL     1      -0.418  12.425  21.686  0.00  0.00    +0.000 A 
ATOM     32  C   UNL     1      -1.771  12.020  21.807  0.00  0.00    +0.000 A 
ATOM     33  C   UNL     1      -2.188  12.552  22.999  0.00  0.00    +0.000 A 
ATOM     34  C   UNL     1      -3.462  12.541  23.738  0.00  0.00    +0.000 C 
ATOM     35  O   UNL     1      -1.159  13.231  23.570  0.00  0.00    +0.000 OA
ATOM     36  N   UNL     1      -0.047  13.161  22.749  0.00  0.00    +0.000 NA
ENDBRANCH  29  31
BRANCH  29  37
ATOM     37  O   UNL     1      -0.081  12.580  19.288  0.00  0.00    +0.000 OA
ATOM     38  H   UNL     1      -0.925  13.003  19.519  0.00  0.00    +0.000 HD
ENDBRANCH  29  37
ENDBRANCH  28  29
ENDBRANCH  14  27
TORSDOF 6
ENDMDL
MODEL 4
REMARK VINA RESULT:      -7.6      2.456      9.231
REMARK  Name = 
REMARK  9 active torsions:
REMARK  status: ('A' for Active; 'I' for Inactive)
REMARK    1  A    between atoms: C_1  and  N_2
REMARK    2  A    between atoms: C_3  and  C_5
REMARK    3  A    between atoms: C_6  and  C_7
REMARK    4  A    between atoms: C_21  and  C_22
REMARK    5  A    between atoms: C_23  and  C_24
REMARK    6  A    between atoms: C_24  and  C_25
REMARK    7  A    between atoms: C_24  and  O_26
REMARK    8  A    between atoms: C_24  and  C_27
REMARK    9  A    between atoms: C_29  and  C_30
REMARK                            x       y       z     vdW  Elec       q    Type
REMARK                         _______ _______ _______ _____ _____    ______ ____
ROOT
ATOM      1  C   UNL     1       5.159   5.004  16.549  0.00  0.00    +0.000 A 
ATOM      2  C   UNL     1       5.766   6.180  16.972  0.00  0.00    +0.000 A 
ATOM      3  N   UNL     1       4.995   6.788  17.960  0.00  0.00    +0.000 NA
ATOM      4  C   UNL     1       3.936   6.024  18.151  0.00  0.00    +0.000 A 
ATOM      5  N   UNL     1       4.015   4.918  17.316  0.00  0.00    +0.000 N 
ATOM      6  C   UNL     1       3.155   3.741  17.318  0.00  0.00    +0.000 C 
ATOM      7  C   UNL     1       3.154   3.063  18.705  0.00  0.00    +0.000 C 
ATOM      8  C   UNL     1       1.912   3.901  19.059  0.00  0.00    +0.000 C 
ATOM      9  C   UNL     1       1.648   3.997  17.528  0.00  0.00    +0.000 C 
ATOM     10  C   UNL     1       2.019   5.339  19.678  0.00  0.00    +0.000 A 
ATOM     11  C   UNL     1       1.068   5.724  20.640  0.00  0.00    +0.000 A 
ATOM     12  C   UNL     1       0.786   7.059  20.871  0.00  0.00    +0.000 A 
ATOM     13  F   UNL     1      -0.238   7.371  21.679  0.00  0.00    +0.000 F 
ATOM     14  C   UNL     1       1.481   8.042  20.185  0.00  0.00    +0.000 A 
ATOM     15  C   UNL     1       2.569   7.692  19.384  0.00  0.00    +0.000 A 
ATOM     16  C   UNL     1       2.853   6.341  19.115  0.00  0.00    +0.000 A 
ENDROOT
BRANCH   1  19
ATOM     17  C   UNL     1       6.117   3.542  13.258  0.00  0.00    +0.000 C 
ATOM     18  N   UNL     1       5.779   4.446  14.324  0.00  0.00    +0.000 N 
ATOM     19  C   UNL     1       5.705   4.027  15.636  0.00  0.00    +0.000 C 
ATOM     20  O   UNL     1       5.998   2.889  15.970  0.00  0.00    +0.000 OA
ATOM     21  H   UNL     1       5.679   5.429  14.111  0.00  0.00    +0.000 HD
ENDBRANCH   1  19
BRANCH   2  22
ATOM     22  C   UNL     1       7.034   6.749  16.486  0.00  0.00    +0.000 C 
ATOM     23  N   UNL     1       7.375   7.929  17.081  0.00  0.00    +0.000 N 
ATOM     24  O   UNL     1       7.728   6.233  15.624  0.00  0.00    +0.000 OA
ATOM     25  H   UNL     1       6.787   8.333  17.799  0.00  0.00    +0.000 HD
ATOM     26  H   UNL     1       8.248   8.358  16.830  0.00  0.00    +0.000 HD
ENDBRANCH   2  22
BRANCH  14  27
ATOM     27  C   UNL     1       1.032   9.391  20.258  0.00  0.00    +0.000 C 
ATOM     28  C   UNL     1       0.533  10.595  20.297  0.00  0.00    +0.000 C 
BRANCH  28  29
ATOM     29  C   UNL     1      -0.048  11.999  20.343  0.00  0.00    +0.000 C 
ATOM     30  C   UNL     1       0.026  12.524  21.784  0.00  0.00    +0.000 C 
BRANCH  29  31
ATOM     31  C   UNL     1      -1.461  12.011  19.823  0.00  0.00    +0.000 A 
ATOM     32  C   UNL     1      -1.945  11.423  18.628  0.00  0.00    +0.000 A 
ATOM     33  C   UNL     1      -3.270  11.771  18.581  0.00  0.00    +0.000 A 
ATOM     34  C   UNL     1      -4.364  11.517  17.628  0.00  0.00    +0.000 C 
ATOM     35  O   UNL     1      -3.576  12.516  19.675  0.00  0.00    +0.000 OA
ATOM     36  N   UNL     1      -2.444  12.677  20.456  0.00  0.00    +0.000 NA
ENDBRANCH  29  31
BRANCH  29  37
ATOM     37  O   UNL     1       0.801  12.846  19.547  0.00  0.00    +0.000 OA
ATOM     38  H   UNL     1       1.461  13.215  20.156  0.00  0.00    +0.000 HD
ENDBRANCH  29  37
ENDBRANCH  28  29
ENDBRANCH  14  27
TORSDOF 6
ENDMDL
MODEL 5
REMARK VINA RESULT:      -7.6      1.008      1.046
REMARK  Name = 
REMARK  9 active torsions:
REMARK  status: ('A' for Active; 'I' for Inactive)
REMARK    1  A    between atoms: C_1  and  N_2
REMARK    2  A    between atoms: C_3  and  C_5
REMARK    3  A    between atoms: C_6  and  C_7
REMARK    4  A    between atoms: C_21  and  C_22
REMARK    5  A    between atoms: C_23  and  C_24
REMARK    6  A    between atoms: C_24  and  C_25
REMARK    7  A    between atoms: C_24  and  O_26
REMARK    8  A    between atoms: C_24  and  C_27
REMARK    9  A    between atoms: C_29  and  C_30
REMARK                            x       y       z     vdW  Elec       q    Type
REMARK                         _______ _______ _______ _____ _____    ______ ____
ROOT
ATOM      1  C   UNL     1       0.653  11.994  20.422  0.00  0.00    +0.000 A 
ATOM      2  C   UNL     1       1.001  11.912  19.080  0.00  0.00    +0.000 A 
ATOM      3  N   UNL     1       1.339  10.601  18.752  0.00  0.00    +0.000 NA
ATOM      4  C   UNL     1       1.212   9.881  19.851  0.00  0.00    +0.000 A 
ATOM      5  N   UNL     1       0.779  10.700  20.885  0.00  0.00    +0.000 N 
ATOM      6  C   UNL     1       0.348  10.295  22.216  0.00  0.00    +0.000 C 
ATOM      7  C   UNL     1      -0.816   9.284  22.134  0.00  0.00    +0.000 C 
ATOM      8  C   UNL     1       0.228   8.153  22.191  0.00  0.00    +0.000 C 
ATOM      9  C   UNL     1       1.170   9.176  22.890  0.00  0.00    +0.000 C 
ATOM     10  C   UNL     1       0.916   7.582  20.901  0.00  0.00    +0.000 A 
ATOM     11  C   UNL     1       1.194   6.205  20.847  0.00  0.00    +0.000 A 
ATOM     12  C   UNL     1       2.185   5.708  20.020  0.00  0.00    +0.000 A 
ATOM     13  F   UNL     1       2.521   4.414  20.121  0.00  0.00    +0.000 F 
ATOM     14  C   UNL     1       2.889   6.567  19.191  0.00  0.00    +0.000 A 
ATOM     15  C   UNL     1       2.492   7.900  19.073  0.00  0.00    +0.000 A 
ATOM     16  C   UNL     1       1.506   8.428  19.924  0.00  0.00    +0.000 A 
ENDROOT
BRANCH   1  19
ATOM     17  C   UNL     1       0.741  15.189  22.337  0.00  0.00    +0.000 C 
ATOM     18  N   UNL     1       1.067  14.079  21.483  0.00  0.00    +0.000 N 
ATOM     19  C   UNL     1       0.122  13.147  21.110  0.00  0.00    +0.000 C 
ATOM     20  O   UNL     1      -1.055  13.258  21.420  0.00  0.00    +0.000 OA
ATOM     21  H   UNL     1       1.993  14.035  21.080  0.00  0.00    +0.000 HD
ENDBRANCH   1  19
BRANCH   2  22
ATOM     22  C   UNL     1       1.027  13.011  18.100  0.00  0.00    +0.000 C 
ATOM     23  N   UNL     1       2.228  13.161  17.468  0.00  0.00    +0.000 N 
ATOM     24  O   UNL     1       0.076  13.740  17.866  0.00  0.00    +0.000 OA
ATOM     25  H   UNL     1       2.999  12.539  17.674  0.00  0.00    +0.000 HD
ATOM     26  H   UNL     1       2.310  13.865  16.756  0.00  0.00    +0.000 HD
ENDBRANCH   2  22
BRANCH  14  27
ATOM     27  C   UNL     1       4.051   6.090  18.519  0.00  0.00    +0.000 C 
ATOM     28  C   UNL     1       5.164   5.726  17.946  0.00  0.00    +0.000 C 
BRANCH  28  29
ATOM     29  C   UNL     1       6.462   5.302  17.277  0.00  0.00    +0.000 C 
ATOM     30  C   UNL     1       7.425   6.497  17.248  0.00  0.00    +0.000 C 
BRANCH  29  31
ATOM     31  C   UNL     1       6.202   4.768  15.893  0.00  0.00    +0.000 A 
ATOM     32  C   UNL     1       7.127   4.653  14.826  0.00  0.00    +0.000 A 
ATOM     33  C   UNL     1       6.387   4.178  13.774  0.00  0.00    +0.000 A 
ATOM     34  C   UNL     1       6.694   3.841  12.374  0.00  0.00    +0.000 C 
ATOM     35  O   UNL     1       5.100   4.009  14.174  0.00  0.00    +0.000 OA
ATOM     36  N   UNL     1       4.974   4.384  15.500  0.00  0.00    +0.000 NA
ENDBRANCH  29  31
BRANCH  29  37
ATOM     37  O   UNL     1       7.070   4.297  18.110  0.00  0.00    +0.000 OA
ATOM     38  H   UNL     1       6.455   4.150  18.848  0.00  0.00    +0.000 HD
ENDBRANCH  29  37
ENDBRANCH  28  29
ENDBRANCH  14  27
TORSDOF 6
ENDMDL
MODEL 6
REMARK VINA RESULT:      -7.5      2.044      2.574
REMARK  Name = 
REMARK  9 active torsions:
REMARK  status: ('A' for Active; 'I' for Inactive)
REMARK    1  A    between atoms: C_1  and  N_2
REMARK    2  A    between atoms: C_3  and  C_5
REMARK    3  A    between atoms: C_6  and  C_7
REMARK    4  A    between atoms: C_21  and  C_22
REMARK    5  A    between atoms: C_23  and  C_24
REMARK    6  A    between atoms: C_24  and  C_25
REMARK    7  A    between atoms: C_24  and  O_26
REMARK    8  A    between atoms: C_24  and  C_27
REMARK    9  A    between atoms: C_29  and  C_30
REMARK                            x       y       z     vdW  Elec       q    Type
REMARK                         _______ _______ _______ _____ _____    ______ ____
ROOT
ATOM      1  C   UNL     1       1.898  13.823  19.247  0.00  0.00    +0.000 A 
ATOM      2  C   UNL     1       2.975  13.741  18.374  0.00  0.00    +0.000 A 
ATOM      3  N   UNL     1       3.088  12.446  17.874  0.00  0.00    +0.000 NA
ATOM      4  C   UNL     1       2.118  11.734  18.416  0.00  0.00    +0.000 A 
ATOM      5  N   UNL     1       1.364  12.550  19.247  0.00  0.00    +0.000 N 
ATOM      6  C   UNL     1       0.106  12.224  19.906  0.00  0.00    +0.000 C 
ATOM      7  C   UNL     1      -0.959  11.788  18.876  0.00  0.00    +0.000 C 
ATOM      8  C   UNL     1      -0.522  10.332  19.116  0.00  0.00    +0.000 C 
ATOM      9  C   UNL     1      -0.005  10.806  20.505  0.00  0.00    +0.000 C 
ATOM     10  C   UNL     1       0.645   9.662  18.306  0.00  0.00    +0.000 A 
ATOM     11  C   UNL     1       0.525   8.304  17.963  0.00  0.00    +0.000 A 
ATOM     12  C   UNL     1       1.643   7.532  17.701  0.00  0.00    +0.000 A 
ATOM     13  F   UNL     1       1.489   6.211  17.535  0.00  0.00    +0.000 F 
ATOM     14  C   UNL     1       2.903   8.109  17.726  0.00  0.00    +0.000 A 
ATOM     15  C   UNL     1       3.031   9.492  17.858  0.00  0.00    +0.000 A 
ATOM     16  C   UNL     1       1.910  10.288  18.153  0.00  0.00    +0.000 A 
ENDROOT
BRANCH   1  19
ATOM     17  C   UNL     1       0.040  17.046  19.468  0.00  0.00    +0.000 C 
ATOM     18  N   UNL     1       0.505  15.740  19.082  0.00  0.00    +0.000 N 
ATOM     19  C   UNL     1       1.375  15.017  19.869  0.00  0.00    +0.000 C 
ATOM     20  O   UNL     1       1.736  15.412  20.968  0.00  0.00    +0.000 OA
ATOM     21  H   UNL     1       0.112  15.312  18.255  0.00  0.00    +0.000 HD
ENDBRANCH   1  19
BRANCH   2  22
ATOM     22  C   UNL     1       3.895  14.827  17.994  0.00  0.00    +0.000 C 
ATOM     23  N   UNL     1       3.467  15.568  16.931  0.00  0.00    +0.000 N 
ATOM     24  O   UNL     1       4.952  15.054  18.560  0.00  0.00    +0.000 OA
ATOM     25  H   UNL     1       2.582  15.364  16.483  0.00  0.00    +0.000 HD
ATOM     26  H   UNL     1       4.022  16.353  16.639  0.00  0.00    +0.000 HD
ENDBRANCH   2  22
BRANCH  14  27
ATOM     27  C   UNL     1       4.053   7.270  17.683  0.00  0.00    +0.000 C 
ATOM     28  C   UNL     1       5.058   6.446  17.579  0.00  0.00    +0.000 C 
BRANCH  28  29
ATOM     29  C   UNL     1       6.231   5.486  17.458  0.00  0.00    +0.000 C 
ATOM     30  C   UNL     1       7.447   6.089  18.175  0.00  0.00    +0.000 C 
BRANCH  29  31
ATOM     31  C   UNL     1       6.533   5.188  16.014  0.00  0.00    +0.000 A 
ATOM     32  C   UNL     1       5.839   4.301  15.153  0.00  0.00    +0.000 A 
ATOM     33  C   UNL     1       6.541   4.338  13.976  0.00  0.00    +0.000 A 
ATOM     34  C   UNL     1       6.396   3.665  12.675  0.00  0.00    +0.000 C 
ATOM     35  O   UNL     1       7.588   5.193  14.108  0.00  0.00    +0.000 OA
ATOM     36  N   UNL     1       7.594   5.725  15.385  0.00  0.00    +0.000 NA
ENDBRANCH  29  31
BRANCH  29  37
ATOM     37  O   UNL     1       5.882   4.284  18.170  0.00  0.00    +0.000 OA
ATOM     38  H   UNL     1       5.736   4.550  19.093  0.00  0.00    +0.000 HD
ENDBRANCH  29  37
ENDBRANCH  28  29
ENDBRANCH  14  27
TORSDOF 6
ENDMDL
MODEL 7
REMARK VINA RESULT:      -7.4      3.426      4.912
REMARK  Name = 
REMARK  9 active torsions:
REMARK  status: ('A' for Active; 'I' for Inactive)
REMARK    1  A    between atoms: C_1  and  N_2
REMARK    2  A    between atoms: C_3  and  C_5
REMARK    3  A    between atoms: C_6  and  C_7
REMARK    4  A    between atoms: C_21  and  C_22
REMARK    5  A    between atoms: C_23  and  C_24
REMARK    6  A    between atoms: C_24  and  C_25
REMARK    7  A    between atoms: C_24  and  O_26
REMARK    8  A    between atoms: C_24  and  C_27
REMARK    9  A    between atoms: C_29  and  C_30
REMARK                            x       y       z     vdW  Elec       q    Type
REMARK                         _______ _______ _______ _____ _____    ______ ____
ROOT
ATOM      1  C   UNL     1       3.602  15.504  19.614  0.00  0.00    +0.000 A 
ATOM      2  C   UNL     1       4.442  14.851  18.721  0.00  0.00    +0.000 A 
ATOM      3  N   UNL     1       3.827  13.698  18.241  0.00  0.00    +0.000 NA
ATOM      4  C   UNL     1       2.641  13.623  18.814  0.00  0.00    +0.000 A 
ATOM      5  N   UNL     1       2.467  14.720  19.647  0.00  0.00    +0.000 N 
ATOM      6  C   UNL     1       1.250  15.126  20.337  0.00  0.00    +0.000 C 
ATOM      7  C   UNL     1       0.091  15.328  19.336  0.00  0.00    +0.000 C 
ATOM      8  C   UNL     1      -0.320  13.867  19.592  0.00  0.00    +0.000 C 
ATOM      9  C   UNL     1       0.408  13.993  20.962  0.00  0.00    +0.000 C 
ATOM     10  C   UNL     1       0.281  12.672  18.770  0.00  0.00    +0.000 A 
ATOM     11  C   UNL     1      -0.561  11.591  18.452  0.00  0.00    +0.000 A 
ATOM     12  C   UNL     1      -0.043  10.338  18.181  0.00  0.00    +0.000 A 
ATOM     13  F   UNL     1      -0.888   9.307  18.041  0.00  0.00    +0.000 F 
ATOM     14  C   UNL     1       1.330  10.144  18.171  0.00  0.00    +0.000 A 
ATOM     15  C   UNL     1       2.187  11.240  18.277  0.00  0.00    +0.000 A 
ATOM     16  C   UNL     1       1.680  12.516  18.580  0.00  0.00    +0.000 A 
ENDROOT
BRANCH   1  19
ATOM     17  C   UNL     1       4.753  17.920  22.206  0.00  0.00    +0.000 C 
ATOM     18  N   UNL     1       4.593  16.762  21.369  0.00  0.00    +0.000 N 
ATOM     19  C   UNL     1       3.822  16.793  20.226  0.00  0.00    +0.000 C 
ATOM     20  O   UNL     1       3.300  17.823  19.824  0.00  0.00    +0.000 OA
ATOM     21  H   UNL     1       5.131  15.933  21.582  0.00  0.00    +0.000 HD
ENDBRANCH   1  19
BRANCH   2  22
ATOM     22  C   UNL     1       5.792  15.268  18.304  0.00  0.00    +0.000 C 
ATOM     23  N   UNL     1       6.470  14.320  17.595  0.00  0.00    +0.000 N 
ATOM     24  O   UNL     1       6.282  16.355  18.567  0.00  0.00    +0.000 OA
ATOM     25  H   UNL     1       6.039  13.429  17.383  0.00  0.00    +0.000 HD
ATOM     26  H   UNL     1       7.382  14.547  17.241  0.00  0.00    +0.000 HD
ENDBRANCH   2  22
BRANCH  14  27
ATOM     27  C   UNL     1       1.845   8.817  18.119  0.00  0.00    +0.000 C 
ATOM     28  C   UNL     1       2.356   7.619  18.159  0.00  0.00    +0.000 C 
BRANCH  28  29
ATOM     29  C   UNL     1       2.951   6.220  18.206  0.00  0.00    +0.000 C 
ATOM     30  C   UNL     1       3.267   5.859  19.663  0.00  0.00    +0.000 C 
BRANCH  29  31
ATOM     31  C   UNL     1       4.177   6.131  17.336  0.00  0.00    +0.000 A 
ATOM     32  C   UNL     1       4.695   4.980  16.690  0.00  0.00    +0.000 A 
ATOM     33  C   UNL     1       5.847   5.409  16.085  0.00  0.00    +0.000 A 
ATOM     34  C   UNL     1       6.881   4.753  15.267  0.00  0.00    +0.000 C 
ATOM     35  O   UNL     1       6.019   6.733  16.339  0.00  0.00    +0.000 OA
ATOM     36  N   UNL     1       4.979   7.191  17.129  0.00  0.00    +0.000 NA
ENDBRANCH  29  31
BRANCH  29  37
ATOM     37  O   UNL     1       1.936   5.302  17.759  0.00  0.00    +0.000 OA
ATOM     38  H   UNL     1       2.213   5.003  16.877  0.00  0.00    +0.000 HD
ENDBRANCH  29  37
ENDBRANCH  28  29
ENDBRANCH  14  27
TORSDOF 6
ENDMDL
MODEL 8
REMARK VINA RESULT:      -7.3      3.430      5.251
REMARK  Name = 
REMARK  9 active torsions:
REMARK  status: ('A' for Active; 'I' for Inactive)
REMARK    1  A    between atoms: C_1  and  N_2
REMARK    2  A    between atoms: C_3  and  C_5
REMARK    3  A    between atoms: C_6  and  C_7
REMARK    4  A    between atoms: C_21  and  C_22
REMARK    5  A    between atoms: C_23  and  C_24
REMARK    6  A    between atoms: C_24  and  C_25
REMARK    7  A    between atoms: C_24  and  O_26
REMARK    8  A    between atoms: C_24  and  C_27
REMARK    9  A    between atoms: C_29  and  C_30
REMARK                            x       y       z     vdW  Elec       q    Type
REMARK                         _______ _______ _______ _____ _____    ______ ____
ROOT
ATOM      1  C   UNL     1       3.475  15.592  19.451  0.00  0.00    +0.000 A 
ATOM      2  C   UNL     1       4.338  14.855  18.650  0.00  0.00    +0.000 A 
ATOM      3  N   UNL     1       3.718  13.680  18.233  0.00  0.00    +0.000 NA
ATOM      4  C   UNL     1       2.506  13.673  18.755  0.00  0.00    +0.000 A 
ATOM      5  N   UNL     1       2.321  14.835  19.491  0.00  0.00    +0.000 N 
ATOM      6  C   UNL     1       1.084  15.318  20.091  0.00  0.00    +0.000 C 
ATOM      7  C   UNL     1      -0.024  15.464  19.025  0.00  0.00    +0.000 C 
ATOM      8  C   UNL     1      -0.479  14.035  19.374  0.00  0.00    +0.000 C 
ATOM      9  C   UNL     1       0.190  14.254  20.762  0.00  0.00    +0.000 C 
ATOM     10  C   UNL     1       0.129  12.768  18.676  0.00  0.00    +0.000 A 
ATOM     11  C   UNL     1      -0.722  11.682  18.404  0.00  0.00    +0.000 A 
ATOM     12  C   UNL     1      -0.221  10.401  18.255  0.00  0.00    +0.000 A 
ATOM     13  F   UNL     1      -1.083   9.379  18.157  0.00  0.00    +0.000 F 
ATOM     14  C   UNL     1       1.146  10.181  18.324  0.00  0.00    +0.000 A 
ATOM     15  C   UNL     1       2.022  11.265  18.384  0.00  0.00    +0.000 A 
ATOM     16  C   UNL     1       1.532  12.571  18.564  0.00  0.00    +0.000 A 
ENDROOT
BRANCH   1  19
ATOM     17  C   UNL     1       4.649  18.184  21.856  0.00  0.00    +0.000 C 
ATOM     18  N   UNL     1       4.483  16.971  21.102  0.00  0.00    +0.000 N 
ATOM     19  C   UNL     1       3.697  16.921  19.970  0.00  0.00    +0.000 C 
ATOM     20  O   UNL     1       3.164  17.919  19.506  0.00  0.00    +0.000 OA
ATOM     21  H   UNL     1       5.027  16.161  21.364  0.00  0.00    +0.000 HD
ENDBRANCH   1  19
BRANCH   2  22
ATOM     22  C   UNL     1       5.714  15.212  18.266  0.00  0.00    +0.000 C 
ATOM     23  N   UNL     1       6.382  14.217  17.612  0.00  0.00    +0.000 N 
ATOM     24  O   UNL     1       6.233  16.290  18.508  0.00  0.00    +0.000 OA
ATOM     25  H   UNL     1       5.927  13.334  17.416  0.00  0.00    +0.000 HD
ATOM     26  H   UNL     1       7.312  14.401  17.281  0.00  0.00    +0.000 HD
ENDBRANCH   2  22
BRANCH  14  27
ATOM     27  C   UNL     1       1.632   8.845  18.398  0.00  0.00    +0.000 C 
ATOM     28  C   UNL     1       2.051   7.620  18.561  0.00  0.00    +0.000 C 
BRANCH  28  29
ATOM     29  C   UNL     1       2.539   6.193  18.749  0.00  0.00    +0.000 C 
ATOM     30  C   UNL     1       2.134   5.705  20.147  0.00  0.00    +0.000 C 
BRANCH  29  31
ATOM     31  C   UNL     1       4.028   6.104  18.543  0.00  0.00    +0.000 A 
ATOM     32  C   UNL     1       4.784   6.642  17.472  0.00  0.00    +0.000 A 
ATOM     33  C   UNL     1       6.069   6.233  17.714  0.00  0.00    +0.000 A 
ATOM     34  C   UNL     1       7.352   6.415  17.014  0.00  0.00    +0.000 C 
ATOM     35  O   UNL     1       6.098   5.501  18.858  0.00  0.00    +0.000 OA
ATOM     36  N   UNL     1       4.819   5.410  19.381  0.00  0.00    +0.000 NA
ENDBRANCH  29  31
BRANCH  29  37
ATOM     37  O   UNL     1       1.838   5.367  17.800  0.00  0.00    +0.000 OA
ATOM     38  H   UNL     1       1.484   5.971  17.127  0.00  0.00    +0.000 HD
ENDBRANCH  29  37
ENDBRANCH  28  29
ENDBRANCH  14  27
TORSDOF 6
ENDMDL
MODEL 9
REMARK VINA RESULT:      -7.2      3.463      9.877
REMARK  Name = 
REMARK  9 active torsions:
REMARK  status: ('A' for Active; 'I' for Inactive)
REMARK    1  A    between atoms: C_1  and  N_2
REMARK    2  A    between atoms: C_3  and  C_5
REMARK    3  A    between atoms: C_6  and  C_7
REMARK    4  A    between atoms: C_21  and  C_22
REMARK    5  A    between atoms: C_23  and  C_24
REMARK    6  A    between atoms: C_24  and  C_25
REMARK    7  A    between atoms: C_24  and  O_26
REMARK    8  A    between atoms: C_24  and  C_27
REMARK    9  A    between atoms: C_29  and  C_30
REMARK                            x       y       z     vdW  Elec       q    Type
REMARK                         _______ _______ _______ _____ _____    ______ ____
ROOT
ATOM      1  C   UNL     1       3.420   3.938  19.769  0.00  0.00    +0.000 A 
ATOM      2  C   UNL     1       2.152   4.025  20.329  0.00  0.00    +0.000 A 
ATOM      3  N   UNL     1       1.599   5.277  20.069  0.00  0.00    +0.000 NA
ATOM      4  C   UNL     1       2.489   5.958  19.372  0.00  0.00    +0.000 A 
ATOM      5  N   UNL     1       3.606   5.162  19.158  0.00  0.00    +0.000 N 
ATOM      6  C   UNL     1       4.747   5.448  18.299  0.00  0.00    +0.000 C 
ATOM      7  C   UNL     1       4.291   5.711  16.848  0.00  0.00    +0.000 C 
ATOM      8  C   UNL     1       4.244   7.212  17.187  0.00  0.00    +0.000 C 
ATOM      9  C   UNL     1       5.269   6.900  18.316  0.00  0.00    +0.000 C 
ATOM     10  C   UNL     1       2.967   7.895  17.793  0.00  0.00    +0.000 A 
ATOM     11  C   UNL     1       2.656   9.205  17.388  0.00  0.00    +0.000 A 
ATOM     12  C   UNL     1       1.884  10.034  18.183  0.00  0.00    +0.000 A 
ATOM     13  F   UNL     1       1.749  11.321  17.832  0.00  0.00    +0.000 F 
ATOM     14  C   UNL     1       1.363   9.559  19.376  0.00  0.00    +0.000 A 
ATOM     15  C   UNL     1       1.483   8.206  19.697  0.00  0.00    +0.000 A 
ATOM     16  C   UNL     1       2.286   7.356  18.916  0.00  0.00    +0.000 A 
ENDROOT
BRANCH   1  19
ATOM     17  C   UNL     1       4.518   0.555  18.659  0.00  0.00    +0.000 C 
ATOM     18  N   UNL     1       3.910   1.856  18.736  0.00  0.00    +0.000 N 
ATOM     19  C   UNL     1       4.262   2.767  19.709  0.00  0.00    +0.000 C 
ATOM     20  O   UNL     1       5.161   2.547  20.507  0.00  0.00    +0.000 OA
ATOM     21  H   UNL     1       3.272   2.135  18.003  0.00  0.00    +0.000 HD
ENDBRANCH   1  19
BRANCH   2  22
ATOM     22  C   UNL     1       1.445   2.984  21.094  0.00  0.00    +0.000 C 
ATOM     23  N   UNL     1       0.378   2.443  20.436  0.00  0.00    +0.000 N 
ATOM     24  O   UNL     1       1.763   2.628  22.217  0.00  0.00    +0.000 OA
ATOM     25  H   UNL     1       0.139   2.750  19.502  0.00  0.00    +0.000 HD
ATOM     26  H   UNL     1      -0.129   1.697  20.878  0.00  0.00    +0.000 HD
ENDBRANCH   2  22
BRANCH  14  27
ATOM     27  C   UNL     1       0.769  10.475  20.290  0.00  0.00    +0.000 C 
ATOM     28  C   UNL     1       0.141  11.303  21.078  0.00  0.00    +0.000 C 
BRANCH  28  29
ATOM     29  C   UNL     1      -0.591  12.267  21.997  0.00  0.00    +0.000 C 
ATOM     30  C   UNL     1      -2.031  12.443  21.496  0.00  0.00    +0.000 C 
BRANCH  29  31
ATOM     31  C   UNL     1       0.131  13.586  22.074  0.00  0.00    +0.000 A 
ATOM     32  C   UNL     1       1.177  14.047  21.235  0.00  0.00    +0.000 A 
ATOM     33  C   UNL     1       1.530  15.265  21.757  0.00  0.00    +0.000 A 
ATOM     34  C   UNL     1       2.537  16.279  21.402  0.00  0.00    +0.000 C 
ATOM     35  O   UNL     1       0.750  15.532  22.836  0.00  0.00    +0.000 OA
ATOM     36  N   UNL     1      -0.126  14.480  23.046  0.00  0.00    +0.000 NA
ENDBRANCH  29  31
BRANCH  29  37
ATOM     37  O   UNL     1      -0.674  11.650  23.295  0.00  0.00    +0.000 OA
ATOM     38  H   UNL     1      -1.585  11.324  23.381  0.00  0.00    +0.000 HD
ENDBRANCH  29  37
ENDBRANCH  28  29
ENDBRANCH  14  27
TORSDOF 6
ENDMDL
