MODEL 1
REMARK VINA RESULT:      -8.8      0.000      0.000
REMARK  Name = 
REMARK  4 active torsions:
REMARK  status: ('A' for Active; 'I' for Inactive)
REMARK    1  A    between atoms: C_1  and  C_2
REMARK    2  A    between atoms: C_7  and  C_9
REMARK    3  A    between atoms: C_10  and  O_11
REMARK    4  A    between atoms: N_12  and  C_13
REMARK                            x       y       z     vdW  Elec       q    Type
REMARK                         _______ _______ _______ _____ _____    ______ ____
ROOT
ATOM      1  C   UNL     1       2.926   5.948  19.275  0.00  0.00    +0.000 C 
ATOM      2  C   UNL     1       2.428   5.000  20.104  0.00  0.00    +0.000 C 
ATOM      3  N   UNL     1       3.048   3.733  20.262  0.00  0.00    +0.000 N 
ATOM      4  C   UNL     1       2.406   2.683  21.090  0.00  0.00    +0.000 C 
ATOM      5  S   UNL     1       3.974   3.074  19.012  0.00  0.00    +0.000 S 
ATOM      6  O   UNL     1       3.090   2.321  18.145  0.00  0.00    +0.000 OA
ATOM      7  O   UNL     1       5.134   2.456  19.618  0.00  0.00    +0.000 OA
ATOM      8  C   UNL     1       4.549   4.427  18.076  0.00  0.00    +0.000 A 
ATOM      9  C   UNL     1       5.512   4.147  17.089  0.00  0.00    +0.000 A 
ATOM     10  C   UNL     1       5.974   5.169  16.279  0.00  0.00    +0.000 A 
ATOM     11 CL   UNL     1       7.108   4.836  15.032  0.00  0.00    +0.000 Cl
ATOM     12  C   UNL     1       5.508   6.461  16.475  0.00  0.00    +0.000 A 
ATOM     13  C   UNL     1       4.565   6.724  17.482  0.00  0.00    +0.000 A 
ATOM     14  C   UNL     1       4.031   5.702  18.296  0.00  0.00    +0.000 A 
ENDROOT
BRANCH   1  21
ATOM     15  C   UNL     1      -0.721  11.844  22.420  0.00  0.00    +0.000 C 
ATOM     16  C   UNL     1      -0.082  10.828  21.546  0.00  0.00    +0.000 A 
ATOM     17  C   UNL     1       0.006  10.804  20.169  0.00  0.00    +0.000 A 
ATOM     18  N   UNL     1       0.690   9.734  19.636  0.00  0.00    +0.000 NA
ATOM     19  C   UNL     1       1.128   8.964  20.598  0.00  0.00    +0.000 A 
ATOM     20  N   UNL     1       1.860   7.806  20.495  0.00  0.00    +0.000 N 
ATOM     21  C   UNL     1       2.200   7.284  19.262  0.00  0.00    +0.000 C 
ATOM     22  O   UNL     1       1.947   7.807  18.178  0.00  0.00    +0.000 OA
ATOM     23  S   UNL     1       0.713   9.440  22.185  0.00  0.00    +0.000 S 
ATOM     24  H   UNL     1       2.096   7.331  21.358  0.00  0.00    +0.000 HD
ENDBRANCH   1  21
BRANCH   2  25
ATOM     25  O   UNL     1       1.359   5.205  20.949  0.00  0.00    +0.000 OA
ATOM     26  H   UNL     1       0.870   4.363  21.025  0.00  0.00    +0.000 HD
ENDBRANCH   2  25
TORSDOF 2
ENDMDL
MODEL 2
REMARK VINA RESULT:      -7.5      1.666      1.860
REMARK  Name = 
REMARK  4 active torsions:
REMARK  status: ('A' for Active; 'I' for Inactive)
REMARK    1  A    between atoms: C_1  and  C_2
REMARK    2  A    between atoms: C_7  and  C_9
REMARK    3  A    between atoms: C_10  and  O_11
REMARK    4  A    between atoms: N_12  and  C_13
REMARK                            x       y       z     vdW  Elec       q    Type
REMARK                         _______ _______ _______ _____ _____    ______ ____
ROOT
ATOM      1  C   UNL     1       2.424   5.348  19.266  0.00  0.00    +0.000 C 
ATOM      2  C   UNL     1       1.686   4.271  19.626  0.00  0.00    +0.000 C 
ATOM      3  N   UNL     1       2.061   2.948  19.274  0.00  0.00    +0.000 N 
ATOM      4  C   UNL     1       1.165   1.808  19.589  0.00  0.00    +0.000 C 
ATOM      5  S   UNL     1       2.986   2.662  17.890  0.00  0.00    +0.000 S 
ATOM      6  O   UNL     1       2.081   2.501  16.769  0.00  0.00    +0.000 OA
ATOM      7  O   UNL     1       3.953   1.639  18.225  0.00  0.00    +0.000 OA
ATOM      8  C   UNL     1       3.879   4.130  17.598  0.00  0.00    +0.000 A 
ATOM      9  C   UNL     1       4.877   4.074  16.608  0.00  0.00    +0.000 A 
ATOM     10  C   UNL     1       5.590   5.218  16.294  0.00  0.00    +0.000 A 
ATOM     11 CL   UNL     1       6.775   5.183  15.050  0.00  0.00    +0.000 Cl
ATOM     12  C   UNL     1       5.334   6.394  16.984  0.00  0.00    +0.000 A 
ATOM     13  C   UNL     1       4.350   6.422  17.985  0.00  0.00    +0.000 A 
ATOM     14  C   UNL     1       3.566   5.292  18.301  0.00  0.00    +0.000 A 
ENDROOT
BRANCH   1  21
ATOM     15  C   UNL     1       0.873  12.781  18.701  0.00  0.00    +0.000 C 
ATOM     16  C   UNL     1       1.105  11.370  19.102  0.00  0.00    +0.000 A 
ATOM     17  C   UNL     1       0.946  10.786  20.343  0.00  0.00    +0.000 A 
ATOM     18  N   UNL     1       1.216   9.437  20.403  0.00  0.00    +0.000 NA
ATOM     19  C   UNL     1       1.561   9.000  19.219  0.00  0.00    +0.000 A 
ATOM     20  N   UNL     1       1.898   7.721  18.849  0.00  0.00    +0.000 N 
ATOM     21  C   UNL     1       1.943   6.698  19.776  0.00  0.00    +0.000 C 
ATOM     22  O   UNL     1       1.643   6.806  20.965  0.00  0.00    +0.000 OA
ATOM     23  S   UNL     1       1.630  10.173  17.980  0.00  0.00    +0.000 S 
ATOM     24  H   UNL     1       2.156   7.573  17.881  0.00  0.00    +0.000 HD
ENDBRANCH   1  21
BRANCH   2  25
ATOM     25  O   UNL     1       0.587   4.336  20.453  0.00  0.00    +0.000 OA
ATOM     26  H   UNL     1       0.399   5.279  20.629  0.00  0.00    +0.000 HD
ENDBRANCH   2  25
TORSDOF 2
ENDMDL
MODEL 3
REMARK VINA RESULT:      -7.5      2.481      3.740
REMARK  Name = 
REMARK  4 active torsions:
REMARK  status: ('A' for Active; 'I' for Inactive)
REMARK    1  A    between atoms: C_1  and  C_2
REMARK    2  A    between atoms: C_7  and  C_9
REMARK    3  A    between atoms: C_10  and  O_11
REMARK    4  A    between atoms: N_12  and  C_13
REMARK                            x       y       z     vdW  Elec       q    Type
REMARK                         _______ _______ _______ _____ _____    ______ ____
ROOT
ATOM      1  C   UNL     1       2.965   6.549  18.300  0.00  0.00    +0.000 C 
ATOM      2  C   UNL     1       4.004   6.607  17.433  0.00  0.00    +0.000 C 
ATOM      3  N   UNL     1       4.751   5.455  17.073  0.00  0.00    +0.000 N 
ATOM      4  C   UNL     1       5.952   5.581  16.211  0.00  0.00    +0.000 C 
ATOM      5  S   UNL     1       4.872   4.149  18.137  0.00  0.00    +0.000 S 
ATOM      6  O   UNL     1       6.007   4.380  19.008  0.00  0.00    +0.000 OA
ATOM      7  O   UNL     1       4.769   2.941  17.346  0.00  0.00    +0.000 OA
ATOM      8  C   UNL     1       3.452   4.219  19.146  0.00  0.00    +0.000 A 
ATOM      9  C   UNL     1       3.222   3.115  19.987  0.00  0.00    +0.000 A 
ATOM     10  C   UNL     1       2.138   3.129  20.848  0.00  0.00    +0.000 A 
ATOM     11 CL   UNL     1       1.872   1.815  21.922  0.00  0.00    +0.000 Cl
ATOM     12  C   UNL     1       1.276   4.216  20.843  0.00  0.00    +0.000 A 
ATOM     13  C   UNL     1       1.510   5.297  19.978  0.00  0.00    +0.000 A 
ATOM     14  C   UNL     1       2.631   5.344  19.122  0.00  0.00    +0.000 A 
ENDROOT
BRANCH   1  21
ATOM     15  C   UNL     1      -0.756  11.701  22.492  0.00  0.00    +0.000 C 
ATOM     16  C   UNL     1      -0.111  10.872  21.443  0.00  0.00    +0.000 A 
ATOM     17  C   UNL     1      -0.049  11.094  20.081  0.00  0.00    +0.000 A 
ATOM     18  N   UNL     1       0.649  10.152  19.358  0.00  0.00    +0.000 NA
ATOM     19  C   UNL     1       1.123   9.236  20.162  0.00  0.00    +0.000 A 
ATOM     20  N   UNL     1       1.879   8.135  19.845  0.00  0.00    +0.000 N 
ATOM     21  C   UNL     1       2.208   7.847  18.535  0.00  0.00    +0.000 C 
ATOM     22  O   UNL     1       1.921   8.546  17.563  0.00  0.00    +0.000 OA
ATOM     23  S   UNL     1       0.729   9.415  21.814  0.00  0.00    +0.000 S 
ATOM     24  H   UNL     1       2.144   7.522  20.606  0.00  0.00    +0.000 HD
ENDBRANCH   1  21
BRANCH   2  25
ATOM     25  O   UNL     1       4.358   7.740  16.735  0.00  0.00    +0.000 OA
ATOM     26  H   UNL     1       5.135   8.135  17.177  0.00  0.00    +0.000 HD
ENDBRANCH   2  25
TORSDOF 2
ENDMDL
MODEL 4
REMARK VINA RESULT:      -7.4      3.524      7.088
REMARK  Name = 
REMARK  4 active torsions:
REMARK  status: ('A' for Active; 'I' for Inactive)
REMARK    1  A    between atoms: C_1  and  C_2
REMARK    2  A    between atoms: C_7  and  C_9
REMARK    3  A    between atoms: C_10  and  O_11
REMARK    4  A    between atoms: N_12  and  C_13
REMARK                            x       y       z     vdW  Elec       q    Type
REMARK                         _______ _______ _______ _____ _____    ______ ____
ROOT
ATOM      1  C   UNL     1       3.800   5.029  17.977  0.00  0.00    +0.000 C 
ATOM      2  C   UNL     1       3.690   3.787  18.507  0.00  0.00    +0.000 C 
ATOM      3  N   UNL     1       2.660   3.446  19.422  0.00  0.00    +0.000 N 
ATOM      4  C   UNL     1       2.644   2.109  20.067  0.00  0.00    +0.000 C 
ATOM      5  S   UNL     1       1.964   4.630  20.406  0.00  0.00    +0.000 S 
ATOM      6  O   UNL     1       2.750   4.727  21.619  0.00  0.00    +0.000 OA
ATOM      7  O   UNL     1       0.542   4.366  20.452  0.00  0.00    +0.000 OA
ATOM      8  C   UNL     1       2.174   6.140  19.559  0.00  0.00    +0.000 A 
ATOM      9  C   UNL     1       1.498   7.256  20.086  0.00  0.00    +0.000 A 
ATOM     10  C   UNL     1       1.661   8.494  19.490  0.00  0.00    +0.000 A 
ATOM     11 CL   UNL     1       0.888   9.879  20.150  0.00  0.00    +0.000 Cl
ATOM     12  C   UNL     1       2.459   8.609  18.361  0.00  0.00    +0.000 A 
ATOM     13  C   UNL     1       3.106   7.478  17.837  0.00  0.00    +0.000 A 
ATOM     14  C   UNL     1       3.007   6.208  18.445  0.00  0.00    +0.000 A 
ENDROOT
BRANCH   1  21
ATOM     15  C   UNL     1       7.387   3.823  11.371  0.00  0.00    +0.000 C 
ATOM     16  C   UNL     1       6.930   4.225  12.725  0.00  0.00    +0.000 A 
ATOM     17  C   UNL     1       7.556   5.048  13.641  0.00  0.00    +0.000 A 
ATOM     18  N   UNL     1       6.869   5.259  14.815  0.00  0.00    +0.000 NA
ATOM     19  C   UNL     1       5.729   4.617  14.785  0.00  0.00    +0.000 A 
ATOM     20  N   UNL     1       4.751   4.574  15.748  0.00  0.00    +0.000 N 
ATOM     21  C   UNL     1       4.907   5.230  16.954  0.00  0.00    +0.000 C 
ATOM     22  O   UNL     1       5.867   5.938  17.255  0.00  0.00    +0.000 OA
ATOM     23  S   UNL     1       5.431   3.689  13.382  0.00  0.00    +0.000 S 
ATOM     24  H   UNL     1       3.937   4.004  15.554  0.00  0.00    +0.000 HD
ENDBRANCH   1  21
BRANCH   2  25
ATOM     25  O   UNL     1       4.475   2.720  18.131  0.00  0.00    +0.000 OA
ATOM     26  H   UNL     1       3.928   2.121  17.585  0.00  0.00    +0.000 HD
ENDBRANCH   2  25
TORSDOF 2
ENDMDL
MODEL 5
REMARK VINA RESULT:      -7.2      2.583      3.608
REMARK  Name = 
REMARK  4 active torsions:
REMARK  status: ('A' for Active; 'I' for Inactive)
REMARK    1  A    between atoms: C_1  and  C_2
REMARK    2  A    between atoms: C_7  and  C_9
REMARK    3  A    between atoms: C_10  and  O_11
REMARK    4  A    between atoms: N_12  and  C_13
REMARK                            x       y       z     vdW  Elec       q    Type
REMARK                         _______ _______ _______ _____ _____    ______ ____
ROOT
ATOM      1  C   UNL     1       3.485   6.667  17.783  0.00  0.00    +0.000 C 
ATOM      2  C   UNL     1       4.769   6.932  17.446  0.00  0.00    +0.000 C 
ATOM      3  N   UNL     1       5.653   5.920  16.988  0.00  0.00    +0.000 N 
ATOM      4  C   UNL     1       7.083   6.231  16.741  0.00  0.00    +0.000 C 
ATOM      5  S   UNL     1       5.429   4.313  17.458  0.00  0.00    +0.000 S 
ATOM      6  O   UNL     1       6.139   4.104  18.704  0.00  0.00    +0.000 OA
ATOM      7  O   UNL     1       5.692   3.487  16.299  0.00  0.00    +0.000 OA
ATOM      8  C   UNL     1       3.732   4.153  17.823  0.00  0.00    +0.000 A 
ATOM      9  C   UNL     1       3.257   2.848  18.048  0.00  0.00    +0.000 A 
ATOM     10  C   UNL     1       1.929   2.656  18.389  0.00  0.00    +0.000 A 
ATOM     11 CL   UNL     1       1.343   1.075  18.722  0.00  0.00    +0.000 Cl
ATOM     12  C   UNL     1       1.080   3.749  18.470  0.00  0.00    +0.000 A 
ATOM     13  C   UNL     1       1.569   5.042  18.217  0.00  0.00    +0.000 A 
ATOM     14  C   UNL     1       2.926   5.285  17.916  0.00  0.00    +0.000 A 
ENDROOT
BRANCH   1  21
ATOM     15  C   UNL     1      -0.787  10.801  22.539  0.00  0.00    +0.000 C 
ATOM     16  C   UNL     1      -0.034  10.203  21.408  0.00  0.00    +0.000 A 
ATOM     17  C   UNL     1       0.085  10.658  20.110  0.00  0.00    +0.000 A 
ATOM     18  N   UNL     1       0.881   9.897  19.285  0.00  0.00    +0.000 NA
ATOM     19  C   UNL     1       1.372   8.884  19.951  0.00  0.00    +0.000 A 
ATOM     20  N   UNL     1       2.216   7.898  19.501  0.00  0.00    +0.000 N 
ATOM     21  C   UNL     1       2.632   7.860  18.185  0.00  0.00    +0.000 C 
ATOM     22  O   UNL     1       2.350   8.699  17.329  0.00  0.00    +0.000 OA
ATOM     23  S   UNL     1       0.880   8.753  21.581  0.00  0.00    +0.000 S 
ATOM     24  H   UNL     1       2.480   7.179  20.164  0.00  0.00    +0.000 HD
ENDBRANCH   1  21
BRANCH   2  25
ATOM     25  O   UNL     1       5.304   8.200  17.400  0.00  0.00    +0.000 OA
ATOM     26  H   UNL     1       5.512   8.405  16.467  0.00  0.00    +0.000 HD
ENDBRANCH   2  25
TORSDOF 2
ENDMDL
MODEL 6
REMARK VINA RESULT:      -6.8      4.428      8.482
REMARK  Name = 
REMARK  4 active torsions:
REMARK  status: ('A' for Active; 'I' for Inactive)
REMARK    1  A    between atoms: C_1  and  C_2
REMARK    2  A    between atoms: C_7  and  C_9
REMARK    3  A    between atoms: C_10  and  O_11
REMARK    4  A    between atoms: N_12  and  C_13
REMARK                            x       y       z     vdW  Elec       q    Type
REMARK                         _______ _______ _______ _____ _____    ______ ____
ROOT
ATOM      1  C   UNL     1       0.079  10.460  19.249  0.00  0.00    +0.000 C 
ATOM      2  C   UNL     1       0.413  11.141  20.371  0.00  0.00    +0.000 C 
ATOM      3  N   UNL     1      -0.534  11.909  21.097  0.00  0.00    +0.000 N 
ATOM      4  C   UNL     1      -0.100  12.732  22.254  0.00  0.00    +0.000 C 
ATOM      5  S   UNL     1      -1.874  12.575  20.315  0.00  0.00    +0.000 S 
ATOM      6  O   UNL     1      -1.497  13.876  19.802  0.00  0.00    +0.000 OA
ATOM      7  O   UNL     1      -3.008  12.420  21.202  0.00  0.00    +0.000 OA
ATOM      8  C   UNL     1      -2.171  11.563  18.927  0.00  0.00    +0.000 A 
ATOM      9  C   UNL     1      -3.366  11.797  18.221  0.00  0.00    +0.000 A 
ATOM     10  C   UNL     1      -3.639  11.061  17.082  0.00  0.00    +0.000 A 
ATOM     11 CL   UNL     1      -5.065  11.369  16.175  0.00  0.00    +0.000 Cl
ATOM     12  C   UNL     1      -2.748  10.079  16.673  0.00  0.00    +0.000 A 
ATOM     13  C   UNL     1      -1.573   9.845  17.406  0.00  0.00    +0.000 A 
ATOM     14  C   UNL     1      -1.233  10.607  18.544  0.00  0.00    +0.000 A 
ENDROOT
BRANCH   1  21
ATOM     15  C   UNL     1       4.745   4.466  18.735  0.00  0.00    +0.000 C 
ATOM     16  C   UNL     1       3.993   5.739  18.600  0.00  0.00    +0.000 A 
ATOM     17  C   UNL     1       4.158   6.748  17.671  0.00  0.00    +0.000 A 
ATOM     18  N   UNL     1       3.284   7.806  17.783  0.00  0.00    +0.000 NA
ATOM     19  C   UNL     1       2.456   7.596  18.773  0.00  0.00    +0.000 A 
ATOM     20  N   UNL     1       1.430   8.398  19.209  0.00  0.00    +0.000 N 
ATOM     21  C   UNL     1       1.177   9.619  18.616  0.00  0.00    +0.000 C 
ATOM     22  O   UNL     1       1.778  10.071  17.642  0.00  0.00    +0.000 OA
ATOM     23  S   UNL     1       2.698   6.154  19.657  0.00  0.00    +0.000 S 
ATOM     24  H   UNL     1       0.901   8.076  20.010  0.00  0.00    +0.000 HD
ENDBRANCH   1  21
BRANCH   2  25
ATOM     25  O   UNL     1       1.649  11.064  20.975  0.00  0.00    +0.000 OA
ATOM     26  H   UNL     1       1.729  10.181  21.385  0.00  0.00    +0.000 HD
ENDBRANCH   2  25
TORSDOF 2
ENDMDL
MODEL 7
REMARK VINA RESULT:      -6.7      4.228      8.339
REMARK  Name = 
REMARK  4 active torsions:
REMARK  status: ('A' for Active; 'I' for Inactive)
REMARK    1  A    between atoms: C_1  and  C_2
REMARK    2  A    between atoms: C_7  and  C_9
REMARK    3  A    between atoms: C_10  and  O_11
REMARK    4  A    between atoms: N_12  and  C_13
REMARK                            x       y       z     vdW  Elec       q    Type
REMARK                         _______ _______ _______ _____ _____    ______ ____
ROOT
ATOM      1  C   UNL     1      -0.304  10.113  20.289  0.00  0.00    +0.000 C 
ATOM      2  C   UNL     1      -0.209  10.964  21.339  0.00  0.00    +0.000 C 
ATOM      3  N   UNL     1      -1.083  12.072  21.492  0.00  0.00    +0.000 N 
ATOM      4  C   UNL     1      -0.871  13.045  22.593  0.00  0.00    +0.000 C 
ATOM      5  S   UNL     1      -1.795  12.793  20.141  0.00  0.00    +0.000 S 
ATOM      6  O   UNL     1      -0.893  13.814  19.647  0.00  0.00    +0.000 OA
ATOM      7  O   UNL     1      -3.163  13.108  20.494  0.00  0.00    +0.000 OA
ATOM      8  C   UNL     1      -1.858  11.555  18.915  0.00  0.00    +0.000 A 
ATOM      9  C   UNL     1      -2.594  11.855  17.754  0.00  0.00    +0.000 A 
ATOM     10  C   UNL     1      -2.645  10.934  16.722  0.00  0.00    +0.000 A 
ATOM     11 CL   UNL     1      -3.492  11.305  15.275  0.00  0.00    +0.000 Cl
ATOM     12  C   UNL     1      -1.998   9.715  16.863  0.00  0.00    +0.000 A 
ATOM     13  C   UNL     1      -1.288   9.426  18.040  0.00  0.00    +0.000 A 
ATOM     14  C   UNL     1      -1.170  10.356  19.094  0.00  0.00    +0.000 A 
ENDROOT
BRANCH   1  21
ATOM     15  C   UNL     1       4.977   5.501  17.323  0.00  0.00    +0.000 C 
ATOM     16  C   UNL     1       3.945   6.201  18.128  0.00  0.00    +0.000 A 
ATOM     17  C   UNL     1       3.429   5.857  19.362  0.00  0.00    +0.000 A 
ATOM     18  N   UNL     1       2.492   6.725  19.876  0.00  0.00    +0.000 NA
ATOM     19  C   UNL     1       2.309   7.722  19.050  0.00  0.00    +0.000 A 
ATOM     20  N   UNL     1       1.471   8.801  19.191  0.00  0.00    +0.000 N 
ATOM     21  C   UNL     1       0.649   8.927  20.293  0.00  0.00    +0.000 C 
ATOM     22  O   UNL     1       0.622   8.153  21.249  0.00  0.00    +0.000 OA
ATOM     23  S   UNL     1       3.204   7.663  17.596  0.00  0.00    +0.000 S 
ATOM     24  H   UNL     1       1.451   9.472  18.432  0.00  0.00    +0.000 HD
ENDBRANCH   1  21
BRANCH   2  25
ATOM     25  O   UNL     1       0.646  10.779  22.402  0.00  0.00    +0.000 OA
ATOM     26  H   UNL     1       0.158  10.991  23.221  0.00  0.00    +0.000 HD
ENDBRANCH   2  25
TORSDOF 2
ENDMDL
MODEL 8
REMARK VINA RESULT:      -6.6      7.022      8.902
REMARK  Name = 
REMARK  4 active torsions:
REMARK  status: ('A' for Active; 'I' for Inactive)
REMARK    1  A    between atoms: C_1  and  C_2
REMARK    2  A    between atoms: C_7  and  C_9
REMARK    3  A    between atoms: C_10  and  O_11
REMARK    4  A    between atoms: N_12  and  C_13
REMARK                            x       y       z     vdW  Elec       q    Type
REMARK                         _______ _______ _______ _____ _____    ______ ____
ROOT
ATOM      1  C   UNL     1      -0.423  13.154  21.824  0.00  0.00    +0.000 C 
ATOM      2  C   UNL     1       0.197  14.290  22.221  0.00  0.00    +0.000 C 
ATOM      3  N   UNL     1       1.273  14.858  21.490  0.00  0.00    +0.000 N 
ATOM      4  C   UNL     1       1.999  16.038  22.022  0.00  0.00    +0.000 C 
ATOM      5  S   UNL     1       2.268  13.881  20.537  0.00  0.00    +0.000 S 
ATOM      6  O   UNL     1       3.345  13.386  21.370  0.00  0.00    +0.000 OA
ATOM      7  O   UNL     1       2.539  14.609  19.315  0.00  0.00    +0.000 OA
ATOM      8  C   UNL     1       1.303  12.496  20.101  0.00  0.00    +0.000 A 
ATOM      9  C   UNL     1       1.849  11.627  19.137  0.00  0.00    +0.000 A 
ATOM     10  C   UNL     1       1.156  10.484  18.782  0.00  0.00    +0.000 A 
ATOM     11 CL   UNL     1       1.830   9.382  17.649  0.00  0.00    +0.000 Cl
ATOM     12  C   UNL     1      -0.082  10.229  19.354  0.00  0.00    +0.000 A 
ATOM     13  C   UNL     1      -0.620  11.122  20.295  0.00  0.00    +0.000 A 
ATOM     14  C   UNL     1       0.077  12.273  20.722  0.00  0.00    +0.000 A 
ENDROOT
BRANCH   1  21
ATOM     15  C   UNL     1      -7.638  13.364  24.245  0.00  0.00    +0.000 C 
ATOM     16  C   UNL     1      -6.196  13.117  23.991  0.00  0.00    +0.000 A 
ATOM     17  C   UNL     1      -5.344  12.234  24.624  0.00  0.00    +0.000 A 
ATOM     18  N   UNL     1      -4.053  12.208  24.146  0.00  0.00    +0.000 NA
ATOM     19  C   UNL     1      -3.931  13.051  23.153  0.00  0.00    +0.000 A 
ATOM     20  N   UNL     1      -2.815  13.320  22.399  0.00  0.00    +0.000 N 
ATOM     21  C   UNL     1      -1.608  12.701  22.663  0.00  0.00    +0.000 C 
ATOM     22  O   UNL     1      -1.427  11.841  23.523  0.00  0.00    +0.000 OA
ATOM     23  S   UNL     1      -5.327  13.953  22.761  0.00  0.00    +0.000 S 
ATOM     24  H   UNL     1      -2.905  14.023  21.676  0.00  0.00    +0.000 HD
ENDBRANCH   1  21
BRANCH   2  25
ATOM     25  O   UNL     1      -0.219  15.059  23.286  0.00  0.00    +0.000 OA
ATOM     26  H   UNL     1       0.503  15.678  23.510  0.00  0.00    +0.000 HD
ENDBRANCH   2  25
TORSDOF 2
ENDMDL
MODEL 9
REMARK VINA RESULT:      -6.6      8.105      9.687
REMARK  Name = 
REMARK  4 active torsions:
REMARK  status: ('A' for Active; 'I' for Inactive)
REMARK    1  A    between atoms: C_1  and  C_2
REMARK    2  A    between atoms: C_7  and  C_9
REMARK    3  A    between atoms: C_10  and  O_11
REMARK    4  A    between atoms: N_12  and  C_13
REMARK                            x       y       z     vdW  Elec       q    Type
REMARK                         _______ _______ _______ _____ _____    ______ ____
ROOT
ATOM      1  C   UNL     1      -3.003  12.150  19.626  0.00  0.00    +0.000 C 
ATOM      2  C   UNL     1      -4.015  12.632  20.386  0.00  0.00    +0.000 C 
ATOM      3  N   UNL     1      -5.378  12.403  20.061  0.00  0.00    +0.000 N 
ATOM      4  C   UNL     1      -6.454  13.045  20.855  0.00  0.00    +0.000 C 
ATOM      5  S   UNL     1      -5.842  12.148  18.457  0.00  0.00    +0.000 S 
ATOM      6  O   UNL     1      -6.112  13.438  17.855  0.00  0.00    +0.000 OA
ATOM      7  O   UNL     1      -6.840  11.100  18.461  0.00  0.00    +0.000 OA
ATOM      8  C   UNL     1      -4.436  11.509  17.647  0.00  0.00    +0.000 A 
ATOM      9  C   UNL     1      -4.628  11.025  16.340  0.00  0.00    +0.000 A 
ATOM     10  C   UNL     1      -3.544  10.549  15.624  0.00  0.00    +0.000 A 
ATOM     11 CL   UNL     1      -3.748  10.006  14.006  0.00  0.00    +0.000 Cl
ATOM     12  C   UNL     1      -2.291  10.522  16.219  0.00  0.00    +0.000 A 
ATOM     13  C   UNL     1      -2.126  10.986  17.534  0.00  0.00    +0.000 A 
ATOM     14  C   UNL     1      -3.195  11.526  18.280  0.00  0.00    +0.000 A 
ENDROOT
BRANCH   1  21
ATOM     15  C   UNL     1       3.807  15.554  19.646  0.00  0.00    +0.000 C 
ATOM     16  C   UNL     1       2.600  14.717  19.858  0.00  0.00    +0.000 A 
ATOM     17  C   UNL     1       2.408  13.685  20.755  0.00  0.00    +0.000 A 
ATOM     18  N   UNL     1       1.159  13.106  20.737  0.00  0.00    +0.000 NA
ATOM     19  C   UNL     1       0.407  13.702  19.848  0.00  0.00    +0.000 A 
ATOM     20  N   UNL     1      -0.902  13.437  19.525  0.00  0.00    +0.000 N 
ATOM     21  C   UNL     1      -1.593  12.409  20.136  0.00  0.00    +0.000 C 
ATOM     22  O   UNL     1      -1.150  11.692  21.032  0.00  0.00    +0.000 OA
ATOM     23  S   UNL     1       1.154  14.949  18.951  0.00  0.00    +0.000 S 
ATOM     24  H   UNL     1      -1.319  13.996  18.792  0.00  0.00    +0.000 HD
ENDBRANCH   1  21
BRANCH   2  25
ATOM     25  O   UNL     1      -3.831  13.276  21.590  0.00  0.00    +0.000 OA
ATOM     26  H   UNL     1      -2.881  13.233  21.812  0.00  0.00    +0.000 HD
ENDBRANCH   2  25
TORSDOF 2
ENDMDL
