MODEL 1
REMARK VINA RESULT:      -7.9      0.000      0.000
REMARK  Name = 
REMARK  8 active torsions:
REMARK  status: ('A' for Active; 'I' for Inactive)
REMARK    1  A    between atoms: C_1  and  C_2
REMARK    2  A    between atoms: C_8  and  C_10
REMARK    3  A    between atoms: C_10  and  O_11
REMARK    4  A    between atoms: O_11  and  C_12
REMARK    5  A    between atoms: C_12  and  C_14
REMARK    6  A    between atoms: C_18  and  N_19
REMARK    7  A    between atoms: N_19  and  S_20
REMARK    8  A    between atoms: S_20  and  C_23
REMARK                            x       y       z     vdW  Elec       q    Type
REMARK                         _______ _______ _______ _____ _____    ______ ____
ROOT
ATOM      1  C   UNL     1       2.994   6.017  18.921  0.00  0.00    +0.000 A 
ATOM      2  C   UNL     1       2.176   5.045  18.323  0.00  0.00    +0.000 A 
ATOM      3  C   UNL     1       2.701   3.799  17.980  0.00  0.00    +0.000 A 
ATOM      4  C   UNL     1       4.049   3.522  18.219  0.00  0.00    +0.000 A 
ATOM      5  C   UNL     1       4.872   4.498  18.788  0.00  0.00    +0.000 A 
ATOM      6  C   UNL     1       4.352   5.744  19.139  0.00  0.00    +0.000 A 
ENDROOT
BRANCH   1   7
ATOM      7  C   UNL     1       2.382   7.322  19.281  0.00  0.00    +0.000 C 
ATOM      8  O   UNL     1       1.780   7.501  20.329  0.00  0.00    +0.000 OA
BRANCH   7   9
ATOM      9  O   UNL     1       2.613   8.251  18.321  0.00  0.00    +0.000 OA
BRANCH   9  10
ATOM     10  C   UNL     1       1.486   9.052  17.929  0.00  0.00    +0.000 C 
BRANCH  10  18
ATOM     11  C   UNL     1      -0.429  10.349  21.158  0.00  0.00    +0.000 C 
ATOM     12  C   UNL     1      -0.515  10.487  19.633  0.00  0.00    +0.000 C 
ATOM     13  C   UNL     1      -1.777  11.262  19.211  0.00  0.00    +0.000 C 
ATOM     14  C   UNL     1      -1.695  12.743  19.577  0.00  0.00    +0.000 C 
ATOM     15  C   UNL     1      -0.421  13.367  19.019  0.00  0.00    +0.000 C 
ATOM     16  C   UNL     1       0.830  12.570  19.400  0.00  0.00    +0.000 C 
ATOM     17  N   UNL     1       0.681  11.150  19.070  0.00  0.00    +0.000 N 
ATOM     18  C   UNL     1       1.658  10.542  18.274  0.00  0.00    +0.000 C 
ATOM     19  O   UNL     1       2.626  11.175  17.840  0.00  0.00    +0.000 OA
ENDBRANCH  10  18
ENDBRANCH   9  10
ENDBRANCH   7   9
ENDBRANCH   1   7
BRANCH   5  20
ATOM     20  N   UNL     1       6.251   4.223  19.009  0.00  0.00    +0.000 N 
ATOM     21  H   UNL     1       6.573   4.245  19.978  0.00  0.00    +0.000 HD
BRANCH  20  22
ATOM     22  S   UNL     1       7.403   4.967  18.011  0.00  0.00    +0.000 S 
ATOM     23  O   UNL     1       7.610   6.338  18.428  0.00  0.00    +0.000 OA
ATOM     24  O   UNL     1       8.509   4.037  17.946  0.00  0.00    +0.000 OA
BRANCH  22  25
ATOM     25  C   UNL     1       6.612   4.961  16.418  0.00  0.00    +0.000 A 
ATOM     26  C   UNL     1       5.856   6.056  15.988  0.00  0.00    +0.000 A 
ATOM     27  C   UNL     1       5.261   6.022  14.724  0.00  0.00    +0.000 A 
ATOM     28  C   UNL     1       5.443   4.917  13.888  0.00  0.00    +0.000 A 
ATOM     29  C   UNL     1       6.230   3.844  14.308  0.00  0.00    +0.000 A 
ATOM     30  C   UNL     1       6.818   3.866  15.571  0.00  0.00    +0.000 A 
ENDBRANCH  22  25
ENDBRANCH  20  22
ENDBRANCH   5  20
TORSDOF 7
ENDMDL
MODEL 2
REMARK VINA RESULT:      -7.8      1.273      1.575
REMARK  Name = 
REMARK  8 active torsions:
REMARK  status: ('A' for Active; 'I' for Inactive)
REMARK    1  A    between atoms: C_1  and  C_2
REMARK    2  A    between atoms: C_8  and  C_10
REMARK    3  A    between atoms: C_10  and  O_11
REMARK    4  A    between atoms: O_11  and  C_12
REMARK    5  A    between atoms: C_12  and  C_14
REMARK    6  A    between atoms: C_18  and  N_19
REMARK    7  A    between atoms: N_19  and  S_20
REMARK    8  A    between atoms: S_20  and  C_23
REMARK                            x       y       z     vdW  Elec       q    Type
REMARK                         _______ _______ _______ _____ _____    ______ ____
ROOT
ATOM      1  C   UNL     1       2.790   5.935  18.282  0.00  0.00    +0.000 A 
ATOM      2  C   UNL     1       1.700   5.077  18.065  0.00  0.00    +0.000 A 
ATOM      3  C   UNL     1       1.896   3.823  17.488  0.00  0.00    +0.000 A 
ATOM      4  C   UNL     1       3.180   3.424  17.111  0.00  0.00    +0.000 A 
ATOM      5  C   UNL     1       4.263   4.286  17.300  0.00  0.00    +0.000 A 
ATOM      6  C   UNL     1       4.074   5.540  17.882  0.00  0.00    +0.000 A 
ENDROOT
BRANCH   1   7
ATOM      7  C   UNL     1       2.528   7.253  18.914  0.00  0.00    +0.000 C 
ATOM      8  O   UNL     1       2.208   7.370  20.088  0.00  0.00    +0.000 OA
BRANCH   7   9
ATOM      9  O   UNL     1       2.723   8.265  18.033  0.00  0.00    +0.000 OA
BRANCH   9  10
ATOM     10  C   UNL     1       1.564   9.048  17.699  0.00  0.00    +0.000 C 
BRANCH  10  18
ATOM     11  C   UNL     1      -0.422  10.163  20.953  0.00  0.00    +0.000 C 
ATOM     12  C   UNL     1      -0.491  10.365  19.434  0.00  0.00    +0.000 C 
ATOM     13  C   UNL     1      -1.764  11.129  19.027  0.00  0.00    +0.000 C 
ATOM     14  C   UNL     1      -1.720  12.595  19.457  0.00  0.00    +0.000 C 
ATOM     15  C   UNL     1      -0.452  13.270  18.945  0.00  0.00    +0.000 C 
ATOM     16  C   UNL     1       0.811  12.484  19.310  0.00  0.00    +0.000 C 
ATOM     17  N   UNL     1       0.697  11.076  18.918  0.00  0.00    +0.000 N 
ATOM     18  C   UNL     1       1.699  10.525  18.110  0.00  0.00    +0.000 C 
ATOM     19  O   UNL     1       2.658  11.197  17.717  0.00  0.00    +0.000 OA
ENDBRANCH  10  18
ENDBRANCH   9  10
ENDBRANCH   7   9
ENDBRANCH   1   7
BRANCH   5  20
ATOM     20  N   UNL     1       5.568   3.889  16.893  0.00  0.00    +0.000 N 
ATOM     21  H   UNL     1       6.079   3.274  17.529  0.00  0.00    +0.000 HD
BRANCH  20  22
ATOM     22  S   UNL     1       6.622   5.061  16.267  0.00  0.00    +0.000 S 
ATOM     23  O   UNL     1       6.027   6.376  16.383  0.00  0.00    +0.000 OA
ATOM     24  O   UNL     1       7.909   4.774  16.863  0.00  0.00    +0.000 OA
BRANCH  22  25
ATOM     25  C   UNL     1       6.726   4.623  14.546  0.00  0.00    +0.000 A 
ATOM     26  C   UNL     1       5.846   3.689  13.989  0.00  0.00    +0.000 A 
ATOM     27  C   UNL     1       5.948   3.381  12.630  0.00  0.00    +0.000 A 
ATOM     28  C   UNL     1       6.899   4.020  11.830  0.00  0.00    +0.000 A 
ATOM     29  C   UNL     1       7.749   4.979  12.384  0.00  0.00    +0.000 A 
ATOM     30  C   UNL     1       7.660   5.284  13.741  0.00  0.00    +0.000 A 
ENDBRANCH  22  25
ENDBRANCH  20  22
ENDBRANCH   5  20
TORSDOF 7
ENDMDL
MODEL 3
REMARK VINA RESULT:      -7.8      1.734      2.406
REMARK  Name = 
REMARK  8 active torsions:
REMARK  status: ('A' for Active; 'I' for Inactive)
REMARK    1  A    between atoms: C_1  and  C_2
REMARK    2  A    between atoms: C_8  and  C_10
REMARK    3  A    between atoms: C_10  and  O_11
REMARK    4  A    between atoms: O_11  and  C_12
REMARK    5  A    between atoms: C_12  and  C_14
REMARK    6  A    between atoms: C_18  and  N_19
REMARK    7  A    between atoms: N_19  and  S_20
REMARK    8  A    between atoms: S_20  and  C_23
REMARK                            x       y       z     vdW  Elec       q    Type
REMARK                         _______ _______ _______ _____ _____    ______ ____
ROOT
ATOM      1  C   UNL     1       2.709   4.854  18.959  0.00  0.00    +0.000 A 
ATOM      2  C   UNL     1       1.888   3.863  18.400  0.00  0.00    +0.000 A 
ATOM      3  C   UNL     1       2.387   3.009  17.415  0.00  0.00    +0.000 A 
ATOM      4  C   UNL     1       3.705   3.151  16.976  0.00  0.00    +0.000 A 
ATOM      5  C   UNL     1       4.517   4.155  17.511  0.00  0.00    +0.000 A 
ATOM      6  C   UNL     1       4.025   5.008  18.500  0.00  0.00    +0.000 A 
ENDROOT
BRANCH   1   7
ATOM      7  C   UNL     1       2.132   5.727  20.015  0.00  0.00    +0.000 C 
ATOM      8  O   UNL     1       1.304   5.328  20.819  0.00  0.00    +0.000 OA
BRANCH   7   9
ATOM      9  O   UNL     1       2.670   6.970  19.968  0.00  0.00    +0.000 OA
BRANCH   9  10
ATOM     10  C   UNL     1       1.809   8.016  19.487  0.00  0.00    +0.000 C 
BRANCH  10  18
ATOM     11  C   UNL     1      -1.292  10.281  18.472  0.00  0.00    +0.000 C 
ATOM     12  C   UNL     1       0.170  10.453  18.904  0.00  0.00    +0.000 C 
ATOM     13  C   UNL     1       0.611  11.925  18.812  0.00  0.00    +0.000 C 
ATOM     14  C   UNL     1      -0.053  12.795  19.879  0.00  0.00    +0.000 C 
ATOM     15  C   UNL     1       0.171  12.210  21.269  0.00  0.00    +0.000 C 
ATOM     16  C   UNL     1      -0.224  10.732  21.347  0.00  0.00    +0.000 C 
ATOM     17  N   UNL     1       0.403   9.953  20.275  0.00  0.00    +0.000 N 
ATOM     18  C   UNL     1       1.150   8.821  20.621  0.00  0.00    +0.000 C 
ATOM     19  O   UNL     1       1.299   8.477  21.798  0.00  0.00    +0.000 OA
ENDBRANCH  10  18
ENDBRANCH   9  10
ENDBRANCH   7   9
ENDBRANCH   1   7
BRANCH   5  20
ATOM     20  N   UNL     1       5.852   4.314  17.046  0.00  0.00    +0.000 N 
ATOM     21  H   UNL     1       6.596   4.182  17.733  0.00  0.00    +0.000 HD
BRANCH  20  22
ATOM     22  S   UNL     1       6.221   5.642  16.057  0.00  0.00    +0.000 S 
ATOM     23  O   UNL     1       5.084   6.535  15.983  0.00  0.00    +0.000 OA
ATOM     24  O   UNL     1       7.507   6.115  16.519  0.00  0.00    +0.000 OA
BRANCH  22  25
ATOM     25  C   UNL     1       6.472   4.893  14.464  0.00  0.00    +0.000 A 
ATOM     26  C   UNL     1       5.576   3.940  13.969  0.00  0.00    +0.000 A 
ATOM     27  C   UNL     1       5.798   3.385  12.706  0.00  0.00    +0.000 A 
ATOM     28  C   UNL     1       6.888   3.798  11.935  0.00  0.00    +0.000 A 
ATOM     29  C   UNL     1       7.757   4.776  12.419  0.00  0.00    +0.000 A 
ATOM     30  C   UNL     1       7.548   5.328  13.681  0.00  0.00    +0.000 A 
ENDBRANCH  22  25
ENDBRANCH  20  22
ENDBRANCH   5  20
TORSDOF 7
ENDMDL
MODEL 4
REMARK VINA RESULT:      -7.7      3.954     10.196
REMARK  Name = 
REMARK  8 active torsions:
REMARK  status: ('A' for Active; 'I' for Inactive)
REMARK    1  A    between atoms: C_1  and  C_2
REMARK    2  A    between atoms: C_8  and  C_10
REMARK    3  A    between atoms: C_10  and  O_11
REMARK    4  A    between atoms: O_11  and  C_12
REMARK    5  A    between atoms: C_12  and  C_14
REMARK    6  A    between atoms: C_18  and  N_19
REMARK    7  A    between atoms: N_19  and  S_20
REMARK    8  A    between atoms: S_20  and  C_23
REMARK                            x       y       z     vdW  Elec       q    Type
REMARK                         _______ _______ _______ _____ _____    ______ ____
ROOT
ATOM      1  C   UNL     1       0.464  10.146  18.908  0.00  0.00    +0.000 A 
ATOM      2  C   UNL     1       0.373  10.415  20.282  0.00  0.00    +0.000 A 
ATOM      3  C   UNL     1      -0.694  11.163  20.783  0.00  0.00    +0.000 A 
ATOM      4  C   UNL     1      -1.666  11.657  19.911  0.00  0.00    +0.000 A 
ATOM      5  C   UNL     1      -1.563  11.414  18.538  0.00  0.00    +0.000 A 
ATOM      6  C   UNL     1      -0.502  10.662  18.033  0.00  0.00    +0.000 A 
ENDROOT
BRANCH   1   7
ATOM      7  C   UNL     1       1.612   9.332  18.430  0.00  0.00    +0.000 C 
ATOM      8  O   UNL     1       2.190   9.562  17.378  0.00  0.00    +0.000 OA
BRANCH   7   9
ATOM      9  O   UNL     1       1.924   8.358  19.319  0.00  0.00    +0.000 OA
BRANCH   9  10
ATOM     10  C   UNL     1       2.471   7.148  18.769  0.00  0.00    +0.000 C 
BRANCH  10  18
ATOM     11  C   UNL     1       4.926   4.081  18.183  0.00  0.00    +0.000 C 
ATOM     12  C   UNL     1       3.450   4.434  17.966  0.00  0.00    +0.000 C 
ATOM     13  C   UNL     1       2.717   3.325  17.190  0.00  0.00    +0.000 C 
ATOM     14  C   UNL     1       2.535   2.058  18.026  0.00  0.00    +0.000 C 
ATOM     15  C   UNL     1       1.856   2.381  19.353  0.00  0.00    +0.000 C 
ATOM     16  C   UNL     1       2.558   3.517  20.103  0.00  0.00    +0.000 C 
ATOM     17  N   UNL     1       2.749   4.688  19.242  0.00  0.00    +0.000 N 
ATOM     18  C   UNL     1       2.271   5.927  19.685  0.00  0.00    +0.000 C 
ATOM     19  O   UNL     1       1.689   6.049  20.768  0.00  0.00    +0.000 OA
ENDBRANCH  10  18
ENDBRANCH   9  10
ENDBRANCH   7   9
ENDBRANCH   1   7
BRANCH   5  20
ATOM     20  N   UNL     1      -2.541  11.938  17.647  0.00  0.00    +0.000 N 
ATOM     21  H   UNL     1      -2.971  12.826  17.911  0.00  0.00    +0.000 HD
BRANCH  20  22
ATOM     22  S   UNL     1      -3.726  10.894  17.028  0.00  0.00    +0.000 S 
ATOM     23  O   UNL     1      -3.727  10.947  15.582  0.00  0.00    +0.000 OA
ATOM     24  O   UNL     1      -3.530   9.640  17.724  0.00  0.00    +0.000 OA
BRANCH  22  25
ATOM     25  C   UNL     1      -5.239  11.606  17.634  0.00  0.00    +0.000 A 
ATOM     26  C   UNL     1      -5.827  12.697  16.988  0.00  0.00    +0.000 A 
ATOM     27  C   UNL     1      -7.025  13.220  17.484  0.00  0.00    +0.000 A 
ATOM     28  C   UNL     1      -7.641  12.641  18.597  0.00  0.00    +0.000 A 
ATOM     29  C   UNL     1      -7.068  11.529  19.214  0.00  0.00    +0.000 A 
ATOM     30  C   UNL     1      -5.869  11.007  18.731  0.00  0.00    +0.000 A 
ENDBRANCH  22  25
ENDBRANCH  20  22
ENDBRANCH   5  20
TORSDOF 7
ENDMDL
MODEL 5
REMARK VINA RESULT:      -7.7      1.896      2.586
REMARK  Name = 
REMARK  8 active torsions:
REMARK  status: ('A' for Active; 'I' for Inactive)
REMARK    1  A    between atoms: C_1  and  C_2
REMARK    2  A    between atoms: C_8  and  C_10
REMARK    3  A    between atoms: C_10  and  O_11
REMARK    4  A    between atoms: O_11  and  C_12
REMARK    5  A    between atoms: C_12  and  C_14
REMARK    6  A    between atoms: C_18  and  N_19
REMARK    7  A    between atoms: N_19  and  S_20
REMARK    8  A    between atoms: S_20  and  C_23
REMARK                            x       y       z     vdW  Elec       q    Type
REMARK                         _______ _______ _______ _____ _____    ______ ____
ROOT
ATOM      1  C   UNL     1       2.433   5.037  18.976  0.00  0.00    +0.000 A 
ATOM      2  C   UNL     1       1.376   4.128  18.813  0.00  0.00    +0.000 A 
ATOM      3  C   UNL     1       1.576   2.934  18.120  0.00  0.00    +0.000 A 
ATOM      4  C   UNL     1       2.830   2.648  17.575  0.00  0.00    +0.000 A 
ATOM      5  C   UNL     1       3.876   3.564  17.712  0.00  0.00    +0.000 A 
ATOM      6  C   UNL     1       3.684   4.757  18.409  0.00  0.00    +0.000 A 
ENDROOT
BRANCH   1   7
ATOM      7  C   UNL     1       2.170   6.287  19.736  0.00  0.00    +0.000 C 
ATOM      8  O   UNL     1       1.603   6.294  20.818  0.00  0.00    +0.000 OA
BRANCH   7   9
ATOM      9  O   UNL     1       2.665   7.367  19.084  0.00  0.00    +0.000 OA
BRANCH   9  10
ATOM     10  C   UNL     1       1.785   7.997  18.138  0.00  0.00    +0.000 C 
BRANCH  10  18
ATOM     11  C   UNL     1       0.958   9.905  21.522  0.00  0.00    +0.000 C 
ATOM     12  C   UNL     1       0.352   9.719  20.126  0.00  0.00    +0.000 C 
ATOM     13  C   UNL     1      -1.042  10.363  20.029  0.00  0.00    +0.000 C 
ATOM     14  C   UNL     1      -0.977  11.890  20.055  0.00  0.00    +0.000 C 
ATOM     15  C   UNL     1      -0.026  12.407  18.981  0.00  0.00    +0.000 C 
ATOM     16  C   UNL     1       1.347  11.732  19.048  0.00  0.00    +0.000 C 
ATOM     17  N   UNL     1       1.224  10.271  19.067  0.00  0.00    +0.000 N 
ATOM     18  C   UNL     1       1.928   9.529  18.112  0.00  0.00    +0.000 C 
ATOM     19  O   UNL     1       2.632  10.075  17.256  0.00  0.00    +0.000 OA
ENDBRANCH  10  18
ENDBRANCH   9  10
ENDBRANCH   7   9
ENDBRANCH   1   7
BRANCH   5  20
ATOM     20  N   UNL     1       5.147   3.283  17.135  0.00  0.00    +0.000 N 
ATOM     21  H   UNL     1       5.871   2.939  17.768  0.00  0.00    +0.000 HD
BRANCH  20  22
ATOM     22  S   UNL     1       5.820   4.403  16.055  0.00  0.00    +0.000 S 
ATOM     23  O   UNL     1       6.741   3.737  15.159  0.00  0.00    +0.000 OA
ATOM     24  O   UNL     1       4.698   5.157  15.540  0.00  0.00    +0.000 OA
BRANCH  22  25
ATOM     25  C   UNL     1       6.739   5.486  17.127  0.00  0.00    +0.000 A 
ATOM     26  C   UNL     1       7.335   5.002  18.296  0.00  0.00    +0.000 A 
ATOM     27  C   UNL     1       8.062   5.879  19.106  0.00  0.00    +0.000 A 
ATOM     28  C   UNL     1       8.214   7.218  18.737  0.00  0.00    +0.000 A 
ATOM     29  C   UNL     1       7.647   7.686  17.551  0.00  0.00    +0.000 A 
ATOM     30  C   UNL     1       6.913   6.820  16.742  0.00  0.00    +0.000 A 
ENDBRANCH  22  25
ENDBRANCH  20  22
ENDBRANCH   5  20
TORSDOF 7
ENDMDL
MODEL 6
REMARK VINA RESULT:      -7.6      1.854      2.572
REMARK  Name = 
REMARK  8 active torsions:
REMARK  status: ('A' for Active; 'I' for Inactive)
REMARK    1  A    between atoms: C_1  and  C_2
REMARK    2  A    between atoms: C_8  and  C_10
REMARK    3  A    between atoms: C_10  and  O_11
REMARK    4  A    between atoms: O_11  and  C_12
REMARK    5  A    between atoms: C_12  and  C_14
REMARK    6  A    between atoms: C_18  and  N_19
REMARK    7  A    between atoms: N_19  and  S_20
REMARK    8  A    between atoms: S_20  and  C_23
REMARK                            x       y       z     vdW  Elec       q    Type
REMARK                         _______ _______ _______ _____ _____    ______ ____
ROOT
ATOM      1  C   UNL     1       3.131   5.903  18.763  0.00  0.00    +0.000 A 
ATOM      2  C   UNL     1       3.087   4.894  19.737  0.00  0.00    +0.000 A 
ATOM      3  C   UNL     1       3.633   3.637  19.473  0.00  0.00    +0.000 A 
ATOM      4  C   UNL     1       4.216   3.380  18.230  0.00  0.00    +0.000 A 
ATOM      5  C   UNL     1       4.236   4.374  17.249  0.00  0.00    +0.000 A 
ATOM      6  C   UNL     1       3.696   5.634  17.509  0.00  0.00    +0.000 A 
ENDROOT
BRANCH   1   7
ATOM      7  C   UNL     1       2.548   7.227  19.101  0.00  0.00    +0.000 C 
ATOM      8  O   UNL     1       1.995   7.452  20.167  0.00  0.00    +0.000 OA
BRANCH   7   9
ATOM      9  O   UNL     1       2.745   8.118  18.099  0.00  0.00    +0.000 OA
BRANCH   9  10
ATOM     10  C   UNL     1       1.600   8.891  17.702  0.00  0.00    +0.000 C 
BRANCH  10  18
ATOM     11  C   UNL     1      -0.358  10.131  20.927  0.00  0.00    +0.000 C 
ATOM     12  C   UNL     1      -0.442  10.270  19.402  0.00  0.00    +0.000 C 
ATOM     13  C   UNL     1      -1.722  11.013  18.978  0.00  0.00    +0.000 C 
ATOM     14  C   UNL     1      -1.680  12.495  19.347  0.00  0.00    +0.000 C 
ATOM     15  C   UNL     1      -0.420  13.153  18.795  0.00  0.00    +0.000 C 
ATOM     16  C   UNL     1       0.850  12.388  19.178  0.00  0.00    +0.000 C 
ATOM     17  N   UNL     1       0.738  10.965  18.845  0.00  0.00    +0.000 N 
ATOM     18  C   UNL     1       1.734  10.385  18.050  0.00  0.00    +0.000 C 
ATOM     19  O   UNL     1       2.686  11.043  17.621  0.00  0.00    +0.000 OA
ENDBRANCH  10  18
ENDBRANCH   9  10
ENDBRANCH   7   9
ENDBRANCH   1   7
BRANCH   5  20
ATOM     20  N   UNL     1       4.808   4.103  15.973  0.00  0.00    +0.000 N 
ATOM     21  H   UNL     1       5.072   3.135  15.787  0.00  0.00    +0.000 HD
BRANCH  20  22
ATOM     22  S   UNL     1       6.005   5.145  15.376  0.00  0.00    +0.000 S 
ATOM     23  O   UNL     1       6.916   4.415  14.520  0.00  0.00    +0.000 OA
ATOM     24  O   UNL     1       5.290   6.303  14.883  0.00  0.00    +0.000 OA
BRANCH  22  25
ATOM     25  C   UNL     1       6.869   5.644  16.848  0.00  0.00    +0.000 A 
ATOM     26  C   UNL     1       7.370   4.692  17.743  0.00  0.00    +0.000 A 
ATOM     27  C   UNL     1       8.057   5.121  18.882  0.00  0.00    +0.000 A 
ATOM     28  C   UNL     1       8.265   6.484  19.110  0.00  0.00    +0.000 A 
ATOM     29  C   UNL     1       7.795   7.426  18.194  0.00  0.00    +0.000 A 
ATOM     30  C   UNL     1       7.101   7.007  17.061  0.00  0.00    +0.000 A 
ENDBRANCH  22  25
ENDBRANCH  20  22
ENDBRANCH   5  20
TORSDOF 7
ENDMDL
MODEL 7
REMARK VINA RESULT:      -7.6      2.485      4.131
REMARK  Name = 
REMARK  8 active torsions:
REMARK  status: ('A' for Active; 'I' for Inactive)
REMARK    1  A    between atoms: C_1  and  C_2
REMARK    2  A    between atoms: C_8  and  C_10
REMARK    3  A    between atoms: C_10  and  O_11
REMARK    4  A    between atoms: O_11  and  C_12
REMARK    5  A    between atoms: C_12  and  C_14
REMARK    6  A    between atoms: C_18  and  N_19
REMARK    7  A    between atoms: N_19  and  S_20
REMARK    8  A    between atoms: S_20  and  C_23
REMARK                            x       y       z     vdW  Elec       q    Type
REMARK                         _______ _______ _______ _____ _____    ______ ____
ROOT
ATOM      1  C   UNL     1       3.559   6.845  17.674  0.00  0.00    +0.000 A 
ATOM      2  C   UNL     1       4.343   7.344  16.621  0.00  0.00    +0.000 A 
ATOM      3  C   UNL     1       5.246   6.510  15.960  0.00  0.00    +0.000 A 
ATOM      4  C   UNL     1       5.381   5.178  16.358  0.00  0.00    +0.000 A 
ATOM      5  C   UNL     1       4.622   4.686  17.424  0.00  0.00    +0.000 A 
ATOM      6  C   UNL     1       3.713   5.514  18.084  0.00  0.00    +0.000 A 
ENDROOT
BRANCH   1   7
ATOM      7  C   UNL     1       2.603   7.771  18.333  0.00  0.00    +0.000 C 
ATOM      8  O   UNL     1       2.187   7.591  19.467  0.00  0.00    +0.000 OA
BRANCH   7   9
ATOM      9  O   UNL     1       2.302   8.818  17.526  0.00  0.00    +0.000 OA
BRANCH   9  10
ATOM     10  C   UNL     1       1.197   9.640  17.938  0.00  0.00    +0.000 C 
BRANCH  10  18
ATOM     11  C   UNL     1       0.928   9.717  21.900  0.00  0.00    +0.000 C 
ATOM     12  C   UNL     1       0.232  10.342  20.685  0.00  0.00    +0.000 C 
ATOM     13  C   UNL     1      -1.009  11.150  21.104  0.00  0.00    +0.000 C 
ATOM     14  C   UNL     1      -0.639  12.433  21.848  0.00  0.00    +0.000 C 
ATOM     15  C   UNL     1       0.344  13.265  21.033  0.00  0.00    +0.000 C 
ATOM     16  C   UNL     1       1.557  12.449  20.576  0.00  0.00    +0.000 C 
ATOM     17  N   UNL     1       1.146  11.208  19.910  0.00  0.00    +0.000 N 
ATOM     18  C   UNL     1       1.642  10.942  18.629  0.00  0.00    +0.000 C 
ATOM     19  O   UNL     1       2.400  11.728  18.050  0.00  0.00    +0.000 OA
ENDBRANCH  10  18
ENDBRANCH   9  10
ENDBRANCH   7   9
ENDBRANCH   1   7
BRANCH   5  20
ATOM     20  N   UNL     1       4.778   3.335  17.844  0.00  0.00    +0.000 N 
ATOM     21  H   UNL     1       5.612   2.846  17.514  0.00  0.00    +0.000 HD
BRANCH  20  22
ATOM     22  S   UNL     1       3.440   2.296  17.765  0.00  0.00    +0.000 S 
ATOM     23  O   UNL     1       2.586   2.669  16.658  0.00  0.00    +0.000 OA
ATOM     24  O   UNL     1       3.990   0.960  17.860  0.00  0.00    +0.000 OA
BRANCH  22  25
ATOM     25  C   UNL     1       2.588   2.628  19.290  0.00  0.00    +0.000 A 
ATOM     26  C   UNL     1       1.237   2.989  19.293  0.00  0.00    +0.000 A 
ATOM     27  C   UNL     1       0.597   3.228  20.512  0.00  0.00    +0.000 A 
ATOM     28  C   UNL     1       1.292   3.081  21.716  0.00  0.00    +0.000 A 
ATOM     29  C   UNL     1       2.629   2.684  21.707  0.00  0.00    +0.000 A 
ATOM     30  C   UNL     1       3.278   2.453  20.495  0.00  0.00    +0.000 A 
ENDBRANCH  22  25
ENDBRANCH  20  22
ENDBRANCH   5  20
TORSDOF 7
ENDMDL
MODEL 8
REMARK VINA RESULT:      -7.6      1.883      2.584
REMARK  Name = 
REMARK  8 active torsions:
REMARK  status: ('A' for Active; 'I' for Inactive)
REMARK    1  A    between atoms: C_1  and  C_2
REMARK    2  A    between atoms: C_8  and  C_10
REMARK    3  A    between atoms: C_10  and  O_11
REMARK    4  A    between atoms: O_11  and  C_12
REMARK    5  A    between atoms: C_12  and  C_14
REMARK    6  A    between atoms: C_18  and  N_19
REMARK    7  A    between atoms: N_19  and  S_20
REMARK    8  A    between atoms: S_20  and  C_23
REMARK                            x       y       z     vdW  Elec       q    Type
REMARK                         _______ _______ _______ _____ _____    ______ ____
ROOT
ATOM      1  C   UNL     1       2.758   4.482  19.144  0.00  0.00    +0.000 A 
ATOM      2  C   UNL     1       1.933   3.570  18.467  0.00  0.00    +0.000 A 
ATOM      3  C   UNL     1       2.416   2.874  17.358  0.00  0.00    +0.000 A 
ATOM      4  C   UNL     1       3.721   3.096  16.912  0.00  0.00    +0.000 A 
ATOM      5  C   UNL     1       4.535   4.024  17.567  0.00  0.00    +0.000 A 
ATOM      6  C   UNL     1       4.059   4.719  18.680  0.00  0.00    +0.000 A 
ENDROOT
BRANCH   1   7
ATOM      7  C   UNL     1       2.200   5.184  20.328  0.00  0.00    +0.000 C 
ATOM      8  O   UNL     1       2.428   4.828  21.474  0.00  0.00    +0.000 OA
BRANCH   7   9
ATOM      9  O   UNL     1       1.457   6.255  19.955  0.00  0.00    +0.000 OA
BRANCH   9  10
ATOM     10  C   UNL     1       2.122   7.529  19.979  0.00  0.00    +0.000 C 
BRANCH  10  18
ATOM     11  C   UNL     1      -0.356   9.938  18.023  0.00  0.00    +0.000 C 
ATOM     12  C   UNL     1       1.002  10.010  18.731  0.00  0.00    +0.000 C 
ATOM     13  C   UNL     1       1.663  11.386  18.537  0.00  0.00    +0.000 C 
ATOM     14  C   UNL     1       0.938  12.489  19.308  0.00  0.00    +0.000 C 
ATOM     15  C   UNL     1       0.799  12.117  20.780  0.00  0.00    +0.000 C 
ATOM     16  C   UNL     1       0.185  10.727  20.972  0.00  0.00    +0.000 C 
ATOM     17  N   UNL     1       0.888   9.717  20.175  0.00  0.00    +0.000 N 
ATOM     18  C   UNL     1       1.379   8.579  20.825  0.00  0.00    +0.000 C 
ATOM     19  O   UNL     1       1.244   8.417  22.042  0.00  0.00    +0.000 OA
ENDBRANCH  10  18
ENDBRANCH   9  10
ENDBRANCH   7   9
ENDBRANCH   1   7
BRANCH   5  20
ATOM     20  N   UNL     1       5.856   4.268  17.096  0.00  0.00    +0.000 N 
ATOM     21  H   UNL     1       6.611   4.152  17.774  0.00  0.00    +0.000 HD
BRANCH  20  22
ATOM     22  S   UNL     1       6.146   5.646  16.151  0.00  0.00    +0.000 S 
ATOM     23  O   UNL     1       4.965   6.482  16.117  0.00  0.00    +0.000 OA
ATOM     24  O   UNL     1       7.412   6.169  16.618  0.00  0.00    +0.000 OA
BRANCH  22  25
ATOM     25  C   UNL     1       6.419   4.966  14.531  0.00  0.00    +0.000 A 
ATOM     26  C   UNL     1       7.540   5.333  13.778  0.00  0.00    +0.000 A 
ATOM     27  C   UNL     1       7.730   4.766  12.515  0.00  0.00    +0.000 A 
ATOM     28  C   UNL     1       6.825   3.822  12.021  0.00  0.00    +0.000 A 
ATOM     29  C   UNL     1       5.730   3.432  12.793  0.00  0.00    +0.000 A 
ATOM     30  C   UNL     1       5.528   4.000  14.050  0.00  0.00    +0.000 A 
ENDBRANCH  22  25
ENDBRANCH  20  22
ENDBRANCH   5  20
TORSDOF 7
ENDMDL
MODEL 9
REMARK VINA RESULT:      -7.6      1.903      2.513
REMARK  Name = 
REMARK  8 active torsions:
REMARK  status: ('A' for Active; 'I' for Inactive)
REMARK    1  A    between atoms: C_1  and  C_2
REMARK    2  A    between atoms: C_8  and  C_10
REMARK    3  A    between atoms: C_10  and  O_11
REMARK    4  A    between atoms: O_11  and  C_12
REMARK    5  A    between atoms: C_12  and  C_14
REMARK    6  A    between atoms: C_18  and  N_19
REMARK    7  A    between atoms: N_19  and  S_20
REMARK    8  A    between atoms: S_20  and  C_23
REMARK                            x       y       z     vdW  Elec       q    Type
REMARK                         _______ _______ _______ _____ _____    ______ ____
ROOT
ATOM      1  C   UNL     1       2.775   5.222  19.156  0.00  0.00    +0.000 A 
ATOM      2  C   UNL     1       2.252   4.004  18.697  0.00  0.00    +0.000 A 
ATOM      3  C   UNL     1       2.685   3.465  17.485  0.00  0.00    +0.000 A 
ATOM      4  C   UNL     1       3.633   4.148  16.719  0.00  0.00    +0.000 A 
ATOM      5  C   UNL     1       4.134   5.376  17.161  0.00  0.00    +0.000 A 
ATOM      6  C   UNL     1       3.709   5.917  18.375  0.00  0.00    +0.000 A 
ENDROOT
BRANCH   1   7
ATOM      7  C   UNL     1       2.291   5.744  20.460  0.00  0.00    +0.000 C 
ATOM      8  O   UNL     1       2.087   5.022  21.424  0.00  0.00    +0.000 OA
BRANCH   7   9
ATOM      9  O   UNL     1       2.149   7.091  20.425  0.00  0.00    +0.000 OA
BRANCH   9  10
ATOM     10  C   UNL     1       0.924   7.615  20.967  0.00  0.00    +0.000 C 
BRANCH  10  18
ATOM     11  C   UNL     1      -1.122  10.387  18.990  0.00  0.00    +0.000 C 
ATOM     12  C   UNL     1       0.335   9.947  19.183  0.00  0.00    +0.000 C 
ATOM     13  C   UNL     1       1.283  10.729  18.257  0.00  0.00    +0.000 C 
ATOM     14  C   UNL     1       1.423  12.193  18.674  0.00  0.00    +0.000 C 
ATOM     15  C   UNL     1       1.828  12.300  20.140  0.00  0.00    +0.000 C 
ATOM     16  C   UNL     1       0.912  11.484  21.057  0.00  0.00    +0.000 C 
ATOM     17  N   UNL     1       0.777  10.102  20.585  0.00  0.00    +0.000 N 
ATOM     18  C   UNL     1       1.063   9.061  21.476  0.00  0.00    +0.000 C 
ATOM     19  O   UNL     1       1.434   9.282  22.634  0.00  0.00    +0.000 OA
ENDBRANCH  10  18
ENDBRANCH   9  10
ENDBRANCH   7   9
ENDBRANCH   1   7
BRANCH   5  20
ATOM     20  N   UNL     1       5.082   6.083  16.368  0.00  0.00    +0.000 N 
ATOM     21  H   UNL     1       4.768   6.391  15.446  0.00  0.00    +0.000 HD
BRANCH  20  22
ATOM     22  S   UNL     1       6.666   5.487  16.262  0.00  0.00    +0.000 S 
ATOM     23  O   UNL     1       7.615   6.563  16.454  0.00  0.00    +0.000 OA
ATOM     24  O   UNL     1       6.690   4.316  17.111  0.00  0.00    +0.000 OA
BRANCH  22  25
ATOM     25  C   UNL     1       6.765   4.922  14.578  0.00  0.00    +0.000 A 
ATOM     26  C   UNL     1       7.701   5.466  13.693  0.00  0.00    +0.000 A 
ATOM     27  C   UNL     1       7.760   4.987  12.381  0.00  0.00    +0.000 A 
ATOM     28  C   UNL     1       6.912   3.956  11.968  0.00  0.00    +0.000 A 
ATOM     29  C   UNL     1       6.007   3.392  12.866  0.00  0.00    +0.000 A 
ATOM     30  C   UNL     1       5.935   3.871  14.173  0.00  0.00    +0.000 A 
ENDBRANCH  22  25
ENDBRANCH  20  22
ENDBRANCH   5  20
TORSDOF 7
ENDMDL
