MODEL 1
REMARK VINA RESULT:      -8.0      0.000      0.000
REMARK  Name = 
REMARK  2 active torsions:
REMARK  status: ('A' for Active; 'I' for Inactive)
REMARK    1  A    between atoms: N_3  and  C_4
REMARK    2  A    between atoms: C_4  and  C_5
REMARK                            x       y       z     vdW  Elec       q    Type
REMARK                         _______ _______ _______ _____ _____    ______ ____
ROOT
ATOM      1  O   UNL     1      -4.708  12.231  23.516  0.00  0.00    +0.000 OA
ATOM      2  C   UNL     1      -4.512  13.208  22.796  0.00  0.00    +0.000 C 
ATOM      3  N   UNL     1      -5.541  13.979  22.271  0.00  0.00    +0.000 N 
ATOM      4  C   UNL     1      -5.356  15.406  22.066  0.00  0.00    +0.000 C 
ATOM      5  C   UNL     1      -4.089  15.689  21.275  0.00  0.00    +0.000 C 
ATOM      6  C   UNL     1      -2.909  14.985  21.934  0.00  0.00    +0.000 C 
ATOM      7  C   UNL     1      -3.157  13.472  22.122  0.00  0.00    +0.000 C 
ATOM      8  C   UNL     1      -3.279  12.718  20.763  0.00  0.00    +0.000 C 
ATOM      9  C   UNL     1      -1.957  12.623  20.016  0.00  0.00    +0.000 C 
ATOM     10  N   UNL     1      -1.015  11.978  20.917  0.00  0.00    +0.000 N 
ATOM     11  C   UNL     1      -0.103  11.149  20.375  0.00  0.00    +0.000 A 
ATOM     12  N   UNL     1       0.400  11.125  19.166  0.00  0.00    +0.000 NA
ATOM     13  C   UNL     1       1.101   9.948  19.086  0.00  0.00    +0.000 A 
ATOM     14  C   UNL     1       1.827   9.404  18.015  0.00  0.00    +0.000 A 
ATOM     15  C   UNL     1       2.409   8.138  18.175  0.00  0.00    +0.000 A 
ATOM     16  C   UNL     1       2.266   7.430  19.371  0.00  0.00    +0.000 A 
ATOM     17  C   UNL     1       1.559   7.961  20.453  0.00  0.00    +0.000 A 
ATOM     18  C   UNL     1       1.006   9.229  20.270  0.00  0.00    +0.000 A 
ATOM     19  N   UNL     1       0.268  10.036  21.087  0.00  0.00    +0.000 N 
ATOM     20  C   UNL     1      -0.712  12.708  22.141  0.00  0.00    +0.000 C 
ATOM     21  C   UNL     1      -2.004  12.849  22.950  0.00  0.00    +0.000 C 
ATOM     22  H   UNL     1      -0.078   9.814  22.004  0.00  0.00    +0.000 HD
ENDROOT
BRANCH   3  23
ATOM     23  C   UNL     1      -6.838  13.373  22.037  0.00  0.00    +0.000 C 
BRANCH  23  24
ATOM     24  C   UNL     1      -6.939  12.496  20.820  0.00  0.00    +0.000 A 
ATOM     25  C   UNL     1      -7.262  11.138  20.956  0.00  0.00    +0.000 A 
ATOM     26  C   UNL     1      -7.243  10.287  19.850  0.00  0.00    +0.000 A 
ATOM     27  C   UNL     1      -6.913  10.790  18.593  0.00  0.00    +0.000 A 
ATOM     28  C   UNL     1      -6.621  12.144  18.446  0.00  0.00    +0.000 A 
ATOM     29 CL   UNL     1      -6.208  12.767  16.896  0.00  0.00    +0.000 Cl
ATOM     30  C   UNL     1      -6.635  12.998  19.549  0.00  0.00    +0.000 A 
ENDBRANCH  23  24
ENDBRANCH   3  23
TORSDOF 2
ENDMDL
MODEL 2
REMARK VINA RESULT:      -8.0      1.076      1.397
REMARK  Name = 
REMARK  2 active torsions:
REMARK  status: ('A' for Active; 'I' for Inactive)
REMARK    1  A    between atoms: N_3  and  C_4
REMARK    2  A    between atoms: C_4  and  C_5
REMARK                            x       y       z     vdW  Elec       q    Type
REMARK                         _______ _______ _______ _____ _____    ______ ____
ROOT
ATOM      1  O   UNL     1      -4.314  12.300  23.266  0.00  0.00    +0.000 OA
ATOM      2  C   UNL     1      -4.051  13.250  22.532  0.00  0.00    +0.000 C 
ATOM      3  N   UNL     1      -5.025  14.072  21.980  0.00  0.00    +0.000 N 
ATOM      4  C   UNL     1      -4.750  15.480  21.751  0.00  0.00    +0.000 C 
ATOM      5  C   UNL     1      -3.460  15.670  20.970  0.00  0.00    +0.000 C 
ATOM      6  C   UNL     1      -2.332  14.908  21.656  0.00  0.00    +0.000 C 
ATOM      7  C   UNL     1      -2.675  13.417  21.869  0.00  0.00    +0.000 C 
ATOM      8  C   UNL     1      -2.828  12.646  20.523  0.00  0.00    +0.000 C 
ATOM      9  C   UNL     1      -1.506  12.456  19.793  0.00  0.00    +0.000 C 
ATOM     10  N   UNL     1      -0.616  11.772  20.717  0.00  0.00    +0.000 N 
ATOM     11  C   UNL     1       0.250  10.878  20.202  0.00  0.00    +0.000 A 
ATOM     12  N   UNL     1       0.763  10.800  18.999  0.00  0.00    +0.000 NA
ATOM     13  C   UNL     1       1.391   9.582  18.949  0.00  0.00    +0.000 A 
ATOM     14  C   UNL     1       2.094   8.974  17.898  0.00  0.00    +0.000 A 
ATOM     15  C   UNL     1       2.595   7.678  18.088  0.00  0.00    +0.000 A 
ATOM     16  C   UNL     1       2.396   7.003  19.295  0.00  0.00    +0.000 A 
ATOM     17  C   UNL     1       1.711   7.596  20.359  0.00  0.00    +0.000 A 
ATOM     18  C   UNL     1       1.239   8.892  20.146  0.00  0.00    +0.000 A 
ATOM     19  N   UNL     1       0.543   9.759  20.938  0.00  0.00    +0.000 N 
ATOM     20  C   UNL     1      -0.282  12.505  21.932  0.00  0.00    +0.000 C 
ATOM     21  C   UNL     1      -1.571  12.740  22.722  0.00  0.00    +0.000 C 
ATOM     22  H   UNL     1       0.175   9.575  21.856  0.00  0.00    +0.000 HD
ENDROOT
BRANCH   3  23
ATOM     23  C   UNL     1      -6.354  13.542  21.741  0.00  0.00    +0.000 C 
BRANCH  23  24
ATOM     24  C   UNL     1      -6.486  12.616  20.565  0.00  0.00    +0.000 A 
ATOM     25  C   UNL     1      -6.455  13.127  19.259  0.00  0.00    +0.000 A 
ATOM     26  C   UNL     1      -6.695  12.298  18.163  0.00  0.00    +0.000 A 
ATOM     27  C   UNL     1      -6.954  10.943  18.362  0.00  0.00    +0.000 A 
ATOM     28  C   UNL     1      -6.957  10.422  19.654  0.00  0.00    +0.000 A 
ATOM     29 CL   UNL     1      -7.283   8.752  19.902  0.00  0.00    +0.000 Cl
ATOM     30  C   UNL     1      -6.721  11.249  20.753  0.00  0.00    +0.000 A 
ENDBRANCH  23  24
ENDBRANCH   3  23
TORSDOF 2
ENDMDL
MODEL 3
REMARK VINA RESULT:      -7.0      2.505      4.010
REMARK  Name = 
REMARK  2 active torsions:
REMARK  status: ('A' for Active; 'I' for Inactive)
REMARK    1  A    between atoms: N_3  and  C_4
REMARK    2  A    between atoms: C_4  and  C_5
REMARK                            x       y       z     vdW  Elec       q    Type
REMARK                         _______ _______ _______ _____ _____    ______ ____
ROOT
ATOM      1  O   UNL     1      -1.974  11.127  22.610  0.00  0.00    +0.000 OA
ATOM      2  C   UNL     1      -1.380  11.758  21.737  0.00  0.00    +0.000 C 
ATOM      3  N   UNL     1      -1.985  12.756  20.983  0.00  0.00    +0.000 N 
ATOM      4  C   UNL     1      -1.211  13.898  20.526  0.00  0.00    +0.000 C 
ATOM      5  C   UNL     1       0.057  13.455  19.814  0.00  0.00    +0.000 C 
ATOM      6  C   UNL     1       0.826  12.483  20.701  0.00  0.00    +0.000 C 
ATOM      7  C   UNL     1      -0.041  11.286  21.151  0.00  0.00    +0.000 C 
ATOM      8  C   UNL     1      -0.470  10.382  19.957  0.00  0.00    +0.000 C 
ATOM      9  C   UNL     1       0.687   9.592  19.365  0.00  0.00    +0.000 C 
ATOM     10  N   UNL     1       1.265   8.821  20.455  0.00  0.00    +0.000 N 
ATOM     11  C   UNL     1       1.740   7.594  20.167  0.00  0.00    +0.000 A 
ATOM     12  N   UNL     1       2.186   7.108  19.036  0.00  0.00    +0.000 NA
ATOM     13  C   UNL     1       2.321   5.759  19.246  0.00  0.00    +0.000 A 
ATOM     14  C   UNL     1       2.749   4.750  18.370  0.00  0.00    +0.000 A 
ATOM     15  C   UNL     1       2.738   3.422  18.822  0.00  0.00    +0.000 A 
ATOM     16  C   UNL     1       2.306   3.108  20.114  0.00  0.00    +0.000 A 
ATOM     17  C   UNL     1       1.891   4.100  21.005  0.00  0.00    +0.000 A 
ATOM     18  C   UNL     1       1.929   5.413  20.534  0.00  0.00    +0.000 A 
ATOM     19  N   UNL     1       1.602   6.607  21.109  0.00  0.00    +0.000 N 
ATOM     20  C   UNL     1       1.848   9.601  21.539  0.00  0.00    +0.000 C 
ATOM     21  C   UNL     1       0.738  10.433  22.185  0.00  0.00    +0.000 C 
ATOM     22  H   UNL     1       1.194   6.748  22.017  0.00  0.00    +0.000 HD
ENDROOT
BRANCH   3  23
ATOM     23  C   UNL     1      -3.416  12.707  20.752  0.00  0.00    +0.000 C 
BRANCH  23  24
ATOM     24  C   UNL     1      -3.841  12.283  19.375  0.00  0.00    +0.000 A 
ATOM     25  C   UNL     1      -5.169  12.463  18.961  0.00  0.00    +0.000 A 
ATOM     26  C   UNL     1      -5.607  11.967  17.732  0.00  0.00    +0.000 A 
ATOM     27  C   UNL     1      -4.714  11.297  16.897  0.00  0.00    +0.000 A 
ATOM     28  C   UNL     1      -3.386  11.140  17.289  0.00  0.00    +0.000 A 
ATOM     29 CL   UNL     1      -2.284  10.308  16.263  0.00  0.00    +0.000 Cl
ATOM     30  C   UNL     1      -2.946  11.631  18.518  0.00  0.00    +0.000 A 
ENDBRANCH  23  24
ENDBRANCH   3  23
TORSDOF 2
ENDMDL
MODEL 4
REMARK VINA RESULT:      -6.9      3.066      4.992
REMARK  Name = 
REMARK  2 active torsions:
REMARK  status: ('A' for Active; 'I' for Inactive)
REMARK    1  A    between atoms: N_3  and  C_4
REMARK    2  A    between atoms: C_4  and  C_5
REMARK                            x       y       z     vdW  Elec       q    Type
REMARK                         _______ _______ _______ _____ _____    ______ ____
ROOT
ATOM      1  O   UNL     1      -2.154   9.625  19.506  0.00  0.00    +0.000 OA
ATOM      2  C   UNL     1      -1.331  10.524  19.346  0.00  0.00    +0.000 C 
ATOM      3  N   UNL     1      -1.653  11.749  18.775  0.00  0.00    +0.000 N 
ATOM      4  C   UNL     1      -0.972  12.958  19.206  0.00  0.00    +0.000 C 
ATOM      5  C   UNL     1       0.537  12.787  19.163  0.00  0.00    +0.000 C 
ATOM      6  C   UNL     1       0.929  11.531  19.932  0.00  0.00    +0.000 C 
ATOM      7  C   UNL     1       0.182  10.276  19.429  0.00  0.00    +0.000 C 
ATOM      8  C   UNL     1       0.567   9.905  17.965  0.00  0.00    +0.000 C 
ATOM      9  C   UNL     1       1.985   9.369  17.841  0.00  0.00    +0.000 C 
ATOM     10  N   UNL     1       2.078   8.227  18.737  0.00  0.00    +0.000 N 
ATOM     11  C   UNL     1       2.843   7.190  18.347  0.00  0.00    +0.000 A 
ATOM     12  N   UNL     1       3.867   7.159  17.531  0.00  0.00    +0.000 NA
ATOM     13  C   UNL     1       4.119   5.828  17.313  0.00  0.00    +0.000 A 
ATOM     14  C   UNL     1       5.096   5.216  16.511  0.00  0.00    +0.000 A 
ATOM     15  C   UNL     1       5.101   3.817  16.412  0.00  0.00    +0.000 A 
ATOM     16  C   UNL     1       4.153   3.048  17.092  0.00  0.00    +0.000 A 
ATOM     17  C   UNL     1       3.182   3.637  17.907  0.00  0.00    +0.000 A 
ATOM     18  C   UNL     1       3.213   5.029  17.999  0.00  0.00    +0.000 A 
ATOM     19  N   UNL     1       2.438   5.923  18.680  0.00  0.00    +0.000 N 
ATOM     20  C   UNL     1       1.902   8.521  20.153  0.00  0.00    +0.000 C 
ATOM     21  C   UNL     1       0.489   9.074  20.358  0.00  0.00    +0.000 C 
ATOM     22  H   UNL     1       1.618   5.718  19.225  0.00  0.00    +0.000 HD
ENDROOT
BRANCH   3  23
ATOM     23  C   UNL     1      -2.749  11.829  17.829  0.00  0.00    +0.000 C 
BRANCH  23  24
ATOM     24  C   UNL     1      -4.128  11.717  18.415  0.00  0.00    +0.000 A 
ATOM     25  C   UNL     1      -5.125  10.998  17.740  0.00  0.00    +0.000 A 
ATOM     26  C   UNL     1      -6.438  10.985  18.211  0.00  0.00    +0.000 A 
ATOM     27  C   UNL     1      -6.765  11.681  19.373  0.00  0.00    +0.000 A 
ATOM     28  C   UNL     1      -5.774  12.373  20.066  0.00  0.00    +0.000 A 
ATOM     29 CL   UNL     1      -6.176  13.238  21.498  0.00  0.00    +0.000 Cl
ATOM     30  C   UNL     1      -4.460  12.392  19.596  0.00  0.00    +0.000 A 
ENDBRANCH  23  24
ENDBRANCH   3  23
TORSDOF 2
ENDMDL
MODEL 5
REMARK VINA RESULT:      -6.9      5.551      7.797
REMARK  Name = 
REMARK  2 active torsions:
REMARK  status: ('A' for Active; 'I' for Inactive)
REMARK    1  A    between atoms: N_3  and  C_4
REMARK    2  A    between atoms: C_4  and  C_5
REMARK                            x       y       z     vdW  Elec       q    Type
REMARK                         _______ _______ _______ _____ _____    ______ ____
ROOT
ATOM      1  O   UNL     1       0.757  12.139  21.861  0.00  0.00    +0.000 OA
ATOM      2  C   UNL     1       0.360  12.318  20.712  0.00  0.00    +0.000 C 
ATOM      3  N   UNL     1      -0.415  11.391  20.026  0.00  0.00    +0.000 N 
ATOM      4  C   UNL     1      -1.411  11.837  19.067  0.00  0.00    +0.000 C 
ATOM      5  C   UNL     1      -0.813  12.805  18.060  0.00  0.00    +0.000 C 
ATOM      6  C   UNL     1      -0.097  13.930  18.798  0.00  0.00    +0.000 C 
ATOM      7  C   UNL     1       0.955  13.401  19.798  0.00  0.00    +0.000 C 
ATOM      8  C   UNL     1       2.131  12.665  19.088  0.00  0.00    +0.000 C 
ATOM      9  C   UNL     1       3.037  13.607  18.309  0.00  0.00    +0.000 C 
ATOM     10  N   UNL     1       3.508  14.607  19.255  0.00  0.00    +0.000 N 
ATOM     11  C   UNL     1       4.765  15.065  19.102  0.00  0.00    +0.000 A 
ATOM     12  N   UNL     1       5.515  15.125  18.030  0.00  0.00    +0.000 NA
ATOM     13  C   UNL     1       6.768  15.457  18.480  0.00  0.00    +0.000 A 
ATOM     14  C   UNL     1       7.961  15.641  17.764  0.00  0.00    +0.000 A 
ATOM     15  C   UNL     1       9.135  15.921  18.480  0.00  0.00    +0.000 A 
ATOM     16  C   UNL     1       9.119  16.009  19.875  0.00  0.00    +0.000 A 
ATOM     17  C   UNL     1       7.939  15.844  20.604  0.00  0.00    +0.000 A 
ATOM     18  C   UNL     1       6.785  15.583  19.863  0.00  0.00    +0.000 A 
ATOM     19  N   UNL     1       5.487  15.368  20.228  0.00  0.00    +0.000 N 
ATOM     20  C   UNL     1       2.479  15.459  19.837  0.00  0.00    +0.000 C 
ATOM     21  C   UNL     1       1.519  14.575  20.638  0.00  0.00    +0.000 C 
ATOM     22  H   UNL     1       5.127  15.298  21.164  0.00  0.00    +0.000 HD
ENDROOT
BRANCH   3  23
ATOM     23  C   UNL     1      -0.301   9.983  20.357  0.00  0.00    +0.000 C 
BRANCH  23  24
ATOM     24  C   UNL     1       0.779   9.228  19.637  0.00  0.00    +0.000 A 
ATOM     25  C   UNL     1       1.165   9.611  18.343  0.00  0.00    +0.000 A 
ATOM     26  C   UNL     1       2.080   8.849  17.617  0.00  0.00    +0.000 A 
ATOM     27  C   UNL     1       2.632   7.701  18.184  0.00  0.00    +0.000 A 
ATOM     28  C   UNL     1       2.277   7.331  19.480  0.00  0.00    +0.000 A 
ATOM     29 CL   UNL     1       2.952   5.912  20.179  0.00  0.00    +0.000 Cl
ATOM     30  C   UNL     1       1.358   8.088  20.208  0.00  0.00    +0.000 A 
ENDBRANCH  23  24
ENDBRANCH   3  23
TORSDOF 2
ENDMDL
MODEL 6
REMARK VINA RESULT:      -6.9      2.639      4.478
REMARK  Name = 
REMARK  2 active torsions:
REMARK  status: ('A' for Active; 'I' for Inactive)
REMARK    1  A    between atoms: N_3  and  C_4
REMARK    2  A    between atoms: C_4  and  C_5
REMARK                            x       y       z     vdW  Elec       q    Type
REMARK                         _______ _______ _______ _____ _____    ______ ____
ROOT
ATOM      1  O   UNL     1      -1.563  11.041  22.566  0.00  0.00    +0.000 OA
ATOM      2  C   UNL     1      -0.841  11.611  21.750  0.00  0.00    +0.000 C 
ATOM      3  N   UNL     1      -1.258  12.710  21.011  0.00  0.00    +0.000 N 
ATOM      4  C   UNL     1      -0.307  13.745  20.639  0.00  0.00    +0.000 C 
ATOM      5  C   UNL     1       0.921  13.150  19.970  0.00  0.00    +0.000 C 
ATOM      6  C   UNL     1       1.497  12.047  20.850  0.00  0.00    +0.000 C 
ATOM      7  C   UNL     1       0.447  10.972  21.209  0.00  0.00    +0.000 C 
ATOM      8  C   UNL     1      -0.042  10.181  19.958  0.00  0.00    +0.000 C 
ATOM      9  C   UNL     1       1.022   9.254  19.389  0.00  0.00    +0.000 C 
ATOM     10  N   UNL     1       1.427   8.371  20.472  0.00  0.00    +0.000 N 
ATOM     11  C   UNL     1       1.737   7.099  20.156  0.00  0.00    +0.000 A 
ATOM     12  N   UNL     1       2.169   6.594  19.028  0.00  0.00    +0.000 NA
ATOM     13  C   UNL     1       2.101   5.233  19.188  0.00  0.00    +0.000 A 
ATOM     14  C   UNL     1       2.428   4.204  18.291  0.00  0.00    +0.000 A 
ATOM     15  C   UNL     1       2.205   2.876  18.686  0.00  0.00    +0.000 A 
ATOM     16  C   UNL     1       1.665   2.583  19.942  0.00  0.00    +0.000 A 
ATOM     17  C   UNL     1       1.348   3.593  20.853  0.00  0.00    +0.000 A 
ATOM     18  C   UNL     1       1.596   4.902  20.439  0.00  0.00    +0.000 A 
ATOM     19  N   UNL     1       1.411   6.110  21.048  0.00  0.00    +0.000 N 
ATOM     20  C   UNL     1       2.056   9.021  21.614  0.00  0.00    +0.000 C 
ATOM     21  C   UNL     1       1.042   9.981  22.242  0.00  0.00    +0.000 C 
ATOM     22  H   UNL     1       0.980   6.276  21.941  0.00  0.00    +0.000 HD
ENDROOT
BRANCH   3  23
ATOM     23  C   UNL     1      -2.667  12.875  20.710  0.00  0.00    +0.000 C 
BRANCH  23  24
ATOM     24  C   UNL     1      -3.153  12.194  19.463  0.00  0.00    +0.000 A 
ATOM     25  C   UNL     1      -2.247  11.849  18.449  0.00  0.00    +0.000 A 
ATOM     26  C   UNL     1      -2.698  11.324  17.237  0.00  0.00    +0.000 A 
ATOM     27  C   UNL     1      -4.062  11.126  17.032  0.00  0.00    +0.000 A 
ATOM     28  C   UNL     1      -4.966  11.438  18.046  0.00  0.00    +0.000 A 
ATOM     29 CL   UNL     1      -6.651  11.199  17.793  0.00  0.00    +0.000 Cl
ATOM     30  C   UNL     1      -4.519  11.966  19.258  0.00  0.00    +0.000 A 
ENDBRANCH  23  24
ENDBRANCH   3  23
TORSDOF 2
ENDMDL
MODEL 7
REMARK VINA RESULT:      -6.8      1.292      1.602
REMARK  Name = 
REMARK  2 active torsions:
REMARK  status: ('A' for Active; 'I' for Inactive)
REMARK    1  A    between atoms: N_3  and  C_4
REMARK    2  A    between atoms: C_4  and  C_5
REMARK                            x       y       z     vdW  Elec       q    Type
REMARK                         _______ _______ _______ _____ _____    ______ ____
ROOT
ATOM      1  O   UNL     1      -3.237  11.841  23.331  0.00  0.00    +0.000 OA
ATOM      2  C   UNL     1      -3.016  12.715  22.496  0.00  0.00    +0.000 C 
ATOM      3  N   UNL     1      -4.010  13.537  21.980  0.00  0.00    +0.000 N 
ATOM      4  C   UNL     1      -3.706  14.907  21.606  0.00  0.00    +0.000 C 
ATOM      5  C   UNL     1      -2.500  14.973  20.684  0.00  0.00    +0.000 C 
ATOM      6  C   UNL     1      -1.336  14.215  21.313  0.00  0.00    +0.000 C 
ATOM      7  C   UNL     1      -1.712  12.763  21.684  0.00  0.00    +0.000 C 
ATOM      8  C   UNL     1      -2.037  11.896  20.430  0.00  0.00    +0.000 C 
ATOM      9  C   UNL     1      -0.808  11.587  19.588  0.00  0.00    +0.000 C 
ATOM     10  N   UNL     1       0.148  10.937  20.470  0.00  0.00    +0.000 N 
ATOM     11  C   UNL     1       0.919   9.964  19.946  0.00  0.00    +0.000 A 
ATOM     12  N   UNL     1       1.298   9.767  18.708  0.00  0.00    +0.000 NA
ATOM     13  C   UNL     1       1.869   8.520  18.697  0.00  0.00    +0.000 A 
ATOM     14  C   UNL     1       2.433   7.798  17.633  0.00  0.00    +0.000 A 
ATOM     15  C   UNL     1       2.901   6.499  17.880  0.00  0.00    +0.000 A 
ATOM     16  C   UNL     1       2.804   5.932  19.153  0.00  0.00    +0.000 A 
ATOM     17  C   UNL     1       2.259   6.640  20.228  0.00  0.00    +0.000 A 
ATOM     18  C   UNL     1       1.819   7.936  19.956  0.00  0.00    +0.000 A 
ATOM     19  N   UNL     1       1.244   8.895  20.740  0.00  0.00    +0.000 N 
ATOM     20  C   UNL     1       0.637  11.748  21.578  0.00  0.00    +0.000 C 
ATOM     21  C   UNL     1      -0.552  12.106  22.474  0.00  0.00    +0.000 C 
ATOM     22  H   UNL     1       0.968   8.803  21.702  0.00  0.00    +0.000 HD
ENDROOT
BRANCH   3  23
ATOM     23  C   UNL     1      -5.376  13.052  21.923  0.00  0.00    +0.000 C 
BRANCH  23  24
ATOM     24  C   UNL     1      -5.805  12.457  20.612  0.00  0.00    +0.000 A 
ATOM     25  C   UNL     1      -7.075  11.874  20.484  0.00  0.00    +0.000 A 
ATOM     26  C   UNL     1      -7.441  11.214  19.311  0.00  0.00    +0.000 A 
ATOM     27  C   UNL     1      -6.544  11.142  18.246  0.00  0.00    +0.000 A 
ATOM     28  C   UNL     1      -5.292  11.744  18.355  0.00  0.00    +0.000 A 
ATOM     29 CL   UNL     1      -4.182  11.651  17.045  0.00  0.00    +0.000 Cl
ATOM     30  C   UNL     1      -4.921  12.402  19.528  0.00  0.00    +0.000 A 
ENDBRANCH  23  24
ENDBRANCH   3  23
TORSDOF 2
ENDMDL
MODEL 8
REMARK VINA RESULT:      -6.8      7.645     11.113
REMARK  Name = 
REMARK  2 active torsions:
REMARK  status: ('A' for Active; 'I' for Inactive)
REMARK    1  A    between atoms: N_3  and  C_4
REMARK    2  A    between atoms: C_4  and  C_5
REMARK                            x       y       z     vdW  Elec       q    Type
REMARK                         _______ _______ _______ _____ _____    ______ ____
ROOT
ATOM      1  O   UNL     1       7.233  15.223  17.450  0.00  0.00    +0.000 OA
ATOM      2  C   UNL     1       7.095  15.908  18.461  0.00  0.00    +0.000 C 
ATOM      3  N   UNL     1       8.167  16.346  19.230  0.00  0.00    +0.000 N 
ATOM      4  C   UNL     1       8.102  17.626  19.915  0.00  0.00    +0.000 C 
ATOM      5  C   UNL     1       6.834  17.743  20.744  0.00  0.00    +0.000 C 
ATOM      6  C   UNL     1       5.624  17.430  19.871  0.00  0.00    +0.000 C 
ATOM      7  C   UNL     1       5.742  16.056  19.174  0.00  0.00    +0.000 C 
ATOM      8  C   UNL     1       5.738  14.874  20.188  0.00  0.00    +0.000 C 
ATOM      9  C   UNL     1       4.383  14.659  20.845  0.00  0.00    +0.000 C 
ATOM     10  N   UNL     1       3.426  14.460  19.768  0.00  0.00    +0.000 N 
ATOM     11  C   UNL     1       2.420  13.589  19.981  0.00  0.00    +0.000 A 
ATOM     12  N   UNL     1       1.867  13.201  21.103  0.00  0.00    +0.000 NA
ATOM     13  C   UNL     1       1.060  12.144  20.765  0.00  0.00    +0.000 A 
ATOM     14  C   UNL     1       0.243  11.340  21.575  0.00  0.00    +0.000 A 
ATOM     15  C   UNL     1      -0.443  10.270  20.981  0.00  0.00    +0.000 A 
ATOM     16  C   UNL     1      -0.313  10.006  19.615  0.00  0.00    +0.000 A 
ATOM     17  C   UNL     1       0.483  10.804  18.790  0.00  0.00    +0.000 A 
ATOM     18  C   UNL     1       1.140  11.870  19.405  0.00  0.00    +0.000 A 
ATOM     19  N   UNL     1       1.982  12.832  18.926  0.00  0.00    +0.000 N 
ATOM     20  C   UNL     1       3.242  15.592  18.870  0.00  0.00    +0.000 C 
ATOM     21  C   UNL     1       4.574  15.874  18.171  0.00  0.00    +0.000 C 
ATOM     22  H   UNL     1       2.345  12.905  17.991  0.00  0.00    +0.000 HD
ENDROOT
BRANCH   3  23
ATOM     23  C   UNL     1       9.392  15.570  19.251  0.00  0.00    +0.000 C 
BRANCH  23  24
ATOM     24  C   UNL     1       9.305  14.229  19.922  0.00  0.00    +0.000 A 
ATOM     25  C   UNL     1       9.295  14.141  21.322  0.00  0.00    +0.000 A 
ATOM     26  C   UNL     1       9.333  12.900  21.959  0.00  0.00    +0.000 A 
ATOM     27  C   UNL     1       9.370  11.731  21.200  0.00  0.00    +0.000 A 
ATOM     28  C   UNL     1       9.351  11.810  19.809  0.00  0.00    +0.000 A 
ATOM     29 CL   UNL     1       9.401  10.370  18.870  0.00  0.00    +0.000 Cl
ATOM     30  C   UNL     1       9.315  13.049  19.168  0.00  0.00    +0.000 A 
ENDBRANCH  23  24
ENDBRANCH   3  23
TORSDOF 2
ENDMDL
MODEL 9
REMARK VINA RESULT:      -6.8      1.979      3.028
REMARK  Name = 
REMARK  2 active torsions:
REMARK  status: ('A' for Active; 'I' for Inactive)
REMARK    1  A    between atoms: N_3  and  C_4
REMARK    2  A    between atoms: C_4  and  C_5
REMARK                            x       y       z     vdW  Elec       q    Type
REMARK                         _______ _______ _______ _____ _____    ______ ____
ROOT
ATOM      1  O   UNL     1      -2.502  11.496  22.794  0.00  0.00    +0.000 OA
ATOM      2  C   UNL     1      -2.086  12.221  21.893  0.00  0.00    +0.000 C 
ATOM      3  N   UNL     1      -2.895  13.126  21.217  0.00  0.00    +0.000 N 
ATOM      4  C   UNL     1      -2.343  14.378  20.728  0.00  0.00    +0.000 C 
ATOM      5  C   UNL     1      -1.088  14.143  19.904  0.00  0.00    +0.000 C 
ATOM      6  C   UNL     1      -0.109  13.287  20.700  0.00  0.00    +0.000 C 
ATOM      7  C   UNL     1      -0.745  11.967  21.188  0.00  0.00    +0.000 C 
ATOM      8  C   UNL     1      -1.132  11.024  20.009  0.00  0.00    +0.000 C 
ATOM      9  C   UNL     1       0.077  10.427  19.305  0.00  0.00    +0.000 C 
ATOM     10  N   UNL     1       0.854   9.739  20.324  0.00  0.00    +0.000 N 
ATOM     11  C   UNL     1       1.482   8.602  19.967  0.00  0.00    +0.000 A 
ATOM     12  N   UNL     1       1.900   8.205  18.791  0.00  0.00    +0.000 NA
ATOM     13  C   UNL     1       2.254   6.889  18.955  0.00  0.00    +0.000 A 
ATOM     14  C   UNL     1       2.754   5.969  18.021  0.00  0.00    +0.000 A 
ATOM     15  C   UNL     1       2.981   4.649  18.437  0.00  0.00    +0.000 A 
ATOM     16  C   UNL     1       2.711   4.255  19.751  0.00  0.00    +0.000 A 
ATOM     17  C   UNL     1       2.227   5.161  20.699  0.00  0.00    +0.000 A 
ATOM     18  C   UNL     1       2.027   6.470  20.260  0.00  0.00    +0.000 A 
ATOM     19  N   UNL     1       1.574   7.593  20.891  0.00  0.00    +0.000 N 
ATOM     20  C   UNL     1       1.402  10.584  21.377  0.00  0.00    +0.000 C 
ATOM     21  C   UNL     1       0.237  11.228  22.133  0.00  0.00    +0.000 C 
ATOM     22  H   UNL     1       1.227   7.658  21.833  0.00  0.00    +0.000 HD
ENDROOT
BRANCH   3  23
ATOM     23  C   UNL     1      -4.317  12.862  21.101  0.00  0.00    +0.000 C 
BRANCH  23  24
ATOM     24  C   UNL     1      -4.852  12.769  19.700  0.00  0.00    +0.000 A 
ATOM     25  C   UNL     1      -6.020  13.460  19.345  0.00  0.00    +0.000 A 
ATOM     26  C   UNL     1      -6.594  13.290  18.085  0.00  0.00    +0.000 A 
ATOM     27  C   UNL     1      -5.997  12.435  17.160  0.00  0.00    +0.000 A 
ATOM     28  C   UNL     1      -4.820  11.768  17.495  0.00  0.00    +0.000 A 
ATOM     29 CL   UNL     1      -4.084  10.709  16.358  0.00  0.00    +0.000 Cl
ATOM     30  C   UNL     1      -4.245  11.934  18.756  0.00  0.00    +0.000 A 
ENDBRANCH  23  24
ENDBRANCH   3  23
TORSDOF 2
ENDMDL
