MODEL 1
REMARK VINA RESULT:      -7.2      0.000      0.000
REMARK  Name = 
REMARK  5 active torsions:
REMARK  status: ('A' for Active; 'I' for Inactive)
REMARK    1  A    between atoms: C_1  and  C_2
REMARK    2  A    between atoms: C_5  and  C_6
REMARK    3  A    between atoms: C_7  and  S_8
REMARK    4  A    between atoms: S_8  and  N_11
REMARK    5  A    between atoms: C_12  and  C_14
REMARK                            x       y       z     vdW  Elec       q    Type
REMARK                         _______ _______ _______ _____ _____    ______ ____
ROOT
ATOM      1  S   UNL     1       7.063   6.002  17.398  0.00  0.00    +0.000 S 
ATOM      2  O   UNL     1       6.454   6.460  16.166  0.00  0.00    +0.000 OA
ATOM      3  O   UNL     1       7.909   4.827  17.384  0.00  0.00    +0.000 OA
ENDROOT
BRANCH   1   4
ATOM      4  N   UNL     1       5.771   5.683  18.381  0.00  0.00    +0.000 N 
ATOM      5  C   UNL     1       4.822   4.684  18.155  0.00  0.00    +0.000 C 
ATOM      6  O   UNL     1       4.919   3.890  17.229  0.00  0.00    +0.000 OA
ATOM      7  H   UNL     1       5.687   6.311  19.173  0.00  0.00    +0.000 HD
BRANCH   5   8
ATOM      8  C   UNL     1       3.755   4.632  19.144  0.00  0.00    +0.000 A 
ATOM      9  C   UNL     1       3.407   3.543  19.926  0.00  0.00    +0.000 A 
ATOM     10  C   UNL     1       2.344   3.828  20.830  0.00  0.00    +0.000 A 
ATOM     11  C   UNL     1       1.898   5.123  20.703  0.00  0.00    +0.000 A 
ATOM     12  S   UNL     1       2.755   5.982  19.501  0.00  0.00    +0.000 S 
ENDBRANCH   5   8
ENDBRANCH   1   4
BRANCH   1  14
ATOM     13  C   UNL     1       7.866   8.541  17.628  0.00  0.00    +0.000 C 
ATOM     14  C   UNL     1       7.910   7.310  18.160  0.00  0.00    +0.000 C 
BRANCH  13  19
ATOM     15  C   UNL     1      10.316  13.270  19.903  0.00  0.00    +0.000 C 
ATOM     16  C   UNL     1       9.693  12.043  19.306  0.00  0.00    +0.000 A 
ATOM     17  C   UNL     1       8.958  12.110  18.120  0.00  0.00    +0.000 A 
ATOM     18  C   UNL     1       8.377  10.956  17.580  0.00  0.00    +0.000 A 
ATOM     19  C   UNL     1       8.531   9.716  18.210  0.00  0.00    +0.000 A 
ATOM     20  C   UNL     1       9.257   9.655  19.405  0.00  0.00    +0.000 A 
ATOM     21  C   UNL     1       9.836  10.807  19.946  0.00  0.00    +0.000 A 
ENDBRANCH  13  19
ENDBRANCH   1  14
TORSDOF 4
ENDMDL
MODEL 2
REMARK VINA RESULT:      -7.1      0.902      1.076
REMARK  Name = 
REMARK  5 active torsions:
REMARK  status: ('A' for Active; 'I' for Inactive)
REMARK    1  A    between atoms: C_1  and  C_2
REMARK    2  A    between atoms: C_5  and  C_6
REMARK    3  A    between atoms: C_7  and  S_8
REMARK    4  A    between atoms: S_8  and  N_11
REMARK    5  A    between atoms: C_12  and  C_14
REMARK                            x       y       z     vdW  Elec       q    Type
REMARK                         _______ _______ _______ _____ _____    ______ ____
ROOT
ATOM      1  S   UNL     1       6.942   6.286  17.248  0.00  0.00    +0.000 S 
ATOM      2  O   UNL     1       6.246   6.963  16.173  0.00  0.00    +0.000 OA
ATOM      3  O   UNL     1       7.707   5.090  16.964  0.00  0.00    +0.000 OA
ENDROOT
BRANCH   1   4
ATOM      4  N   UNL     1       5.736   5.876  18.303  0.00  0.00    +0.000 N 
ATOM      5  C   UNL     1       4.657   5.043  17.999  0.00  0.00    +0.000 C 
ATOM      6  O   UNL     1       4.560   4.469  16.923  0.00  0.00    +0.000 OA
ATOM      7  H   UNL     1       5.812   6.317  19.213  0.00  0.00    +0.000 HD
BRANCH   5   8
ATOM      8  C   UNL     1       3.704   4.870  19.086  0.00  0.00    +0.000 A 
ATOM      9  C   UNL     1       2.901   5.850  19.643  0.00  0.00    +0.000 A 
ATOM     10  C   UNL     1       2.045   5.348  20.665  0.00  0.00    +0.000 A 
ATOM     11  C   UNL     1       2.229   4.001  20.872  0.00  0.00    +0.000 A 
ATOM     12  S   UNL     1       3.427   3.353  19.842  0.00  0.00    +0.000 S 
ENDBRANCH   5   8
ENDBRANCH   1   4
BRANCH   1  14
ATOM     13  C   UNL     1       8.008   8.694  17.708  0.00  0.00    +0.000 C 
ATOM     14  C   UNL     1       7.942   7.415  18.107  0.00  0.00    +0.000 C 
BRANCH  13  19
ATOM     15  C   UNL     1      11.060  12.906  20.254  0.00  0.00    +0.000 C 
ATOM     16  C   UNL     1      10.282  11.808  19.593  0.00  0.00    +0.000 A 
ATOM     17  C   UNL     1      10.150  11.749  18.203  0.00  0.00    +0.000 A 
ATOM     18  C   UNL     1       9.414  10.721  17.603  0.00  0.00    +0.000 A 
ATOM     19  C   UNL     1       8.807   9.728  18.381  0.00  0.00    +0.000 A 
ATOM     20  C   UNL     1       8.930   9.797  19.773  0.00  0.00    +0.000 A 
ATOM     21  C   UNL     1       9.664  10.825  20.374  0.00  0.00    +0.000 A 
ENDBRANCH  13  19
ENDBRANCH   1  14
TORSDOF 4
ENDMDL
MODEL 3
REMARK VINA RESULT:      -6.9      4.529      6.628
REMARK  Name = 
REMARK  5 active torsions:
REMARK  status: ('A' for Active; 'I' for Inactive)
REMARK    1  A    between atoms: C_1  and  C_2
REMARK    2  A    between atoms: C_5  and  C_6
REMARK    3  A    between atoms: C_7  and  S_8
REMARK    4  A    between atoms: S_8  and  N_11
REMARK    5  A    between atoms: C_12  and  C_14
REMARK                            x       y       z     vdW  Elec       q    Type
REMARK                         _______ _______ _______ _____ _____    ______ ____
ROOT
ATOM      1  S   UNL     1       6.082   4.595  18.351  0.00  0.00    +0.000 S 
ATOM      2  O   UNL     1       7.443   4.845  18.779  0.00  0.00    +0.000 OA
ATOM      3  O   UNL     1       5.345   3.486  18.921  0.00  0.00    +0.000 OA
ENDROOT
BRANCH   1   4
ATOM      4  N   UNL     1       6.222   4.327  16.725  0.00  0.00    +0.000 N 
ATOM      5  C   UNL     1       6.871   5.178  15.827  0.00  0.00    +0.000 C 
ATOM      6  O   UNL     1       7.475   6.175  16.196  0.00  0.00    +0.000 OA
ATOM      7  H   UNL     1       5.753   3.488  16.401  0.00  0.00    +0.000 HD
BRANCH   5   8
ATOM      8  C   UNL     1       6.820   4.741  14.439  0.00  0.00    +0.000 A 
ATOM      9  C   UNL     1       7.694   5.103  13.428  0.00  0.00    +0.000 A 
ATOM     10  C   UNL     1       7.396   4.468  12.188  0.00  0.00    +0.000 A 
ATOM     11  C   UNL     1       6.294   3.652  12.281  0.00  0.00    +0.000 A 
ATOM     12  S   UNL     1       5.624   3.656  13.853  0.00  0.00    +0.000 S 
ENDBRANCH   5   8
ENDBRANCH   1   4
BRANCH   1  14
ATOM     13  C   UNL     1       3.807   5.971  18.630  0.00  0.00    +0.000 C 
ATOM     14  C   UNL     1       5.141   6.045  18.501  0.00  0.00    +0.000 C 
BRANCH  13  19
ATOM     15  C   UNL     1       0.256  10.525  19.065  0.00  0.00    +0.000 C 
ATOM     16  C   UNL     1       1.186   9.354  18.957  0.00  0.00    +0.000 A 
ATOM     17  C   UNL     1       1.915   9.114  17.789  0.00  0.00    +0.000 A 
ATOM     18  C   UNL     1       2.774   8.013  17.702  0.00  0.00    +0.000 A 
ATOM     19  C   UNL     1       2.927   7.138  18.784  0.00  0.00    +0.000 A 
ATOM     20  C   UNL     1       2.186   7.374  19.948  0.00  0.00    +0.000 A 
ATOM     21  C   UNL     1       1.327   8.473  20.035  0.00  0.00    +0.000 A 
ENDBRANCH  13  19
ENDBRANCH   1  14
TORSDOF 4
ENDMDL
MODEL 4
REMARK VINA RESULT:      -6.9      5.005      8.159
REMARK  Name = 
REMARK  5 active torsions:
REMARK  status: ('A' for Active; 'I' for Inactive)
REMARK    1  A    between atoms: C_1  and  C_2
REMARK    2  A    between atoms: C_5  and  C_6
REMARK    3  A    between atoms: C_7  and  S_8
REMARK    4  A    between atoms: S_8  and  N_11
REMARK    5  A    between atoms: C_12  and  C_14
REMARK                            x       y       z     vdW  Elec       q    Type
REMARK                         _______ _______ _______ _____ _____    ______ ____
ROOT
ATOM      1  S   UNL     1       6.060   5.874  15.983  0.00  0.00    +0.000 S 
ATOM      2  O   UNL     1       5.223   6.962  15.519  0.00  0.00    +0.000 OA
ATOM      3  O   UNL     1       7.457   6.121  16.275  0.00  0.00    +0.000 OA
ENDROOT
BRANCH   1   4
ATOM      4  N   UNL     1       5.988   4.769  14.755  0.00  0.00    +0.000 N 
ATOM      5  C   UNL     1       6.846   4.740  13.654  0.00  0.00    +0.000 C 
ATOM      6  O   UNL     1       7.798   5.501  13.550  0.00  0.00    +0.000 OA
ATOM      7  H   UNL     1       5.223   4.108  14.836  0.00  0.00    +0.000 HD
BRANCH   5   8
ATOM      8  C   UNL     1       6.550   3.693  12.686  0.00  0.00    +0.000 A 
ATOM      9  C   UNL     1       7.467   2.998  11.917  0.00  0.00    +0.000 A 
ATOM     10  C   UNL     1       6.860   2.004  11.096  0.00  0.00    +0.000 A 
ATOM     11  C   UNL     1       5.493   1.979  11.249  0.00  0.00    +0.000 A 
ATOM     12  S   UNL     1       4.952   3.148  12.372  0.00  0.00    +0.000 S 
ENDBRANCH   5   8
ENDBRANCH   1   4
BRANCH   1  14
ATOM     13  C   UNL     1       3.981   5.055  17.450  0.00  0.00    +0.000 C 
ATOM     14  C   UNL     1       5.318   5.099  17.346  0.00  0.00    +0.000 C 
BRANCH  13  19
ATOM     15  C   UNL     1       1.302   2.505  21.906  0.00  0.00    +0.000 C 
ATOM     16  C   UNL     1       1.990   3.156  20.743  0.00  0.00    +0.000 A 
ATOM     17  C   UNL     1       3.255   2.735  20.323  0.00  0.00    +0.000 A 
ATOM     18  C   UNL     1       3.886   3.358  19.240  0.00  0.00    +0.000 A 
ATOM     19  C   UNL     1       3.259   4.404  18.552  0.00  0.00    +0.000 A 
ATOM     20  C   UNL     1       1.998   4.831  18.983  0.00  0.00    +0.000 A 
ATOM     21  C   UNL     1       1.368   4.210  20.066  0.00  0.00    +0.000 A 
ENDBRANCH  13  19
ENDBRANCH   1  14
TORSDOF 4
ENDMDL
MODEL 5
REMARK VINA RESULT:      -6.8      1.178      1.699
REMARK  Name = 
REMARK  5 active torsions:
REMARK  status: ('A' for Active; 'I' for Inactive)
REMARK    1  A    between atoms: C_1  and  C_2
REMARK    2  A    between atoms: C_5  and  C_6
REMARK    3  A    between atoms: C_7  and  S_8
REMARK    4  A    between atoms: S_8  and  N_11
REMARK    5  A    between atoms: C_12  and  C_14
REMARK                            x       y       z     vdW  Elec       q    Type
REMARK                         _______ _______ _______ _____ _____    ______ ____
ROOT
ATOM      1  S   UNL     1       7.350   6.355  17.569  0.00  0.00    +0.000 S 
ATOM      2  O   UNL     1       7.538   5.998  16.177  0.00  0.00    +0.000 OA
ATOM      3  O   UNL     1       8.142   5.699  18.589  0.00  0.00    +0.000 OA
ENDROOT
BRANCH   1   4
ATOM      4  N   UNL     1       5.760   6.000  17.857  0.00  0.00    +0.000 N 
ATOM      5  C   UNL     1       5.300   4.834  18.472  0.00  0.00    +0.000 C 
ATOM      6  O   UNL     1       6.063   3.998  18.936  0.00  0.00    +0.000 OA
ATOM      7  H   UNL     1       5.110   6.696  17.507  0.00  0.00    +0.000 HD
BRANCH   5   8
ATOM      8  C   UNL     1       3.851   4.737  18.572  0.00  0.00    +0.000 A 
ATOM      9  C   UNL     1       2.970   4.466  17.538  0.00  0.00    +0.000 A 
ATOM     10  C   UNL     1       1.615   4.396  17.972  0.00  0.00    +0.000 A 
ATOM     11  C   UNL     1       1.496   4.631  19.322  0.00  0.00    +0.000 A 
ATOM     12  S   UNL     1       3.008   4.936  20.055  0.00  0.00    +0.000 S 
ENDBRANCH   5   8
ENDBRANCH   1   4
BRANCH   1  14
ATOM     13  C   UNL     1       8.546   8.603  18.383  0.00  0.00    +0.000 C 
ATOM     14  C   UNL     1       7.481   8.074  17.760  0.00  0.00    +0.000 C 
BRANCH  13  19
ATOM     15  C   UNL     1       9.572  14.246  19.183  0.00  0.00    +0.000 C 
ATOM     16  C   UNL     1       9.294  12.786  18.983  0.00  0.00    +0.000 A 
ATOM     17  C   UNL     1       9.686  11.839  19.932  0.00  0.00    +0.000 A 
ATOM     18  C   UNL     1       9.425  10.479  19.727  0.00  0.00    +0.000 A 
ATOM     19  C   UNL     1       8.758  10.045  18.575  0.00  0.00    +0.000 A 
ATOM     20  C   UNL     1       8.378  10.995  17.620  0.00  0.00    +0.000 A 
ATOM     21  C   UNL     1       8.640  12.353  17.824  0.00  0.00    +0.000 A 
ENDBRANCH  13  19
ENDBRANCH   1  14
TORSDOF 4
ENDMDL
MODEL 6
REMARK VINA RESULT:      -6.8      0.886      1.510
REMARK  Name = 
REMARK  5 active torsions:
REMARK  status: ('A' for Active; 'I' for Inactive)
REMARK    1  A    between atoms: C_1  and  C_2
REMARK    2  A    between atoms: C_5  and  C_6
REMARK    3  A    between atoms: C_7  and  S_8
REMARK    4  A    between atoms: S_8  and  N_11
REMARK    5  A    between atoms: C_12  and  C_14
REMARK                            x       y       z     vdW  Elec       q    Type
REMARK                         _______ _______ _______ _____ _____    ______ ____
ROOT
ATOM      1  S   UNL     1       6.473   6.456  17.045  0.00  0.00    +0.000 S 
ATOM      2  O   UNL     1       5.753   6.469  15.788  0.00  0.00    +0.000 OA
ATOM      3  O   UNL     1       7.638   5.608  17.193  0.00  0.00    +0.000 OA
ENDROOT
BRANCH   1   4
ATOM      4  N   UNL     1       5.342   5.955  18.144  0.00  0.00    +0.000 N 
ATOM      5  C   UNL     1       4.626   4.758  18.065  0.00  0.00    +0.000 C 
ATOM      6  O   UNL     1       4.845   3.924  17.198  0.00  0.00    +0.000 OA
ATOM      7  H   UNL     1       5.166   6.619  18.890  0.00  0.00    +0.000 HD
BRANCH   5   8
ATOM      8  C   UNL     1       3.655   4.566  19.133  0.00  0.00    +0.000 A 
ATOM      9  C   UNL     1       2.741   5.499  19.594  0.00  0.00    +0.000 A 
ATOM     10  C   UNL     1       1.900   4.985  20.622  0.00  0.00    +0.000 A 
ATOM     11  C   UNL     1       2.205   3.680  20.930  0.00  0.00    +0.000 A 
ATOM     12  S   UNL     1       3.497   3.084  19.986  0.00  0.00    +0.000 S 
ENDBRANCH   5   8
ENDBRANCH   1   4
BRANCH   1  14
ATOM     13  C   UNL     1       8.124   8.365  17.926  0.00  0.00    +0.000 C 
ATOM     14  C   UNL     1       6.881   8.076  17.509  0.00  0.00    +0.000 C 
BRANCH  13  19
ATOM     15  C   UNL     1      10.069  13.585  19.509  0.00  0.00    +0.000 C 
ATOM     16  C   UNL     1       9.553  12.235  19.107  0.00  0.00    +0.000 A 
ATOM     17  C   UNL     1       9.770  11.110  19.906  0.00  0.00    +0.000 A 
ATOM     18  C   UNL     1       9.288   9.857  19.512  0.00  0.00    +0.000 A 
ATOM     19  C   UNL     1       8.571   9.708  18.318  0.00  0.00    +0.000 A 
ATOM     20  C   UNL     1       8.367  10.835  17.514  0.00  0.00    +0.000 A 
ATOM     21  C   UNL     1       8.850  12.087  17.906  0.00  0.00    +0.000 A 
ENDBRANCH  13  19
ENDBRANCH   1  14
TORSDOF 4
ENDMDL
MODEL 7
REMARK VINA RESULT:      -6.7      0.854      1.405
REMARK  Name = 
REMARK  5 active torsions:
REMARK  status: ('A' for Active; 'I' for Inactive)
REMARK    1  A    between atoms: C_1  and  C_2
REMARK    2  A    between atoms: C_5  and  C_6
REMARK    3  A    between atoms: C_7  and  S_8
REMARK    4  A    between atoms: S_8  and  N_11
REMARK    5  A    between atoms: C_12  and  C_14
REMARK                            x       y       z     vdW  Elec       q    Type
REMARK                         _______ _______ _______ _____ _____    ______ ____
ROOT
ATOM      1  S   UNL     1       7.022   5.802  17.215  0.00  0.00    +0.000 S 
ATOM      2  O   UNL     1       6.456   6.237  15.954  0.00  0.00    +0.000 OA
ATOM      3  O   UNL     1       7.950   4.690  17.237  0.00  0.00    +0.000 OA
ENDROOT
BRANCH   1   4
ATOM      4  N   UNL     1       5.700   5.374  18.114  0.00  0.00    +0.000 N 
ATOM      5  C   UNL     1       4.512   6.104  18.186  0.00  0.00    +0.000 C 
ATOM      6  O   UNL     1       4.318   7.102  17.505  0.00  0.00    +0.000 OA
ATOM      7  H   UNL     1       5.827   4.531  18.663  0.00  0.00    +0.000 HD
BRANCH   5   8
ATOM      8  C   UNL     1       3.512   5.540  19.081  0.00  0.00    +0.000 A 
ATOM      9  C   UNL     1       3.417   4.219  19.484  0.00  0.00    +0.000 A 
ATOM     10  C   UNL     1       2.349   3.996  20.401  0.00  0.00    +0.000 A 
ATOM     11  C   UNL     1       1.648   5.150  20.661  0.00  0.00    +0.000 A 
ATOM     12  S   UNL     1       2.274   6.488  19.802  0.00  0.00    +0.000 S 
ENDBRANCH   5   8
ENDBRANCH   1   4
BRANCH   1  14
ATOM     13  C   UNL     1       7.828   8.341  17.430  0.00  0.00    +0.000 C 
ATOM     14  C   UNL     1       7.726   7.152  18.044  0.00  0.00    +0.000 C 
BRANCH  13  19
ATOM     15  C   UNL     1      10.211  13.003  19.906  0.00  0.00    +0.000 C 
ATOM     16  C   UNL     1       9.582  11.797  19.273  0.00  0.00    +0.000 A 
ATOM     17  C   UNL     1       9.736  10.525  19.830  0.00  0.00    +0.000 A 
ATOM     18  C   UNL     1       9.148   9.409  19.223  0.00  0.00    +0.000 A 
ATOM     19  C   UNL     1       8.389   9.547  18.055  0.00  0.00    +0.000 A 
ATOM     20  C   UNL     1       8.248  10.821  17.493  0.00  0.00    +0.000 A 
ATOM     21  C   UNL     1       8.836  11.936  18.098  0.00  0.00    +0.000 A 
ENDBRANCH  13  19
ENDBRANCH   1  14
TORSDOF 4
ENDMDL
MODEL 8
REMARK VINA RESULT:      -6.6      1.190      1.371
REMARK  Name = 
REMARK  5 active torsions:
REMARK  status: ('A' for Active; 'I' for Inactive)
REMARK    1  A    between atoms: C_1  and  C_2
REMARK    2  A    between atoms: C_5  and  C_6
REMARK    3  A    between atoms: C_7  and  S_8
REMARK    4  A    between atoms: S_8  and  N_11
REMARK    5  A    between atoms: C_12  and  C_14
REMARK                            x       y       z     vdW  Elec       q    Type
REMARK                         _______ _______ _______ _____ _____    ______ ____
ROOT
ATOM      1  S   UNL     1       7.358   6.360  17.532  0.00  0.00    +0.000 S 
ATOM      2  O   UNL     1       7.547   5.942  16.158  0.00  0.00    +0.000 OA
ATOM      3  O   UNL     1       8.135   5.735  18.583  0.00  0.00    +0.000 OA
ENDROOT
BRANCH   1   4
ATOM      4  N   UNL     1       5.762   6.040  17.826  0.00  0.00    +0.000 N 
ATOM      5  C   UNL     1       5.260   4.811  18.258  0.00  0.00    +0.000 C 
ATOM      6  O   UNL     1       5.990   3.872  18.542  0.00  0.00    +0.000 OA
ATOM      7  H   UNL     1       5.140   6.816  17.627  0.00  0.00    +0.000 HD
BRANCH   5   8
ATOM      8  C   UNL     1       3.811   4.770  18.403  0.00  0.00    +0.000 A 
ATOM      9  C   UNL     1       2.901   4.309  17.467  0.00  0.00    +0.000 A 
ATOM     10  C   UNL     1       1.556   4.363  17.931  0.00  0.00    +0.000 A 
ATOM     11  C   UNL     1       1.473   4.877  19.204  0.00  0.00    +0.000 A 
ATOM     12  S   UNL     1       3.008   5.294  19.828  0.00  0.00    +0.000 S 
ENDBRANCH   5   8
ENDBRANCH   1   4
BRANCH   1  14
ATOM     13  C   UNL     1       8.511   8.621  18.371  0.00  0.00    +0.000 C 
ATOM     14  C   UNL     1       7.513   8.083  17.652  0.00  0.00    +0.000 C 
BRANCH  13  19
ATOM     15  C   UNL     1       9.215  14.344  18.906  0.00  0.00    +0.000 C 
ATOM     16  C   UNL     1       9.045  12.861  18.759  0.00  0.00    +0.000 A 
ATOM     17  C   UNL     1       8.340  12.317  17.682  0.00  0.00    +0.000 A 
ATOM     18  C   UNL     1       8.184  10.932  17.564  0.00  0.00    +0.000 A 
ATOM     19  C   UNL     1       8.739  10.065  18.514  0.00  0.00    +0.000 A 
ATOM     20  C   UNL     1       9.433  10.614  19.598  0.00  0.00    +0.000 A 
ATOM     21  C   UNL     1       9.588  11.999  19.718  0.00  0.00    +0.000 A 
ENDBRANCH  13  19
ENDBRANCH   1  14
TORSDOF 4
ENDMDL
MODEL 9
REMARK VINA RESULT:      -6.5      6.233      8.839
REMARK  Name = 
REMARK  5 active torsions:
REMARK  status: ('A' for Active; 'I' for Inactive)
REMARK    1  A    between atoms: C_1  and  C_2
REMARK    2  A    between atoms: C_5  and  C_6
REMARK    3  A    between atoms: C_7  and  S_8
REMARK    4  A    between atoms: S_8  and  N_11
REMARK    5  A    between atoms: C_12  and  C_14
REMARK                            x       y       z     vdW  Elec       q    Type
REMARK                         _______ _______ _______ _____ _____    ______ ____
ROOT
ATOM      1  S   UNL     1       1.572   9.810  18.297  0.00  0.00    +0.000 S 
ATOM      2  O   UNL     1       1.330   9.956  19.718  0.00  0.00    +0.000 OA
ATOM      3  O   UNL     1       2.575  10.633  17.654  0.00  0.00    +0.000 OA
ENDROOT
BRANCH   1   4
ATOM      4  N   UNL     1       0.110  10.165  17.610  0.00  0.00    +0.000 N 
ATOM      5  C   UNL     1      -1.102  10.236  18.300  0.00  0.00    +0.000 C 
ATOM      6  O   UNL     1      -1.167  10.120  19.516  0.00  0.00    +0.000 OA
ATOM      7  H   UNL     1       0.145  10.295  16.605  0.00  0.00    +0.000 HD
BRANCH   5   8
ATOM      8  C   UNL     1      -2.257  10.523  17.461  0.00  0.00    +0.000 A 
ATOM      9  C   UNL     1      -2.442  10.124  16.148  0.00  0.00    +0.000 A 
ATOM     10  C   UNL     1      -3.701  10.531  15.620  0.00  0.00    +0.000 A 
ATOM     11  C   UNL     1      -4.437  11.242  16.538  0.00  0.00    +0.000 A 
ATOM     12  S   UNL     1      -3.610  11.419  18.023  0.00  0.00    +0.000 S 
ENDBRANCH   5   8
ENDBRANCH   1   4
BRANCH   1  14
ATOM     13  C   UNL     1       2.423   7.333  18.832  0.00  0.00    +0.000 C 
ATOM     14  C   UNL     1       1.869   8.144  17.917  0.00  0.00    +0.000 C 
BRANCH  13  19
ATOM     15  C   UNL     1       3.519   1.686  18.166  0.00  0.00    +0.000 C 
ATOM     16  C   UNL     1       3.243   3.151  18.327  0.00  0.00    +0.000 A 
ATOM     17  C   UNL     1       4.108   3.975  19.051  0.00  0.00    +0.000 A 
ATOM     18  C   UNL     1       3.832   5.339  19.197  0.00  0.00    +0.000 A 
ATOM     19  C   UNL     1       2.693   5.905  18.613  0.00  0.00    +0.000 A 
ATOM     20  C   UNL     1       1.821   5.075  17.900  0.00  0.00    +0.000 A 
ATOM     21  C   UNL     1       2.095   3.711  17.754  0.00  0.00    +0.000 A 
ENDBRANCH  13  19
ENDBRANCH   1  14
TORSDOF 4
ENDMDL
