MODEL 1
REMARK VINA RESULT:      -8.5      0.000      0.000
REMARK  Name = 
REMARK  10 active torsions:
REMARK  status: ('A' for Active; 'I' for Inactive)
REMARK    1  A    between atoms: C_1  and  C_2
REMARK    2  A    between atoms: C_2  and  C_3
REMARK    3  A    between atoms: C_2  and  C_4
REMARK    4  A    between atoms: C_2  and  O_5
REMARK    5  A    between atoms: O_5  and  C_6
REMARK    6  A    between atoms: C_11  and  C_12
REMARK    7  A    between atoms: C_11  and  C_25
REMARK    8  A    between atoms: C_12  and  C_13
REMARK    9  A    between atoms: C_15  and  C_16
REMARK   10  A    between atoms: C_25  and  O_27
REMARK                            x       y       z     vdW  Elec       q    Type
REMARK                         _______ _______ _______ _____ _____    ______ ____
ROOT
ATOM      1  C   UNL     1       3.389   2.726  18.960  0.00  0.00    +0.000 C 
ATOM      2  O   UNL     1       3.306   1.627  18.429  0.00  0.00    +0.000 OA
ATOM      3  N   UNL     1       3.720   3.867  18.253  0.00  0.00    +0.000 N 
ATOM      4  C   UNL     1       3.919   3.766  16.818  0.00  0.00    +0.000 C 
ATOM      5  C   UNL     1       5.354   4.142  16.467  0.00  0.00    +0.000 C 
ATOM      6  C   UNL     1       5.705   5.567  16.962  0.00  0.00    +0.000 C 
ATOM      7  C   UNL     1       5.410   5.625  18.496  0.00  0.00    +0.000 C 
ATOM      8  C   UNL     1       3.987   5.170  18.845  0.00  0.00    +0.000 C 
ENDROOT
BRANCH   6   9
ATOM      9  C   UNL     1       4.879   6.671  16.283  0.00  0.00    +0.000 C 
ATOM     10  O   UNL     1       4.092   7.386  16.889  0.00  0.00    +0.000 OA
BRANCH   9  11
ATOM     11  O   UNL     1       5.108   6.872  14.969  0.00  0.00    +0.000 OA
ATOM     12  H   UNL     1       4.912   7.758  14.609  0.00  0.00    +0.000 HD
ENDBRANCH   9  11
ENDBRANCH   6   9
BRANCH   1  13
ATOM     13  O   UNL     1       3.172   2.954  20.286  0.00  0.00    +0.000 OA
BRANCH  13  15
ATOM     14  C   UNL     1       1.632   4.745  20.966  0.00  0.00    +0.000 C 
ATOM     15  C   UNL     1       1.820   3.238  20.738  0.00  0.00    +0.000 C 
ATOM     16  C   UNL     1       1.454   2.402  21.974  0.00  0.00    +0.000 C 
ATOM     17  C   UNL     1       0.886   2.815  19.592  0.00  0.00    +0.000 C 
ENDBRANCH  13  15
ENDBRANCH   1  13
BRANCH   6  18
ATOM     18  C   UNL     1       7.208   5.890  16.751  0.00  0.00    +0.000 C 
BRANCH  18  19
ATOM     19  C   UNL     1       7.672   7.043  17.562  0.00  0.00    +0.000 A 
ATOM     20  C   UNL     1       7.723   8.394  17.333  0.00  0.00    +0.000 A 
ATOM     21  C   UNL     1       8.462   8.919  18.424  0.00  0.00    +0.000 A 
ATOM     22  N   UNL     1       8.756   7.940  19.297  0.00  0.00    +0.000 NA
ATOM     23  O   UNL     1       8.252   6.772  18.759  0.00  0.00    +0.000 OA
BRANCH  21  24
ATOM     24  C   UNL     1       8.908  10.296  18.608  0.00  0.00    +0.000 A 
ATOM     25  C   UNL     1       8.578  11.293  17.679  0.00  0.00    +0.000 A 
ATOM     26  C   UNL     1       9.045  12.601  17.850  0.00  0.00    +0.000 A 
ATOM     27  C   UNL     1       9.834  12.918  18.954  0.00  0.00    +0.000 A 
ATOM     28 CL   UNL     1      10.427  14.520  19.154  0.00  0.00    +0.000 Cl
ATOM     29  C   UNL     1      10.149  11.945  19.898  0.00  0.00    +0.000 A 
ATOM     30  C   UNL     1       9.686  10.638  19.726  0.00  0.00    +0.000 A 
ENDBRANCH  21  24
ENDBRANCH  18  19
ENDBRANCH   6  18
TORSDOF 7
ENDMDL
MODEL 2
REMARK VINA RESULT:      -8.4      0.356      1.053
REMARK  Name = 
REMARK  10 active torsions:
REMARK  status: ('A' for Active; 'I' for Inactive)
REMARK    1  A    between atoms: C_1  and  C_2
REMARK    2  A    between atoms: C_2  and  C_3
REMARK    3  A    between atoms: C_2  and  C_4
REMARK    4  A    between atoms: C_2  and  O_5
REMARK    5  A    between atoms: O_5  and  C_6
REMARK    6  A    between atoms: C_11  and  C_12
REMARK    7  A    between atoms: C_11  and  C_25
REMARK    8  A    between atoms: C_12  and  C_13
REMARK    9  A    between atoms: C_15  and  C_16
REMARK   10  A    between atoms: C_25  and  O_27
REMARK                            x       y       z     vdW  Elec       q    Type
REMARK                         _______ _______ _______ _____ _____    ______ ____
ROOT
ATOM      1  C   UNL     1       3.308   2.757  18.762  0.00  0.00    +0.000 C 
ATOM      2  O   UNL     1       3.208   1.680  18.190  0.00  0.00    +0.000 OA
ATOM      3  N   UNL     1       3.674   3.915  18.101  0.00  0.00    +0.000 N 
ATOM      4  C   UNL     1       3.889   3.862  16.666  0.00  0.00    +0.000 C 
ATOM      5  C   UNL     1       5.336   4.217  16.347  0.00  0.00    +0.000 C 
ATOM      6  C   UNL     1       5.713   5.616  16.897  0.00  0.00    +0.000 C 
ATOM      7  C   UNL     1       5.399   5.624  18.428  0.00  0.00    +0.000 C 
ATOM      8  C   UNL     1       3.962   5.190  18.744  0.00  0.00    +0.000 C 
ENDROOT
BRANCH   6   9
ATOM      9  C   UNL     1       4.920   6.762  16.248  0.00  0.00    +0.000 C 
ATOM     10  O   UNL     1       4.987   7.029  15.055  0.00  0.00    +0.000 OA
BRANCH   9  11
ATOM     11  O   UNL     1       4.075   7.440  17.051  0.00  0.00    +0.000 OA
ATOM     12  H   UNL     1       3.118   7.319  16.901  0.00  0.00    +0.000 HD
ENDBRANCH   9  11
ENDBRANCH   6   9
BRANCH   1  13
ATOM     13  O   UNL     1       3.079   2.942  20.093  0.00  0.00    +0.000 OA
BRANCH  13  15
ATOM     14  C   UNL     1       1.489   2.361  21.873  0.00  0.00    +0.000 C 
ATOM     15  C   UNL     1       1.711   3.112  20.553  0.00  0.00    +0.000 C 
ATOM     16  C   UNL     1       0.700   2.714  19.468  0.00  0.00    +0.000 C 
ATOM     17  C   UNL     1       1.534   4.615  20.830  0.00  0.00    +0.000 C 
ENDBRANCH  13  15
ENDBRANCH   1  13
BRANCH   6  18
ATOM     18  C   UNL     1       7.225   5.912  16.716  0.00  0.00    +0.000 C 
BRANCH  18  19
ATOM     19  C   UNL     1       7.712   6.999  17.601  0.00  0.00    +0.000 A 
ATOM     20  C   UNL     1       7.812   8.358  17.452  0.00  0.00    +0.000 A 
ATOM     21  C   UNL     1       8.548   8.793  18.585  0.00  0.00    +0.000 A 
ATOM     22  N   UNL     1       8.793   7.755  19.403  0.00  0.00    +0.000 NA
ATOM     23  O   UNL     1       8.261   6.640  18.789  0.00  0.00    +0.000 OA
BRANCH  21  24
ATOM     24  C   UNL     1       9.036  10.142  18.856  0.00  0.00    +0.000 A 
ATOM     25  C   UNL     1       9.288  11.043  17.812  0.00  0.00    +0.000 A 
ATOM     26  C   UNL     1       9.791  12.319  18.087  0.00  0.00    +0.000 A 
ATOM     27  C   UNL     1      10.034  12.702  19.406  0.00  0.00    +0.000 A 
ATOM     28 CL   UNL     1      10.673  14.263  19.743  0.00  0.00    +0.000 Cl
ATOM     29  C   UNL     1       9.764  11.827  20.453  0.00  0.00    +0.000 A 
ATOM     30  C   UNL     1       9.265  10.552  20.180  0.00  0.00    +0.000 A 
ENDBRANCH  21  24
ENDBRANCH  18  19
ENDBRANCH   6  18
TORSDOF 7
ENDMDL
MODEL 3
REMARK VINA RESULT:      -7.8      4.540      6.058
REMARK  Name = 
REMARK  10 active torsions:
REMARK  status: ('A' for Active; 'I' for Inactive)
REMARK    1  A    between atoms: C_1  and  C_2
REMARK    2  A    between atoms: C_2  and  C_3
REMARK    3  A    between atoms: C_2  and  C_4
REMARK    4  A    between atoms: C_2  and  O_5
REMARK    5  A    between atoms: O_5  and  C_6
REMARK    6  A    between atoms: C_11  and  C_12
REMARK    7  A    between atoms: C_11  and  C_25
REMARK    8  A    between atoms: C_12  and  C_13
REMARK    9  A    between atoms: C_15  and  C_16
REMARK   10  A    between atoms: C_25  and  O_27
REMARK                            x       y       z     vdW  Elec       q    Type
REMARK                         _______ _______ _______ _____ _____    ______ ____
ROOT
ATOM      1  C   UNL     1       4.024   2.764  19.984  0.00  0.00    +0.000 C 
ATOM      2  O   UNL     1       4.840   2.678  20.891  0.00  0.00    +0.000 OA
ATOM      3  N   UNL     1       4.306   3.409  18.793  0.00  0.00    +0.000 N 
ATOM      4  C   UNL     1       5.638   3.952  18.592  0.00  0.00    +0.000 C 
ATOM      5  C   UNL     1       5.559   5.465  18.426  0.00  0.00    +0.000 C 
ATOM      6  C   UNL     1       4.631   5.860  17.249  0.00  0.00    +0.000 C 
ATOM      7  C   UNL     1       3.239   5.194  17.497  0.00  0.00    +0.000 C 
ATOM      8  C   UNL     1       3.338   3.682  17.741  0.00  0.00    +0.000 C 
ENDROOT
BRANCH   6   9
ATOM      9  C   UNL     1       5.143   5.384  15.880  0.00  0.00    +0.000 C 
ATOM     10  O   UNL     1       5.234   4.201  15.575  0.00  0.00    +0.000 OA
BRANCH   9  11
ATOM     11  O   UNL     1       5.436   6.344  14.979  0.00  0.00    +0.000 OA
ATOM     12  H   UNL     1       6.306   6.298  14.540  0.00  0.00    +0.000 HD
ENDBRANCH   9  11
ENDBRANCH   6   9
BRANCH   1  13
ATOM     13  O   UNL     1       2.764   2.247  20.035  0.00  0.00    +0.000 OA
BRANCH  13  15
ATOM     14  C   UNL     1       2.170   4.426  21.004  0.00  0.00    +0.000 C 
ATOM     15  C   UNL     1       1.735   2.974  20.760  0.00  0.00    +0.000 C 
ATOM     16  C   UNL     1       1.342   2.248  22.056  0.00  0.00    +0.000 C 
ATOM     17  C   UNL     1       0.500   3.000  19.844  0.00  0.00    +0.000 C 
ENDBRANCH  13  15
ENDBRANCH   1  13
BRANCH   6  18
ATOM     18  C   UNL     1       4.422   7.396  17.179  0.00  0.00    +0.000 C 
BRANCH  18  19
ATOM     19  C   UNL     1       3.217   7.850  17.917  0.00  0.00    +0.000 A 
ATOM     20  C   UNL     1       2.233   8.763  17.640  0.00  0.00    +0.000 A 
ATOM     21  C   UNL     1       1.491   8.872  18.844  0.00  0.00    +0.000 A 
ATOM     22  N   UNL     1       1.959   8.003  19.757  0.00  0.00    +0.000 NA
ATOM     23  O   UNL     1       3.030   7.360  19.169  0.00  0.00    +0.000 OA
BRANCH  21  24
ATOM     24  C   UNL     1       0.401   9.801  19.129  0.00  0.00    +0.000 A 
ATOM     25  C   UNL     1       0.222  10.334  20.413  0.00  0.00    +0.000 A 
ATOM     26  C   UNL     1      -0.849  11.193  20.679  0.00  0.00    +0.000 A 
ATOM     27  C   UNL     1      -1.738  11.532  19.659  0.00  0.00    +0.000 A 
ATOM     28 CL   UNL     1      -3.068  12.571  19.990  0.00  0.00    +0.000 Cl
ATOM     29  C   UNL     1      -1.558  11.031  18.374  0.00  0.00    +0.000 A 
ATOM     30  C   UNL     1      -0.490  10.170  18.109  0.00  0.00    +0.000 A 
ENDBRANCH  21  24
ENDBRANCH  18  19
ENDBRANCH   6  18
TORSDOF 7
ENDMDL
MODEL 4
REMARK VINA RESULT:      -7.8      4.379      5.904
REMARK  Name = 
REMARK  10 active torsions:
REMARK  status: ('A' for Active; 'I' for Inactive)
REMARK    1  A    between atoms: C_1  and  C_2
REMARK    2  A    between atoms: C_2  and  C_3
REMARK    3  A    between atoms: C_2  and  C_4
REMARK    4  A    between atoms: C_2  and  O_5
REMARK    5  A    between atoms: O_5  and  C_6
REMARK    6  A    between atoms: C_11  and  C_12
REMARK    7  A    between atoms: C_11  and  C_25
REMARK    8  A    between atoms: C_12  and  C_13
REMARK    9  A    between atoms: C_15  and  C_16
REMARK   10  A    between atoms: C_25  and  O_27
REMARK                            x       y       z     vdW  Elec       q    Type
REMARK                         _______ _______ _______ _____ _____    ______ ____
ROOT
ATOM      1  C   UNL     1       4.158   2.748  19.730  0.00  0.00    +0.000 C 
ATOM      2  O   UNL     1       4.812   2.704  20.763  0.00  0.00    +0.000 OA
ATOM      3  N   UNL     1       4.591   3.432  18.609  0.00  0.00    +0.000 N 
ATOM      4  C   UNL     1       5.894   4.071  18.641  0.00  0.00    +0.000 C 
ATOM      5  C   UNL     1       5.735   5.577  18.471  0.00  0.00    +0.000 C 
ATOM      6  C   UNL     1       4.995   5.926  17.155  0.00  0.00    +0.000 C 
ATOM      7  C   UNL     1       3.634   5.159  17.158  0.00  0.00    +0.000 C 
ATOM      8  C   UNL     1       3.799   3.654  17.407  0.00  0.00    +0.000 C 
ENDROOT
BRANCH   6   9
ATOM      9  C   UNL     1       5.766   5.511  15.892  0.00  0.00    +0.000 C 
ATOM     10  O   UNL     1       5.235   4.961  14.935  0.00  0.00    +0.000 OA
BRANCH   9  11
ATOM     11  O   UNL     1       7.073   5.844  15.847  0.00  0.00    +0.000 OA
ATOM     12  H   UNL     1       7.401   6.469  16.522  0.00  0.00    +0.000 HD
ENDBRANCH   9  11
ENDBRANCH   6   9
BRANCH   1  13
ATOM     13  O   UNL     1       2.948   2.143  19.562  0.00  0.00    +0.000 OA
BRANCH  13  15
ATOM     14  C   UNL     1       1.882   4.282  20.133  0.00  0.00    +0.000 C 
ATOM     15  C   UNL     1       1.769   2.751  20.157  0.00  0.00    +0.000 C 
ATOM     16  C   UNL     1       1.502   2.198  21.565  0.00  0.00    +0.000 C 
ATOM     17  C   UNL     1       0.583   2.352  19.263  0.00  0.00    +0.000 C 
ENDBRANCH  13  15
ENDBRANCH   1  13
BRANCH   6  18
ATOM     18  C   UNL     1       4.690   7.444  17.057  0.00  0.00    +0.000 C 
BRANCH  18  19
ATOM     19  C   UNL     1       3.447   7.831  17.770  0.00  0.00    +0.000 A 
ATOM     20  C   UNL     1       2.459   8.745  17.509  0.00  0.00    +0.000 A 
ATOM     21  C   UNL     1       1.664   8.765  18.684  0.00  0.00    +0.000 A 
ATOM     22  N   UNL     1       2.110   7.848  19.559  0.00  0.00    +0.000 NA
ATOM     23  O   UNL     1       3.217   7.260  18.980  0.00  0.00    +0.000 OA
BRANCH  21  24
ATOM     24  C   UNL     1       0.547   9.657  18.980  0.00  0.00    +0.000 A 
ATOM     25  C   UNL     1      -0.407   9.968  18.002  0.00  0.00    +0.000 A 
ATOM     26  C   UNL     1      -1.451  10.855  18.290  0.00  0.00    +0.000 A 
ATOM     27  C   UNL     1      -1.550  11.423  19.559  0.00  0.00    +0.000 A 
ATOM     28 CL   UNL     1      -2.820  12.529  19.908  0.00  0.00    +0.000 Cl
ATOM     29  C   UNL     1      -0.625  11.103  20.548  0.00  0.00    +0.000 A 
ATOM     30  C   UNL     1       0.420  10.221  20.259  0.00  0.00    +0.000 A 
ENDBRANCH  21  24
ENDBRANCH  18  19
ENDBRANCH   6  18
TORSDOF 7
ENDMDL
MODEL 5
REMARK VINA RESULT:      -7.7      1.524      2.277
REMARK  Name = 
REMARK  10 active torsions:
REMARK  status: ('A' for Active; 'I' for Inactive)
REMARK    1  A    between atoms: C_1  and  C_2
REMARK    2  A    between atoms: C_2  and  C_3
REMARK    3  A    between atoms: C_2  and  C_4
REMARK    4  A    between atoms: C_2  and  O_5
REMARK    5  A    between atoms: O_5  and  C_6
REMARK    6  A    between atoms: C_11  and  C_12
REMARK    7  A    between atoms: C_11  and  C_25
REMARK    8  A    between atoms: C_12  and  C_13
REMARK    9  A    between atoms: C_15  and  C_16
REMARK   10  A    between atoms: C_25  and  O_27
REMARK                            x       y       z     vdW  Elec       q    Type
REMARK                         _______ _______ _______ _____ _____    ______ ____
ROOT
ATOM      1  C   UNL     1       3.710   3.158  19.499  0.00  0.00    +0.000 C 
ATOM      2  O   UNL     1       3.827   3.273  20.712  0.00  0.00    +0.000 OA
ATOM      3  N   UNL     1       4.716   3.517  18.621  0.00  0.00    +0.000 N 
ATOM      4  C   UNL     1       5.977   3.992  19.160  0.00  0.00    +0.000 C 
ATOM      5  C   UNL     1       6.220   5.429  18.715  0.00  0.00    +0.000 C 
ATOM      6  C   UNL     1       6.211   5.555  17.171  0.00  0.00    +0.000 C 
ATOM      7  C   UNL     1       4.858   4.971  16.654  0.00  0.00    +0.000 C 
ATOM      8  C   UNL     1       4.586   3.552  17.171  0.00  0.00    +0.000 C 
ENDROOT
BRANCH   6   9
ATOM      9  C   UNL     1       7.350   4.781  16.488  0.00  0.00    +0.000 C 
ATOM     10  O   UNL     1       7.564   4.831  15.283  0.00  0.00    +0.000 OA
BRANCH   9  11
ATOM     11  O   UNL     1       8.168   4.075  17.295  0.00  0.00    +0.000 OA
ATOM     12  H   UNL     1       7.896   3.966  18.227  0.00  0.00    +0.000 HD
ENDBRANCH   9  11
ENDBRANCH   6   9
BRANCH   1  13
ATOM     13  O   UNL     1       2.596   2.674  18.880  0.00  0.00    +0.000 OA
BRANCH  13  15
ATOM     14  C   UNL     1       1.184   4.078  17.440  0.00  0.00    +0.000 C 
ATOM     15  C   UNL     1       1.398   3.497  18.844  0.00  0.00    +0.000 C 
ATOM     16  C   UNL     1       1.427   4.578  19.935  0.00  0.00    +0.000 C 
ATOM     17  C   UNL     1       0.221   2.555  19.149  0.00  0.00    +0.000 C 
ENDBRANCH  13  15
ENDBRANCH   1  13
BRANCH   6  18
ATOM     18  C   UNL     1       6.298   7.037  16.719  0.00  0.00    +0.000 C 
BRANCH  18  19
ATOM     19  C   UNL     1       7.206   7.848  17.568  0.00  0.00    +0.000 A 
ATOM     20  C   UNL     1       7.459   9.192  17.658  0.00  0.00    +0.000 A 
ATOM     21  C   UNL     1       8.581   9.294  18.520  0.00  0.00    +0.000 A 
ATOM     22  N   UNL     1       8.919   8.078  18.984  0.00  0.00    +0.000 NA
ATOM     23  O   UNL     1       8.051   7.181  18.394  0.00  0.00    +0.000 OA
BRANCH  21  24
ATOM     24  C   UNL     1       9.331  10.500  18.856  0.00  0.00    +0.000 A 
ATOM     25  C   UNL     1       9.434  10.941  20.182  0.00  0.00    +0.000 A 
ATOM     26  C   UNL     1      10.125  12.120  20.483  0.00  0.00    +0.000 A 
ATOM     27  C   UNL     1      10.724  12.855  19.461  0.00  0.00    +0.000 A 
ATOM     28 CL   UNL     1      11.554  14.316  19.827  0.00  0.00    +0.000 Cl
ATOM     29  C   UNL     1      10.651  12.416  18.143  0.00  0.00    +0.000 A 
ATOM     30  C   UNL     1       9.959  11.241  17.841  0.00  0.00    +0.000 A 
ENDBRANCH  21  24
ENDBRANCH  18  19
ENDBRANCH   6  18
TORSDOF 7
ENDMDL
MODEL 6
REMARK VINA RESULT:      -7.7      0.951      1.480
REMARK  Name = 
REMARK  10 active torsions:
REMARK  status: ('A' for Active; 'I' for Inactive)
REMARK    1  A    between atoms: C_1  and  C_2
REMARK    2  A    between atoms: C_2  and  C_3
REMARK    3  A    between atoms: C_2  and  C_4
REMARK    4  A    between atoms: C_2  and  O_5
REMARK    5  A    between atoms: O_5  and  C_6
REMARK    6  A    between atoms: C_11  and  C_12
REMARK    7  A    between atoms: C_11  and  C_25
REMARK    8  A    between atoms: C_12  and  C_13
REMARK    9  A    between atoms: C_15  and  C_16
REMARK   10  A    between atoms: C_25  and  O_27
REMARK                            x       y       z     vdW  Elec       q    Type
REMARK                         _______ _______ _______ _____ _____    ______ ____
ROOT
ATOM      1  C   UNL     1       2.169   3.217  18.132  0.00  0.00    +0.000 C 
ATOM      2  O   UNL     1       2.010   2.059  17.771  0.00  0.00    +0.000 OA
ATOM      3  N   UNL     1       2.960   4.109  17.432  0.00  0.00    +0.000 N 
ATOM      4  C   UNL     1       3.576   3.672  16.192  0.00  0.00    +0.000 C 
ATOM      5  C   UNL     1       5.094   3.721  16.324  0.00  0.00    +0.000 C 
ATOM      6  C   UNL     1       5.586   5.141  16.700  0.00  0.00    +0.000 C 
ATOM      7  C   UNL     1       4.840   5.573  18.003  0.00  0.00    +0.000 C 
ATOM      8  C   UNL     1       3.315   5.446  17.886  0.00  0.00    +0.000 C 
ENDROOT
BRANCH   6   9
ATOM      9  C   UNL     1       5.295   6.194  15.619  0.00  0.00    +0.000 C 
ATOM     10  O   UNL     1       4.611   7.190  15.823  0.00  0.00    +0.000 OA
BRANCH   9  11
ATOM     11  O   UNL     1       5.891   6.011  14.423  0.00  0.00    +0.000 OA
ATOM     12  H   UNL     1       5.314   5.826  13.657  0.00  0.00    +0.000 HD
ENDBRANCH   9  11
ENDBRANCH   6   9
BRANCH   1  13
ATOM     13  O   UNL     1       1.599   3.757  19.247  0.00  0.00    +0.000 OA
BRANCH  13  15
ATOM     14  C   UNL     1       3.548   2.796  20.394  0.00  0.00    +0.000 C 
ATOM     15  C   UNL     1       2.164   3.441  20.548  0.00  0.00    +0.000 C 
ATOM     16  C   UNL     1       1.202   2.585  21.385  0.00  0.00    +0.000 C 
ATOM     17  C   UNL     1       2.349   4.785  21.274  0.00  0.00    +0.000 C 
ENDBRANCH  13  15
ENDBRANCH   1  13
BRANCH   6  18
ATOM     18  C   UNL     1       7.110   5.157  16.992  0.00  0.00    +0.000 C 
BRANCH  18  19
ATOM     19  C   UNL     1       7.546   6.376  17.718  0.00  0.00    +0.000 A 
ATOM     20  C   UNL     1       7.574   7.707  17.390  0.00  0.00    +0.000 A 
ATOM     21  C   UNL     1       8.295   8.325  18.444  0.00  0.00    +0.000 A 
ATOM     22  N   UNL     1       8.601   7.419  19.389  0.00  0.00    +0.000 NA
ATOM     23  O   UNL     1       8.122   6.206  18.935  0.00  0.00    +0.000 OA
BRANCH  21  24
ATOM     24  C   UNL     1       8.715   9.720  18.527  0.00  0.00    +0.000 A 
ATOM     25  C   UNL     1       9.550  10.163  19.562  0.00  0.00    +0.000 A 
ATOM     26  C   UNL     1       9.913  11.512  19.649  0.00  0.00    +0.000 A 
ATOM     27  C   UNL     1       9.451  12.419  18.696  0.00  0.00    +0.000 A 
ATOM     28 CL   UNL     1       9.878  14.081  18.814  0.00  0.00    +0.000 Cl
ATOM     29  C   UNL     1       8.641  11.989  17.649  0.00  0.00    +0.000 A 
ATOM     30  C   UNL     1       8.276  10.643  17.564  0.00  0.00    +0.000 A 
ENDBRANCH  21  24
ENDBRANCH  18  19
ENDBRANCH   6  18
TORSDOF 7
ENDMDL
MODEL 7
REMARK VINA RESULT:      -7.6      1.374      1.845
REMARK  Name = 
REMARK  10 active torsions:
REMARK  status: ('A' for Active; 'I' for Inactive)
REMARK    1  A    between atoms: C_1  and  C_2
REMARK    2  A    between atoms: C_2  and  C_3
REMARK    3  A    between atoms: C_2  and  C_4
REMARK    4  A    between atoms: C_2  and  O_5
REMARK    5  A    between atoms: O_5  and  C_6
REMARK    6  A    between atoms: C_11  and  C_12
REMARK    7  A    between atoms: C_11  and  C_25
REMARK    8  A    between atoms: C_12  and  C_13
REMARK    9  A    between atoms: C_15  and  C_16
REMARK   10  A    between atoms: C_25  and  O_27
REMARK                            x       y       z     vdW  Elec       q    Type
REMARK                         _______ _______ _______ _____ _____    ______ ____
ROOT
ATOM      1  C   UNL     1       3.855   2.826  19.816  0.00  0.00    +0.000 C 
ATOM      2  O   UNL     1       4.242   2.861  20.976  0.00  0.00    +0.000 OA
ATOM      3  N   UNL     1       4.649   3.229  18.758  0.00  0.00    +0.000 N 
ATOM      4  C   UNL     1       6.011   3.653  19.028  0.00  0.00    +0.000 C 
ATOM      5  C   UNL     1       6.187   5.113  18.628  0.00  0.00    +0.000 C 
ATOM      6  C   UNL     1       5.837   5.339  17.136  0.00  0.00    +0.000 C 
ATOM      7  C   UNL     1       4.387   4.806  16.901  0.00  0.00    +0.000 C 
ATOM      8  C   UNL     1       4.200   3.360  17.379  0.00  0.00    +0.000 C 
ENDROOT
BRANCH   6   9
ATOM      9  C   UNL     1       6.774   4.597  16.169  0.00  0.00    +0.000 C 
ATOM     10  O   UNL     1       6.417   4.195  15.069  0.00  0.00    +0.000 OA
BRANCH   9  11
ATOM     11  O   UNL     1       8.057   4.458  16.562  0.00  0.00    +0.000 OA
ATOM     12  H   UNL     1       8.218   4.198  17.489  0.00  0.00    +0.000 HD
ENDBRANCH   9  11
ENDBRANCH   6   9
BRANCH   1  13
ATOM     13  O   UNL     1       2.619   2.397  19.433  0.00  0.00    +0.000 OA
BRANCH  13  15
ATOM     14  C   UNL     1       1.655   4.621  19.841  0.00  0.00    +0.000 C 
ATOM     15  C   UNL     1       1.447   3.102  19.926  0.00  0.00    +0.000 C 
ATOM     16  C   UNL     1       1.063   2.635  21.338  0.00  0.00    +0.000 C 
ATOM     17  C   UNL     1       0.293   2.731  18.980  0.00  0.00    +0.000 C 
ENDBRANCH  13  15
ENDBRANCH   1  13
BRANCH   6  18
ATOM     18  C   UNL     1       5.860   6.847  16.767  0.00  0.00    +0.000 C 
BRANCH  18  19
ATOM     19  C   UNL     1       6.864   7.616  17.543  0.00  0.00    +0.000 A 
ATOM     20  C   UNL     1       7.157   8.952  17.637  0.00  0.00    +0.000 A 
ATOM     21  C   UNL     1       8.358   9.007  18.391  0.00  0.00    +0.000 A 
ATOM     22  N   UNL     1       8.708   7.774  18.794  0.00  0.00    +0.000 NA
ATOM     23  O   UNL     1       7.766   6.910  18.271  0.00  0.00    +0.000 OA
BRANCH  21  24
ATOM     24  C   UNL     1       9.165  10.189  18.680  0.00  0.00    +0.000 A 
ATOM     25  C   UNL     1       9.683  10.981  17.647  0.00  0.00    +0.000 A 
ATOM     26  C   UNL     1      10.487  12.088  17.940  0.00  0.00    +0.000 A 
ATOM     27  C   UNL     1      10.765  12.413  19.267  0.00  0.00    +0.000 A 
ATOM     28 CL   UNL     1      11.771  13.761  19.628  0.00  0.00    +0.000 Cl
ATOM     29  C   UNL     1      10.237  11.651  20.304  0.00  0.00    +0.000 A 
ATOM     30  C   UNL     1       9.438  10.543  20.012  0.00  0.00    +0.000 A 
ENDBRANCH  21  24
ENDBRANCH  18  19
ENDBRANCH   6  18
TORSDOF 7
ENDMDL
MODEL 8
REMARK VINA RESULT:      -7.6      1.537      2.195
REMARK  Name = 
REMARK  10 active torsions:
REMARK  status: ('A' for Active; 'I' for Inactive)
REMARK    1  A    between atoms: C_1  and  C_2
REMARK    2  A    between atoms: C_2  and  C_3
REMARK    3  A    between atoms: C_2  and  C_4
REMARK    4  A    between atoms: C_2  and  O_5
REMARK    5  A    between atoms: O_5  and  C_6
REMARK    6  A    between atoms: C_11  and  C_12
REMARK    7  A    between atoms: C_11  and  C_25
REMARK    8  A    between atoms: C_12  and  C_13
REMARK    9  A    between atoms: C_15  and  C_16
REMARK   10  A    between atoms: C_25  and  O_27
REMARK                            x       y       z     vdW  Elec       q    Type
REMARK                         _______ _______ _______ _____ _____    ______ ____
ROOT
ATOM      1  C   UNL     1       3.407   4.381  19.726  0.00  0.00    +0.000 C 
ATOM      2  O   UNL     1       3.518   4.663  20.911  0.00  0.00    +0.000 OA
ATOM      3  N   UNL     1       4.487   4.369  18.863  0.00  0.00    +0.000 N 
ATOM      4  C   UNL     1       5.809   4.644  19.396  0.00  0.00    +0.000 C 
ATOM      5  C   UNL     1       6.374   5.905  18.751  0.00  0.00    +0.000 C 
ATOM      6  C   UNL     1       6.429   5.779  17.208  0.00  0.00    +0.000 C 
ATOM      7  C   UNL     1       4.993   5.422  16.708  0.00  0.00    +0.000 C 
ATOM      8  C   UNL     1       4.402   4.197  17.420  0.00  0.00    +0.000 C 
ENDROOT
BRANCH   6   9
ATOM      9  C   UNL     1       7.385   4.678  16.719  0.00  0.00    +0.000 C 
ATOM     10  O   UNL     1       7.479   4.349  15.543  0.00  0.00    +0.000 OA
BRANCH   9  11
ATOM     11  O   UNL     1       8.185   4.118  17.649  0.00  0.00    +0.000 OA
ATOM     12  H   UNL     1       8.108   3.154  17.786  0.00  0.00    +0.000 HD
ENDBRANCH   9  11
ENDBRANCH   6   9
BRANCH   1  13
ATOM     13  O   UNL     1       2.229   4.053  19.124  0.00  0.00    +0.000 OA
BRANCH  13  15
ATOM     14  C   UNL     1       0.389   2.524  18.563  0.00  0.00    +0.000 C 
ATOM     15  C   UNL     1       1.563   2.819  19.506  0.00  0.00    +0.000 C 
ATOM     16  C   UNL     1       1.145   2.841  20.984  0.00  0.00    +0.000 C 
ATOM     17  C   UNL     1       2.602   1.698  19.330  0.00  0.00    +0.000 C 
ENDBRANCH  13  15
ENDBRANCH   1  13
BRANCH   6  18
ATOM     18  C   UNL     1       6.851   7.115  16.542  0.00  0.00    +0.000 C 
BRANCH  18  19
ATOM     19  C   UNL     1       7.565   8.025  17.472  0.00  0.00    +0.000 A 
ATOM     20  C   UNL     1       7.740   9.384  17.508  0.00  0.00    +0.000 A 
ATOM     21  C   UNL     1       8.692   9.599  18.537  0.00  0.00    +0.000 A 
ATOM     22  N   UNL     1       8.998   8.435  19.136  0.00  0.00    +0.000 NA
ATOM     23  O   UNL     1       8.283   7.457  18.473  0.00  0.00    +0.000 OA
BRANCH  21  24
ATOM     24  C   UNL     1       9.321  10.863  18.909  0.00  0.00    +0.000 A 
ATOM     25  C   UNL     1       9.223  11.990  18.081  0.00  0.00    +0.000 A 
ATOM     26  C   UNL     1       9.863  13.184  18.434  0.00  0.00    +0.000 A 
ATOM     27  C   UNL     1      10.592  13.258  19.619  0.00  0.00    +0.000 A 
ATOM     28 CL   UNL     1      11.397  14.717  20.043  0.00  0.00    +0.000 Cl
ATOM     29  C   UNL     1      10.677  12.155  20.463  0.00  0.00    +0.000 A 
ATOM     30  C   UNL     1      10.041  10.962  20.110  0.00  0.00    +0.000 A 
ENDBRANCH  21  24
ENDBRANCH  18  19
ENDBRANCH   6  18
TORSDOF 7
ENDMDL
MODEL 9
REMARK VINA RESULT:      -7.6      4.477      6.012
REMARK  Name = 
REMARK  10 active torsions:
REMARK  status: ('A' for Active; 'I' for Inactive)
REMARK    1  A    between atoms: C_1  and  C_2
REMARK    2  A    between atoms: C_2  and  C_3
REMARK    3  A    between atoms: C_2  and  C_4
REMARK    4  A    between atoms: C_2  and  O_5
REMARK    5  A    between atoms: O_5  and  C_6
REMARK    6  A    between atoms: C_11  and  C_12
REMARK    7  A    between atoms: C_11  and  C_25
REMARK    8  A    between atoms: C_12  and  C_13
REMARK    9  A    between atoms: C_15  and  C_16
REMARK   10  A    between atoms: C_25  and  O_27
REMARK                            x       y       z     vdW  Elec       q    Type
REMARK                         _______ _______ _______ _____ _____    ______ ____
ROOT
ATOM      1  C   UNL     1       4.084   2.748  19.904  0.00  0.00    +0.000 C 
ATOM      2  O   UNL     1       4.868   2.672  20.840  0.00  0.00    +0.000 OA
ATOM      3  N   UNL     1       4.395   3.408  18.729  0.00  0.00    +0.000 N 
ATOM      4  C   UNL     1       5.721   3.980  18.580  0.00  0.00    +0.000 C 
ATOM      5  C   UNL     1       5.617   5.492  18.421  0.00  0.00    +0.000 C 
ATOM      6  C   UNL     1       4.724   5.876  17.215  0.00  0.00    +0.000 C 
ATOM      7  C   UNL     1       3.338   5.180  17.407  0.00  0.00    +0.000 C 
ATOM      8  C   UNL     1       3.460   3.668  17.644  0.00  0.00    +0.000 C 
ENDROOT
BRANCH   6   9
ATOM      9  C   UNL     1       5.295   5.422  15.862  0.00  0.00    +0.000 C 
ATOM     10  O   UNL     1       6.116   6.074  15.230  0.00  0.00    +0.000 OA
BRANCH   9  11
ATOM     11  O   UNL     1       4.896   4.213  15.415  0.00  0.00    +0.000 OA
ATOM     12  H   UNL     1       4.090   4.181  14.865  0.00  0.00    +0.000 HD
ENDBRANCH   9  11
ENDBRANCH   6   9
BRANCH   1  13
ATOM     13  O   UNL     1       2.834   2.205  19.906  0.00  0.00    +0.000 OA
BRANCH  13  15
ATOM     14  C   UNL     1       1.485   2.254  21.959  0.00  0.00    +0.000 C 
ATOM     15  C   UNL     1       1.764   2.906  20.597  0.00  0.00    +0.000 C 
ATOM     16  C   UNL     1       0.506   3.013  19.723  0.00  0.00    +0.000 C 
ATOM     17  C   UNL     1       2.280   4.332  20.854  0.00  0.00    +0.000 C 
ENDBRANCH  13  15
ENDBRANCH   1  13
BRANCH   6  18
ATOM     18  C   UNL     1       4.485   7.408  17.147  0.00  0.00    +0.000 C 
BRANCH  18  19
ATOM     19  C   UNL     1       3.268   7.837  17.881  0.00  0.00    +0.000 A 
ATOM     20  C   UNL     1       2.285   8.755  17.616  0.00  0.00    +0.000 A 
ATOM     21  C   UNL     1       1.525   8.826  18.812  0.00  0.00    +0.000 A 
ATOM     22  N   UNL     1       1.982   7.932  19.705  0.00  0.00    +0.000 NA
ATOM     23  O   UNL     1       3.064   7.310  19.115  0.00  0.00    +0.000 OA
BRANCH  21  24
ATOM     24  C   UNL     1       0.428   9.743  19.108  0.00  0.00    +0.000 A 
ATOM     25  C   UNL     1      -0.524  10.069  18.132  0.00  0.00    +0.000 A 
ATOM     26  C   UNL     1      -1.548  10.979  18.421  0.00  0.00    +0.000 A 
ATOM     27  C   UNL     1      -1.628  11.557  19.687  0.00  0.00    +0.000 A 
ATOM     28 CL   UNL     1      -2.873  12.691  20.036  0.00  0.00    +0.000 Cl
ATOM     29  C   UNL     1      -0.705  11.223  20.673  0.00  0.00    +0.000 A 
ATOM     30  C   UNL     1       0.319  10.317  20.385  0.00  0.00    +0.000 A 
ENDBRANCH  21  24
ENDBRANCH  18  19
ENDBRANCH   6  18
TORSDOF 7
ENDMDL
