MODEL 1
REMARK VINA RESULT:      -7.0      0.000      0.000
REMARK  Name = 
REMARK  5 active torsions:
REMARK  status: ('A' for Active; 'I' for Inactive)
REMARK    1  A    between atoms: C_1  and  O_2
REMARK    2  A    between atoms: O_2  and  C_3
REMARK    3  A    between atoms: C_3  and  C_4
REMARK    4  A    between atoms: C_8  and  N_9
REMARK    5  A    between atoms: N_12  and  C_13
REMARK                            x       y       z     vdW  Elec       q    Type
REMARK                         _______ _______ _______ _____ _____    ______ ____
ROOT
ATOM      1  N   UNL     1       3.030   3.311  18.618  0.00  0.00    +0.000 N 
ATOM      2  C   UNL     1       3.646   3.928  17.560  0.00  0.00    +0.000 C 
ATOM      3  O   UNL     1       3.207   4.915  16.986  0.00  0.00    +0.000 OA
ATOM      4  N   UNL     1       4.821   3.308  17.188  0.00  0.00    +0.000 N 
ATOM      5  H   UNL     1       3.591   2.654  19.144  0.00  0.00    +0.000 HD
ATOM      6  H   UNL     1       4.742   2.298  17.144  0.00  0.00    +0.000 HD
ENDROOT
BRANCH   4   7
ATOM      7  C   UNL     1       5.602   3.900  16.161  0.00  0.00    +0.000 A 
ATOM      8  C   UNL     1       5.279   3.666  14.813  0.00  0.00    +0.000 A 
ATOM      9  C   UNL     1       6.097   4.157  13.796  0.00  0.00    +0.000 A 
ATOM     10  C   UNL     1       7.234   4.881  14.126  0.00  0.00    +0.000 A 
ATOM     11  F   UNL     1       8.038   5.322  13.150  0.00  0.00    +0.000 F 
ATOM     12  C   UNL     1       7.561   5.145  15.452  0.00  0.00    +0.000 A 
ATOM     13  C   UNL     1       6.732   4.668  16.470  0.00  0.00    +0.000 A 
ATOM     14 CL   UNL     1       7.185   4.961  18.113  0.00  0.00    +0.000 Cl
ENDBRANCH   4   7
BRANCH   1  19
ATOM     15  C   UNL     1       1.906   4.763  20.372  0.00  0.00    +0.000 C 
ATOM     16  C   UNL     1       2.248   3.912  21.589  0.00  0.00    +0.000 C 
ATOM     17  C   UNL     1       1.378   2.665  21.423  0.00  0.00    +0.000 C 
ATOM     18  C   UNL     1       0.977   2.610  19.937  0.00  0.00    +0.000 C 
ATOM     19  C   UNL     1       1.768   3.731  19.239  0.00  0.00    +0.000 C 
BRANCH  15  20
ATOM     20  C   UNL     1       2.862   5.919  20.133  0.00  0.00    +0.000 C 
BRANCH  20  22
ATOM     21  C   UNL     1       2.315   7.759  18.762  0.00  0.00    +0.000 C 
ATOM     22  O   UNL     1       2.104   7.126  20.019  0.00  0.00    +0.000 OA
ENDBRANCH  20  22
ENDBRANCH  15  20
ENDBRANCH   1  19
TORSDOF 4
ENDMDL
MODEL 2
REMARK VINA RESULT:      -6.8      3.453      7.264
REMARK  Name = 
REMARK  5 active torsions:
REMARK  status: ('A' for Active; 'I' for Inactive)
REMARK    1  A    between atoms: C_1  and  O_2
REMARK    2  A    between atoms: O_2  and  C_3
REMARK    3  A    between atoms: C_3  and  C_4
REMARK    4  A    between atoms: C_8  and  N_9
REMARK    5  A    between atoms: N_12  and  C_13
REMARK                            x       y       z     vdW  Elec       q    Type
REMARK                         _______ _______ _______ _____ _____    ______ ____
ROOT
ATOM      1  N   UNL     1       6.248   3.178  13.759  0.00  0.00    +0.000 N 
ATOM      2  C   UNL     1       5.751   3.981  14.753  0.00  0.00    +0.000 C 
ATOM      3  O   UNL     1       5.427   5.151  14.599  0.00  0.00    +0.000 OA
ATOM      4  N   UNL     1       5.666   3.337  15.971  0.00  0.00    +0.000 N 
ATOM      5  H   UNL     1       6.266   2.185  13.950  0.00  0.00    +0.000 HD
ATOM      6  H   UNL     1       6.493   2.794  16.192  0.00  0.00    +0.000 HD
ENDROOT
BRANCH   4   7
ATOM      7  C   UNL     1       5.085   4.030  17.063  0.00  0.00    +0.000 A 
ATOM      8  C   UNL     1       3.686   4.090  17.191  0.00  0.00    +0.000 A 
ATOM      9  C   UNL     1       3.101   4.853  18.201  0.00  0.00    +0.000 A 
ATOM     10  C   UNL     1       3.913   5.554  19.082  0.00  0.00    +0.000 A 
ATOM     11  F   UNL     1       3.350   6.314  20.029  0.00  0.00    +0.000 F 
ATOM     12  C   UNL     1       5.300   5.491  18.990  0.00  0.00    +0.000 A 
ATOM     13  C   UNL     1       5.885   4.713  17.990  0.00  0.00    +0.000 A 
ATOM     14 CL   UNL     1       7.609   4.691  17.858  0.00  0.00    +0.000 Cl
ENDBRANCH   4   7
BRANCH   1  19
ATOM     15  C   UNL     1       5.384   3.089  11.373  0.00  0.00    +0.000 C 
ATOM     16  C   UNL     1       5.813   1.661  11.055  0.00  0.00    +0.000 C 
ATOM     17  C   UNL     1       7.338   1.745  10.971  0.00  0.00    +0.000 C 
ATOM     18  C   UNL     1       7.744   3.032  11.713  0.00  0.00    +0.000 C 
ATOM     19  C   UNL     1       6.458   3.576  12.361  0.00  0.00    +0.000 C 
BRANCH  15  20
ATOM     20  C   UNL     1       3.936   3.220  11.814  0.00  0.00    +0.000 C 
BRANCH  20  22
ATOM     21  C   UNL     1       3.088   4.106   9.799  0.00  0.00    +0.000 C 
ATOM     22  O   UNL     1       3.090   2.992  10.684  0.00  0.00    +0.000 OA
ENDBRANCH  20  22
ENDBRANCH  15  20
ENDBRANCH   1  19
TORSDOF 4
ENDMDL
MODEL 3
REMARK VINA RESULT:      -6.7      3.360      6.859
REMARK  Name = 
REMARK  5 active torsions:
REMARK  status: ('A' for Active; 'I' for Inactive)
REMARK    1  A    between atoms: C_1  and  O_2
REMARK    2  A    between atoms: O_2  and  C_3
REMARK    3  A    between atoms: C_3  and  C_4
REMARK    4  A    between atoms: C_8  and  N_9
REMARK    5  A    between atoms: N_12  and  C_13
REMARK                            x       y       z     vdW  Elec       q    Type
REMARK                         _______ _______ _______ _____ _____    ______ ____
ROOT
ATOM      1  N   UNL     1       4.496   4.317  16.258  0.00  0.00    +0.000 N 
ATOM      2  C   UNL     1       3.941   4.254  17.510  0.00  0.00    +0.000 C 
ATOM      3  O   UNL     1       3.971   5.166  18.325  0.00  0.00    +0.000 OA
ATOM      4  N   UNL     1       3.348   3.036  17.774  0.00  0.00    +0.000 N 
ATOM      5  H   UNL     1       4.215   3.597  15.605  0.00  0.00    +0.000 HD
ATOM      6  H   UNL     1       3.916   2.247  17.486  0.00  0.00    +0.000 HD
ENDROOT
BRANCH   4   7
ATOM      7  C   UNL     1       2.660   2.871  19.003  0.00  0.00    +0.000 A 
ATOM      8  C   UNL     1       1.299   3.213  19.095  0.00  0.00    +0.000 A 
ATOM      9  C   UNL     1       0.637   3.153  20.321  0.00  0.00    +0.000 A 
ATOM     10  C   UNL     1       1.334   2.751  21.452  0.00  0.00    +0.000 A 
ATOM     11  F   UNL     1       0.707   2.727  22.635  0.00  0.00    +0.000 F 
ATOM     12  C   UNL     1       2.674   2.385  21.382  0.00  0.00    +0.000 A 
ATOM     13  C   UNL     1       3.332   2.429  20.151  0.00  0.00    +0.000 A 
ATOM     14 CL   UNL     1       5.011   2.023  20.094  0.00  0.00    +0.000 Cl
ENDBRANCH   4   7
BRANCH   1  19
ATOM     15  C   UNL     1       6.494   5.147  14.930  0.00  0.00    +0.000 C 
ATOM     16  C   UNL     1       7.535   5.033  16.037  0.00  0.00    +0.000 C 
ATOM     17  C   UNL     1       7.158   6.148  17.014  0.00  0.00    +0.000 C 
ATOM     18  C   UNL     1       5.691   6.509  16.715  0.00  0.00    +0.000 C 
ATOM     19  C   UNL     1       5.196   5.475  15.689  0.00  0.00    +0.000 C 
BRANCH  15  20
ATOM     20  C   UNL     1       6.456   3.957  13.987  0.00  0.00    +0.000 C 
BRANCH  20  22
ATOM     21  C   UNL     1       5.266   3.252  12.076  0.00  0.00    +0.000 C 
ATOM     22  O   UNL     1       5.191   3.939  13.320  0.00  0.00    +0.000 OA
ENDBRANCH  20  22
ENDBRANCH  15  20
ENDBRANCH   1  19
TORSDOF 4
ENDMDL
MODEL 4
REMARK VINA RESULT:      -6.6      3.397      6.774
REMARK  Name = 
REMARK  5 active torsions:
REMARK  status: ('A' for Active; 'I' for Inactive)
REMARK    1  A    between atoms: C_1  and  O_2
REMARK    2  A    between atoms: O_2  and  C_3
REMARK    3  A    between atoms: C_3  and  C_4
REMARK    4  A    between atoms: C_8  and  N_9
REMARK    5  A    between atoms: N_12  and  C_13
REMARK                            x       y       z     vdW  Elec       q    Type
REMARK                         _______ _______ _______ _____ _____    ______ ____
ROOT
ATOM      1  N   UNL     1       4.838   5.892  16.646  0.00  0.00    +0.000 N 
ATOM      2  C   UNL     1       4.385   5.191  17.734  0.00  0.00    +0.000 C 
ATOM      3  O   UNL     1       5.102   4.764  18.627  0.00  0.00    +0.000 OA
ATOM      4  N   UNL     1       3.018   4.997  17.714  0.00  0.00    +0.000 N 
ATOM      5  H   UNL     1       4.139   6.380  16.101  0.00  0.00    +0.000 HD
ATOM      6  H   UNL     1       2.670   4.708  16.807  0.00  0.00    +0.000 HD
ENDROOT
BRANCH   4   7
ATOM      7  C   UNL     1       2.411   4.361  18.828  0.00  0.00    +0.000 A 
ATOM      8  C   UNL     1       2.078   5.114  19.968  0.00  0.00    +0.000 A 
ATOM      9  C   UNL     1       1.575   4.486  21.107  0.00  0.00    +0.000 A 
ATOM     10  C   UNL     1       1.404   3.108  21.104  0.00  0.00    +0.000 A 
ATOM     11  F   UNL     1       0.954   2.501  22.210  0.00  0.00    +0.000 F 
ATOM     12  C   UNL     1       1.703   2.346  19.980  0.00  0.00    +0.000 A 
ATOM     13  C   UNL     1       2.190   2.977  18.834  0.00  0.00    +0.000 A 
ATOM     14 CL   UNL     1       2.607   2.006  17.466  0.00  0.00    +0.000 Cl
ENDBRANCH   4   7
BRANCH   1  19
ATOM     15  C   UNL     1       7.186   5.068  16.144  0.00  0.00    +0.000 C 
ATOM     16  C   UNL     1       7.546   4.610  17.553  0.00  0.00    +0.000 C 
ATOM     17  C   UNL     1       7.693   5.915  18.337  0.00  0.00    +0.000 C 
ATOM     18  C   UNL     1       6.948   6.994  17.529  0.00  0.00    +0.000 C 
ATOM     19  C   UNL     1       6.236   6.254  16.382  0.00  0.00    +0.000 C 
BRANCH  15  20
ATOM     20  C   UNL     1       6.682   3.956  15.239  0.00  0.00    +0.000 C 
BRANCH  20  22
ATOM     21  C   UNL     1       6.085   3.635  12.980  0.00  0.00    +0.000 C 
ATOM     22  O   UNL     1       6.092   4.542  14.077  0.00  0.00    +0.000 OA
ENDBRANCH  20  22
ENDBRANCH  15  20
ENDBRANCH   1  19
TORSDOF 4
ENDMDL
MODEL 5
REMARK VINA RESULT:      -6.5      4.593      7.347
REMARK  Name = 
REMARK  5 active torsions:
REMARK  status: ('A' for Active; 'I' for Inactive)
REMARK    1  A    between atoms: C_1  and  O_2
REMARK    2  A    between atoms: O_2  and  C_3
REMARK    3  A    between atoms: C_3  and  C_4
REMARK    4  A    between atoms: C_8  and  N_9
REMARK    5  A    between atoms: N_12  and  C_13
REMARK                            x       y       z     vdW  Elec       q    Type
REMARK                         _______ _______ _______ _____ _____    ______ ____
ROOT
ATOM      1  N   UNL     1       3.024   5.603  19.899  0.00  0.00    +0.000 N 
ATOM      2  C   UNL     1       2.018   6.417  20.351  0.00  0.00    +0.000 C 
ATOM      3  O   UNL     1       0.956   6.015  20.806  0.00  0.00    +0.000 OA
ATOM      4  N   UNL     1       2.316   7.759  20.225  0.00  0.00    +0.000 N 
ATOM      5  H   UNL     1       3.926   6.038  19.759  0.00  0.00    +0.000 HD
ATOM      6  H   UNL     1       2.725   7.993  19.327  0.00  0.00    +0.000 HD
ENDROOT
BRANCH   4   7
ATOM      7  C   UNL     1       1.394   8.708  20.737  0.00  0.00    +0.000 A 
ATOM      8  C   UNL     1       1.166   8.785  22.123  0.00  0.00    +0.000 A 
ATOM      9  C   UNL     1       0.189   9.640  22.631  0.00  0.00    +0.000 A 
ATOM     10  C   UNL     1      -0.557  10.418  21.756  0.00  0.00    +0.000 A 
ATOM     11  F   UNL     1      -1.519  11.212  22.241  0.00  0.00    +0.000 F 
ATOM     12  C   UNL     1      -0.333  10.376  20.383  0.00  0.00    +0.000 A 
ATOM     13  C   UNL     1       0.657   9.532  19.877  0.00  0.00    +0.000 A 
ATOM     14 CL   UNL     1       0.883   9.454  18.165  0.00  0.00    +0.000 Cl
ENDBRANCH   4   7
BRANCH   1  19
ATOM     15  C   UNL     1       3.637   3.471  18.665  0.00  0.00    +0.000 C 
ATOM     16  C   UNL     1       2.523   3.510  17.626  0.00  0.00    +0.000 C 
ATOM     17  C   UNL     1       1.259   3.207  18.432  0.00  0.00    +0.000 C 
ATOM     18  C   UNL     1       1.601   3.502  19.904  0.00  0.00    +0.000 C 
ATOM     19  C   UNL     1       3.003   4.135  19.899  0.00  0.00    +0.000 C 
BRANCH  15  20
ATOM     20  C   UNL     1       4.959   4.043  18.180  0.00  0.00    +0.000 C 
BRANCH  20  22
ATOM     21  C   UNL     1       6.579   5.430  19.187  0.00  0.00    +0.000 C 
ATOM     22  O   UNL     1       5.817   4.235  19.307  0.00  0.00    +0.000 OA
ENDBRANCH  20  22
ENDBRANCH  15  20
ENDBRANCH   1  19
TORSDOF 4
ENDMDL
MODEL 6
REMARK VINA RESULT:      -6.5      4.740      7.557
REMARK  Name = 
REMARK  5 active torsions:
REMARK  status: ('A' for Active; 'I' for Inactive)
REMARK    1  A    between atoms: C_1  and  O_2
REMARK    2  A    between atoms: O_2  and  C_3
REMARK    3  A    between atoms: C_3  and  C_4
REMARK    4  A    between atoms: C_8  and  N_9
REMARK    5  A    between atoms: N_12  and  C_13
REMARK                            x       y       z     vdW  Elec       q    Type
REMARK                         _______ _______ _______ _____ _____    ______ ____
ROOT
ATOM      1  N   UNL     1       2.990   6.010  19.200  0.00  0.00    +0.000 N 
ATOM      2  C   UNL     1       2.105   6.682  20.003  0.00  0.00    +0.000 C 
ATOM      3  O   UNL     1       1.425   6.155  20.874  0.00  0.00    +0.000 OA
ATOM      4  N   UNL     1       2.040   8.031  19.719  0.00  0.00    +0.000 N 
ATOM      5  H   UNL     1       3.647   6.578  18.682  0.00  0.00    +0.000 HD
ATOM      6  H   UNL     1       1.995   8.227  18.725  0.00  0.00    +0.000 HD
ENDROOT
BRANCH   4   7
ATOM      7  C   UNL     1       1.226   8.856  20.537  0.00  0.00    +0.000 A 
ATOM      8  C   UNL     1       1.302   8.746  21.937  0.00  0.00    +0.000 A 
ATOM      9  C   UNL     1       0.436   9.476  22.750  0.00  0.00    +0.000 A 
ATOM     10  C   UNL     1      -0.502  10.316  22.165  0.00  0.00    +0.000 A 
ATOM     11  F   UNL     1      -1.357  10.990  22.945  0.00  0.00    +0.000 F 
ATOM     12  C   UNL     1      -0.579  10.459  20.784  0.00  0.00    +0.000 A 
ATOM     13  C   UNL     1       0.299   9.741  19.970  0.00  0.00    +0.000 A 
ATOM     14 CL   UNL     1       0.151   9.891  18.255  0.00  0.00    +0.000 Cl
ENDBRANCH   4   7
BRANCH   1  19
ATOM     15  C   UNL     1       4.610   4.143  18.621  0.00  0.00    +0.000 C 
ATOM     16  C   UNL     1       4.279   4.041  17.136  0.00  0.00    +0.000 C 
ATOM     17  C   UNL     1       2.877   3.432  17.113  0.00  0.00    +0.000 C 
ATOM     18  C   UNL     1       2.275   3.674  18.511  0.00  0.00    +0.000 C 
ATOM     19  C   UNL     1       3.278   4.571  19.258  0.00  0.00    +0.000 C 
BRANCH  15  20
ATOM     20  C   UNL     1       5.825   5.001  18.929  0.00  0.00    +0.000 C 
BRANCH  20  22
ATOM     21  C   UNL     1       7.159   6.479  17.665  0.00  0.00    +0.000 C 
ATOM     22  O   UNL     1       5.835   6.121  18.041  0.00  0.00    +0.000 OA
ENDBRANCH  20  22
ENDBRANCH  15  20
ENDBRANCH   1  19
TORSDOF 4
ENDMDL
MODEL 7
REMARK VINA RESULT:      -6.4      3.540      7.083
REMARK  Name = 
REMARK  5 active torsions:
REMARK  status: ('A' for Active; 'I' for Inactive)
REMARK    1  A    between atoms: C_1  and  O_2
REMARK    2  A    between atoms: O_2  and  C_3
REMARK    3  A    between atoms: C_3  and  C_4
REMARK    4  A    between atoms: C_8  and  N_9
REMARK    5  A    between atoms: N_12  and  C_13
REMARK                            x       y       z     vdW  Elec       q    Type
REMARK                         _______ _______ _______ _____ _____    ______ ____
ROOT
ATOM      1  N   UNL     1       4.683   4.312  16.368  0.00  0.00    +0.000 N 
ATOM      2  C   UNL     1       4.064   4.348  17.591  0.00  0.00    +0.000 C 
ATOM      3  O   UNL     1       3.913   5.363  18.259  0.00  0.00    +0.000 OA
ATOM      4  N   UNL     1       3.636   3.106  18.013  0.00  0.00    +0.000 N 
ATOM      5  H   UNL     1       4.549   3.471  15.822  0.00  0.00    +0.000 HD
ATOM      6  H   UNL     1       4.326   2.378  17.872  0.00  0.00    +0.000 HD
ENDROOT
BRANCH   4   7
ATOM      7  C   UNL     1       2.901   3.019  19.224  0.00  0.00    +0.000 A 
ATOM      8  C   UNL     1       3.539   2.588  20.401  0.00  0.00    +0.000 A 
ATOM      9  C   UNL     1       2.807   2.401  21.572  0.00  0.00    +0.000 A 
ATOM     10  C   UNL     1       1.440   2.646  21.568  0.00  0.00    +0.000 A 
ATOM     11  F   UNL     1       0.732   2.431  22.684  0.00  0.00    +0.000 F 
ATOM     12  C   UNL     1       0.792   3.095  20.422  0.00  0.00    +0.000 A 
ATOM     13  C   UNL     1       1.528   3.299  19.254  0.00  0.00    +0.000 A 
ATOM     14 CL   UNL     1       0.695   3.806  17.827  0.00  0.00    +0.000 Cl
ENDBRANCH   4   7
BRANCH   1  19
ATOM     15  C   UNL     1       6.501   5.172  14.819  0.00  0.00    +0.000 C 
ATOM     16  C   UNL     1       7.632   5.218  15.840  0.00  0.00    +0.000 C 
ATOM     17  C   UNL     1       7.250   6.378  16.761  0.00  0.00    +0.000 C 
ATOM     18  C   UNL     1       5.740   6.611  16.561  0.00  0.00    +0.000 C 
ATOM     19  C   UNL     1       5.246   5.466  15.658  0.00  0.00    +0.000 C 
BRANCH  15  20
ATOM     20  C   UNL     1       6.480   3.911  13.973  0.00  0.00    +0.000 C 
BRANCH  20  22
ATOM     21  C   UNL     1       5.384   3.194  12.010  0.00  0.00    +0.000 C 
ATOM     22  O   UNL     1       5.240   3.855  13.262  0.00  0.00    +0.000 OA
ENDBRANCH  20  22
ENDBRANCH  15  20
ENDBRANCH   1  19
TORSDOF 4
ENDMDL
MODEL 8
REMARK VINA RESULT:      -6.4      2.617      3.678
REMARK  Name = 
REMARK  5 active torsions:
REMARK  status: ('A' for Active; 'I' for Inactive)
REMARK    1  A    between atoms: C_1  and  O_2
REMARK    2  A    between atoms: O_2  and  C_3
REMARK    3  A    between atoms: C_3  and  C_4
REMARK    4  A    between atoms: C_8  and  N_9
REMARK    5  A    between atoms: N_12  and  C_13
REMARK                            x       y       z     vdW  Elec       q    Type
REMARK                         _______ _______ _______ _____ _____    ______ ____
ROOT
ATOM      1  N   UNL     1       3.988   3.002  19.988  0.00  0.00    +0.000 N 
ATOM      2  C   UNL     1       4.549   4.182  19.568  0.00  0.00    +0.000 C 
ATOM      3  O   UNL     1       4.083   5.289  19.801  0.00  0.00    +0.000 OA
ATOM      4  N   UNL     1       5.700   3.995  18.831  0.00  0.00    +0.000 N 
ATOM      5  H   UNL     1       4.574   2.180  19.929  0.00  0.00    +0.000 HD
ATOM      6  H   UNL     1       5.616   3.259  18.140  0.00  0.00    +0.000 HD
ENDROOT
BRANCH   4   7
ATOM      7  C   UNL     1       6.427   5.139  18.412  0.00  0.00    +0.000 A 
ATOM      8  C   UNL     1       7.491   5.620  19.197  0.00  0.00    +0.000 A 
ATOM      9  C   UNL     1       8.147   6.800  18.851  0.00  0.00    +0.000 A 
ATOM     10  C   UNL     1       7.741   7.499  17.722  0.00  0.00    +0.000 A 
ATOM     11  F   UNL     1       8.347   8.651  17.410  0.00  0.00    +0.000 F 
ATOM     12  C   UNL     1       6.707   7.031  16.918  0.00  0.00    +0.000 A 
ATOM     13  C   UNL     1       6.062   5.840  17.255  0.00  0.00    +0.000 A 
ATOM     14 CL   UNL     1       4.744   5.304  16.273  0.00  0.00    +0.000 Cl
ENDBRANCH   4   7
BRANCH   1  19
ATOM     15  C   UNL     1       1.467   2.706  19.973  0.00  0.00    +0.000 C 
ATOM     16  C   UNL     1       1.096   4.135  19.593  0.00  0.00    +0.000 C 
ATOM     17  C   UNL     1       1.439   4.947  20.843  0.00  0.00    +0.000 C 
ATOM     18  C   UNL     1       2.422   4.090  21.663  0.00  0.00    +0.000 C 
ATOM     19  C   UNL     1       2.762   2.873  20.785  0.00  0.00    +0.000 C 
BRANCH  15  20
ATOM     20  C   UNL     1       1.512   1.743  18.798  0.00  0.00    +0.000 C 
BRANCH  20  22
ATOM     21  C   UNL     1       3.031   2.151  17.040  0.00  0.00    +0.000 C 
ATOM     22  O   UNL     1       1.768   2.486  17.604  0.00  0.00    +0.000 OA
ENDBRANCH  20  22
ENDBRANCH  15  20
ENDBRANCH   1  19
TORSDOF 4
ENDMDL
MODEL 9
REMARK VINA RESULT:      -6.3      4.229      6.974
REMARK  Name = 
REMARK  5 active torsions:
REMARK  status: ('A' for Active; 'I' for Inactive)
REMARK    1  A    between atoms: C_1  and  O_2
REMARK    2  A    between atoms: O_2  and  C_3
REMARK    3  A    between atoms: C_3  and  C_4
REMARK    4  A    between atoms: C_8  and  N_9
REMARK    5  A    between atoms: N_12  and  C_13
REMARK                            x       y       z     vdW  Elec       q    Type
REMARK                         _______ _______ _______ _____ _____    ______ ____
ROOT
ATOM      1  N   UNL     1       2.734   5.056  20.616  0.00  0.00    +0.000 N 
ATOM      2  C   UNL     1       1.782   6.042  20.629  0.00  0.00    +0.000 C 
ATOM      3  O   UNL     1       0.577   5.838  20.681  0.00  0.00    +0.000 OA
ATOM      4  N   UNL     1       2.323   7.310  20.559  0.00  0.00    +0.000 N 
ATOM      5  H   UNL     1       3.686   5.347  20.797  0.00  0.00    +0.000 HD
ATOM      6  H   UNL     1       3.057   7.392  19.864  0.00  0.00    +0.000 HD
ENDROOT
BRANCH   4   7
ATOM      7  C   UNL     1       1.449   8.424  20.652  0.00  0.00    +0.000 A 
ATOM      8  C   UNL     1       0.889   8.772  21.894  0.00  0.00    +0.000 A 
ATOM      9  C   UNL     1      -0.050   9.799  21.982  0.00  0.00    +0.000 A 
ATOM     10  C   UNL     1      -0.426  10.478  20.831  0.00  0.00    +0.000 A 
ATOM     11  F   UNL     1      -1.354  11.440  20.911  0.00  0.00    +0.000 F 
ATOM     12  C   UNL     1       0.132  10.168  19.595  0.00  0.00    +0.000 A 
ATOM     13  C   UNL     1       1.085   9.151  19.511  0.00  0.00    +0.000 A 
ATOM     14 CL   UNL     1       1.727   8.743  17.958  0.00  0.00    +0.000 Cl
ENDBRANCH   4   7
BRANCH   1  19
ATOM     15  C   UNL     1       3.239   2.764  19.647  0.00  0.00    +0.000 C 
ATOM     16  C   UNL     1       2.397   2.888  18.384  0.00  0.00    +0.000 C 
ATOM     17  C   UNL     1       0.956   2.844  18.896  0.00  0.00    +0.000 C 
ATOM     18  C   UNL     1       1.017   3.200  20.394  0.00  0.00    +0.000 C 
ATOM     19  C   UNL     1       2.473   3.612  20.676  0.00  0.00    +0.000 C 
BRANCH  15  20
ATOM     20  C   UNL     1       4.710   3.090  19.448  0.00  0.00    +0.000 C 
BRANCH  20  22
ATOM     21  C   UNL     1       5.700   4.381  17.741  0.00  0.00    +0.000 C 
ATOM     22  O   UNL     1       4.817   4.387  18.856  0.00  0.00    +0.000 OA
ENDBRANCH  20  22
ENDBRANCH  15  20
ENDBRANCH   1  19
TORSDOF 4
ENDMDL
