MODEL 1
REMARK VINA RESULT:      -6.3      0.000      0.000
REMARK  Name = 
REMARK  8 active torsions:
REMARK  status: ('A' for Active; 'I' for Inactive)
REMARK    1  A    between atoms: C_2  and  O_3
REMARK    2  A    between atoms: C_2  and  C_4
REMARK    3  A    between atoms: C_4  and  C_5
REMARK    4  A    between atoms: C_5  and  C_6
REMARK    5  A    between atoms: N_8  and  C_9
REMARK    6  A    between atoms: C_9  and  C_10
REMARK    7  A    between atoms: C_10  and  C_11
REMARK    8  A    between atoms: C_14  and  O_15
REMARK                            x       y       z     vdW  Elec       q    Type
REMARK                         _______ _______ _______ _____ _____    ______ ____
ROOT
ATOM      1  C   UNL     1       5.659   6.322  16.531  0.00  0.00    +0.000 C 
ATOM      2  O   UNL     1       5.082   5.675  15.663  0.00  0.00    +0.000 OA
ATOM      3  N   UNL     1       4.994   7.069  17.478  0.00  0.00    +0.000 N 
ATOM      4  H   UNL     1       5.514   7.511  18.226  0.00  0.00    +0.000 HD
ENDROOT
BRANCH   1   5
ATOM      5  C   UNL     1       7.166   6.346  16.659  0.00  0.00    +0.000 C 
BRANCH   5   6
ATOM      6  C   UNL     1       7.552   6.662  18.101  0.00  0.00    +0.000 C 
BRANCH   6   8
ATOM      7  O   UNL     1       7.584   5.385  20.159  0.00  0.00    +0.000 OA
ATOM      8  C   UNL     1       7.661   5.420  18.941  0.00  0.00    +0.000 C 
BRANCH   8   9
ATOM      9  O   UNL     1       7.864   4.311  18.194  0.00  0.00    +0.000 OA
ATOM     10  H   UNL     1       8.669   4.351  17.642  0.00  0.00    +0.000 HD
ENDBRANCH   8   9
ENDBRANCH   6   8
ENDBRANCH   5   6
ENDBRANCH   1   5
BRANCH   3  11
ATOM     11  C   UNL     1       3.542   7.122  17.471  0.00  0.00    +0.000 C 
BRANCH  11  12
ATOM     12  C   UNL     1       2.910   6.367  18.640  0.00  0.00    +0.000 C 
BRANCH  12  13
ATOM     13  C   UNL     1       3.158   4.881  18.549  0.00  0.00    +0.000 A 
ATOM     14  C   UNL     1       2.426   4.088  17.651  0.00  0.00    +0.000 A 
ATOM     15  C   UNL     1       2.650   2.711  17.571  0.00  0.00    +0.000 A 
ATOM     16  C   UNL     1       3.606   2.124  18.393  0.00  0.00    +0.000 A 
ATOM     17  C   UNL     1       4.330   2.889  19.298  0.00  0.00    +0.000 A 
ATOM     18  C   UNL     1       4.106   4.265  19.379  0.00  0.00    +0.000 A 
BRANCH  16  19
ATOM     19  O   UNL     1       3.864   0.787  18.340  0.00  0.00    +0.000 OA
ATOM     20  H   UNL     1       3.048   0.323  18.092  0.00  0.00    +0.000 HD
ENDBRANCH  16  19
ENDBRANCH  12  13
ENDBRANCH  11  12
ENDBRANCH   3  11
TORSDOF 8
ENDMDL
MODEL 2
REMARK VINA RESULT:      -6.2      1.967      2.384
REMARK  Name = 
REMARK  8 active torsions:
REMARK  status: ('A' for Active; 'I' for Inactive)
REMARK    1  A    between atoms: C_2  and  O_3
REMARK    2  A    between atoms: C_2  and  C_4
REMARK    3  A    between atoms: C_4  and  C_5
REMARK    4  A    between atoms: C_5  and  C_6
REMARK    5  A    between atoms: N_8  and  C_9
REMARK    6  A    between atoms: C_9  and  C_10
REMARK    7  A    between atoms: C_10  and  C_11
REMARK    8  A    between atoms: C_14  and  O_15
REMARK                            x       y       z     vdW  Elec       q    Type
REMARK                         _______ _______ _______ _____ _____    ______ ____
ROOT
ATOM      1  C   UNL     1       5.903   5.057  16.764  0.00  0.00    +0.000 C 
ATOM      2  O   UNL     1       5.201   4.249  16.163  0.00  0.00    +0.000 OA
ATOM      3  N   UNL     1       5.472   6.320  17.105  0.00  0.00    +0.000 N 
ATOM      4  H   UNL     1       6.057   6.913  17.679  0.00  0.00    +0.000 HD
ENDROOT
BRANCH   1   5
ATOM      5  C   UNL     1       7.311   4.734  17.209  0.00  0.00    +0.000 C 
BRANCH   5   6
ATOM      6  C   UNL     1       7.758   5.742  18.263  0.00  0.00    +0.000 C 
BRANCH   6   8
ATOM      7  O   UNL     1       6.095   5.072  19.892  0.00  0.00    +0.000 OA
ATOM      8  C   UNL     1       7.245   5.391  19.632  0.00  0.00    +0.000 C 
BRANCH   8   9
ATOM      9  O   UNL     1       8.208   5.470  20.578  0.00  0.00    +0.000 OA
ATOM     10  H   UNL     1       7.991   4.989  21.400  0.00  0.00    +0.000 HD
ENDBRANCH   8   9
ENDBRANCH   6   8
ENDBRANCH   5   6
ENDBRANCH   1   5
BRANCH   3  11
ATOM     11  C   UNL     1       4.132   6.751  16.744  0.00  0.00    +0.000 C 
BRANCH  11  12
ATOM     12  C   UNL     1       3.314   7.232  17.941  0.00  0.00    +0.000 C 
BRANCH  12  13
ATOM     13  C   UNL     1       2.569   6.098  18.605  0.00  0.00    +0.000 A 
ATOM     14  C   UNL     1       2.307   6.126  19.983  0.00  0.00    +0.000 A 
ATOM     15  C   UNL     1       1.623   5.074  20.599  0.00  0.00    +0.000 A 
ATOM     16  C   UNL     1       1.204   3.990  19.835  0.00  0.00    +0.000 A 
ATOM     17  C   UNL     1       1.468   3.937  18.473  0.00  0.00    +0.000 A 
ATOM     18  C   UNL     1       2.152   4.988  17.858  0.00  0.00    +0.000 A 
BRANCH  16  19
ATOM     19  O   UNL     1       0.526   2.947  20.393  0.00  0.00    +0.000 OA
ATOM     20  H   UNL     1       0.790   2.129  19.942  0.00  0.00    +0.000 HD
ENDBRANCH  16  19
ENDBRANCH  12  13
ENDBRANCH  11  12
ENDBRANCH   3  11
TORSDOF 8
ENDMDL
MODEL 3
REMARK VINA RESULT:      -6.1      3.288      4.767
REMARK  Name = 
REMARK  8 active torsions:
REMARK  status: ('A' for Active; 'I' for Inactive)
REMARK    1  A    between atoms: C_2  and  O_3
REMARK    2  A    between atoms: C_2  and  C_4
REMARK    3  A    between atoms: C_4  and  C_5
REMARK    4  A    between atoms: C_5  and  C_6
REMARK    5  A    between atoms: N_8  and  C_9
REMARK    6  A    between atoms: C_9  and  C_10
REMARK    7  A    between atoms: C_10  and  C_11
REMARK    8  A    between atoms: C_14  and  O_15
REMARK                            x       y       z     vdW  Elec       q    Type
REMARK                         _______ _______ _______ _____ _____    ______ ____
ROOT
ATOM      1  C   UNL     1       6.695   4.600  15.015  0.00  0.00    +0.000 C 
ATOM      2  O   UNL     1       7.569   5.401  14.698  0.00  0.00    +0.000 OA
ATOM      3  N   UNL     1       6.544   4.121  16.298  0.00  0.00    +0.000 N 
ATOM      4  H   UNL     1       5.752   3.533  16.525  0.00  0.00    +0.000 HD
ENDROOT
BRANCH   1   5
ATOM      5  C   UNL     1       5.681   4.072  14.025  0.00  0.00    +0.000 C 
BRANCH   5   6
ATOM      6  C   UNL     1       6.392   3.636  12.748  0.00  0.00    +0.000 C 
BRANCH   6   8
ATOM      7  O   UNL     1       4.398   3.134  11.466  0.00  0.00    +0.000 OA
ATOM      8  C   UNL     1       5.505   2.803  11.865  0.00  0.00    +0.000 C 
BRANCH   8   9
ATOM      9  O   UNL     1       6.064   1.614  11.549  0.00  0.00    +0.000 OA
ATOM     10  H   UNL     1       6.372   1.558  10.623  0.00  0.00    +0.000 HD
ENDBRANCH   8   9
ENDBRANCH   6   8
ENDBRANCH   5   6
ENDBRANCH   1   5
BRANCH   3  11
ATOM     11  C   UNL     1       7.450   4.560  17.346  0.00  0.00    +0.000 C 
BRANCH  11  12
ATOM     12  C   UNL     1       6.800   5.529  18.332  0.00  0.00    +0.000 C 
BRANCH  12  13
ATOM     13  C   UNL     1       5.349   5.191  18.579  0.00  0.00    +0.000 A 
ATOM     14  C   UNL     1       4.996   4.032  19.287  0.00  0.00    +0.000 A 
ATOM     15  C   UNL     1       3.654   3.715  19.510  0.00  0.00    +0.000 A 
ATOM     16  C   UNL     1       2.661   4.557  19.020  0.00  0.00    +0.000 A 
ATOM     17  C   UNL     1       2.990   5.699  18.303  0.00  0.00    +0.000 A 
ATOM     18  C   UNL     1       4.331   6.016  18.079  0.00  0.00    +0.000 A 
BRANCH  16  19
ATOM     19  O   UNL     1       1.339   4.290  19.223  0.00  0.00    +0.000 OA
ATOM     20  H   UNL     1       1.068   3.584  18.614  0.00  0.00    +0.000 HD
ENDBRANCH  16  19
ENDBRANCH  12  13
ENDBRANCH  11  12
ENDBRANCH   3  11
TORSDOF 8
ENDMDL
MODEL 4
REMARK VINA RESULT:      -6.1      2.550      5.678
REMARK  Name = 
REMARK  8 active torsions:
REMARK  status: ('A' for Active; 'I' for Inactive)
REMARK    1  A    between atoms: C_2  and  O_3
REMARK    2  A    between atoms: C_2  and  C_4
REMARK    3  A    between atoms: C_4  and  C_5
REMARK    4  A    between atoms: C_5  and  C_6
REMARK    5  A    between atoms: N_8  and  C_9
REMARK    6  A    between atoms: C_9  and  C_10
REMARK    7  A    between atoms: C_10  and  C_11
REMARK    8  A    between atoms: C_14  and  O_15
REMARK                            x       y       z     vdW  Elec       q    Type
REMARK                         _______ _______ _______ _____ _____    ______ ____
ROOT
ATOM      1  C   UNL     1       2.437   3.135  18.389  0.00  0.00    +0.000 C 
ATOM      2  O   UNL     1       2.666   1.942  18.567  0.00  0.00    +0.000 OA
ATOM      3  N   UNL     1       3.225   3.941  17.598  0.00  0.00    +0.000 N 
ATOM      4  H   UNL     1       2.941   4.895  17.411  0.00  0.00    +0.000 HD
ENDROOT
BRANCH   1   5
ATOM      5  C   UNL     1       1.248   3.834  19.008  0.00  0.00    +0.000 C 
BRANCH   5   6
ATOM      6  C   UNL     1       0.959   3.232  20.381  0.00  0.00    +0.000 C 
BRANCH   6   8
ATOM      7  O   UNL     1       2.467   2.889  22.245  0.00  0.00    +0.000 OA
ATOM      8  C   UNL     1       1.992   3.630  21.398  0.00  0.00    +0.000 C 
BRANCH   8   9
ATOM      9  O   UNL     1       2.351   4.928  21.286  0.00  0.00    +0.000 OA
ATOM     10  H   UNL     1       3.032   5.090  20.604  0.00  0.00    +0.000 HD
ENDBRANCH   8   9
ENDBRANCH   6   8
ENDBRANCH   5   6
ENDBRANCH   1   5
BRANCH   3  11
ATOM     11  C   UNL     1       4.394   3.387  16.936  0.00  0.00    +0.000 C 
BRANCH  11  12
ATOM     12  C   UNL     1       5.119   4.402  16.053  0.00  0.00    +0.000 C 
BRANCH  12  13
ATOM     13  C   UNL     1       6.075   5.258  16.850  0.00  0.00    +0.000 A 
ATOM     14  C   UNL     1       6.877   4.690  17.852  0.00  0.00    +0.000 A 
ATOM     15  C   UNL     1       7.756   5.482  18.594  0.00  0.00    +0.000 A 
ATOM     16  C   UNL     1       7.832   6.847  18.336  0.00  0.00    +0.000 A 
ATOM     17  C   UNL     1       7.035   7.430  17.359  0.00  0.00    +0.000 A 
ATOM     18  C   UNL     1       6.156   6.638  16.618  0.00  0.00    +0.000 A 
BRANCH  16  19
ATOM     19  O   UNL     1       8.683   7.655  19.029  0.00  0.00    +0.000 OA
ATOM     20  H   UNL     1       8.813   7.281  19.916  0.00  0.00    +0.000 HD
ENDBRANCH  16  19
ENDBRANCH  12  13
ENDBRANCH  11  12
ENDBRANCH   3  11
TORSDOF 8
ENDMDL
MODEL 5
REMARK VINA RESULT:      -6.1      2.528      3.767
REMARK  Name = 
REMARK  8 active torsions:
REMARK  status: ('A' for Active; 'I' for Inactive)
REMARK    1  A    between atoms: C_2  and  O_3
REMARK    2  A    between atoms: C_2  and  C_4
REMARK    3  A    between atoms: C_4  and  C_5
REMARK    4  A    between atoms: C_5  and  C_6
REMARK    5  A    between atoms: N_8  and  C_9
REMARK    6  A    between atoms: C_9  and  C_10
REMARK    7  A    between atoms: C_10  and  C_11
REMARK    8  A    between atoms: C_14  and  O_15
REMARK                            x       y       z     vdW  Elec       q    Type
REMARK                         _______ _______ _______ _____ _____    ______ ____
ROOT
ATOM      1  C   UNL     1       6.893   5.196  15.627  0.00  0.00    +0.000 C 
ATOM      2  O   UNL     1       7.546   4.628  16.498  0.00  0.00    +0.000 OA
ATOM      3  N   UNL     1       6.040   6.244  15.891  0.00  0.00    +0.000 N 
ATOM      4  H   UNL     1       5.595   6.735  15.126  0.00  0.00    +0.000 HD
ENDROOT
BRANCH   1   5
ATOM      5  C   UNL     1       6.978   4.808  14.168  0.00  0.00    +0.000 C 
BRANCH   5   6
ATOM      6  C   UNL     1       5.869   3.813  13.838  0.00  0.00    +0.000 C 
BRANCH   6   8
ATOM      7  O   UNL     1       4.890   3.039  11.762  0.00  0.00    +0.000 OA
ATOM      8  C   UNL     1       5.864   3.436  12.383  0.00  0.00    +0.000 C 
BRANCH   8   9
ATOM      9  O   UNL     1       7.081   3.579  11.811  0.00  0.00    +0.000 OA
ATOM     10  H   UNL     1       7.195   4.425  11.335  0.00  0.00    +0.000 HD
ENDBRANCH   8   9
ENDBRANCH   6   8
ENDBRANCH   5   6
ENDBRANCH   1   5
BRANCH   3  11
ATOM     11  C   UNL     1       5.877   6.721  17.254  0.00  0.00    +0.000 C 
BRANCH  11  12
ATOM     12  C   UNL     1       4.460   6.523  17.791  0.00  0.00    +0.000 C 
BRANCH  12  13
ATOM     13  C   UNL     1       4.135   5.062  17.993  0.00  0.00    +0.000 A 
ATOM     14  C   UNL     1       3.174   4.427  17.191  0.00  0.00    +0.000 A 
ATOM     15  C   UNL     1       2.868   3.077  17.381  0.00  0.00    +0.000 A 
ATOM     16  C   UNL     1       3.520   2.361  18.379  0.00  0.00    +0.000 A 
ATOM     17  C   UNL     1       4.462   2.976  19.193  0.00  0.00    +0.000 A 
ATOM     18  C   UNL     1       4.768   4.325  19.003  0.00  0.00    +0.000 A 
BRANCH  16  19
ATOM     19  O   UNL     1       3.259   1.040  18.592  0.00  0.00    +0.000 OA
ATOM     20  H   UNL     1       2.376   0.959  18.987  0.00  0.00    +0.000 HD
ENDBRANCH  16  19
ENDBRANCH  12  13
ENDBRANCH  11  12
ENDBRANCH   3  11
TORSDOF 8
ENDMDL
MODEL 6
REMARK VINA RESULT:      -6.1      2.471      3.350
REMARK  Name = 
REMARK  8 active torsions:
REMARK  status: ('A' for Active; 'I' for Inactive)
REMARK    1  A    between atoms: C_2  and  O_3
REMARK    2  A    between atoms: C_2  and  C_4
REMARK    3  A    between atoms: C_4  and  C_5
REMARK    4  A    between atoms: C_5  and  C_6
REMARK    5  A    between atoms: N_8  and  C_9
REMARK    6  A    between atoms: C_9  and  C_10
REMARK    7  A    between atoms: C_10  and  C_11
REMARK    8  A    between atoms: C_14  and  O_15
REMARK                            x       y       z     vdW  Elec       q    Type
REMARK                         _______ _______ _______ _____ _____    ______ ____
ROOT
ATOM      1  C   UNL     1       5.993   6.062  17.175  0.00  0.00    +0.000 C 
ATOM      2  O   UNL     1       6.210   7.264  17.050  0.00  0.00    +0.000 OA
ATOM      3  N   UNL     1       4.776   5.557  17.578  0.00  0.00    +0.000 N 
ATOM      4  H   UNL     1       4.622   4.557  17.578  0.00  0.00    +0.000 HD
ENDROOT
BRANCH   1   5
ATOM      5  C   UNL     1       7.040   5.013  16.877  0.00  0.00    +0.000 C 
BRANCH   5   6
ATOM      6  C   UNL     1       6.498   4.029  15.844  0.00  0.00    +0.000 C 
BRANCH   6   8
ATOM      7  O   UNL     1       7.637   5.326  14.144  0.00  0.00    +0.000 OA
ATOM      8  C   UNL     1       6.869   4.424  14.441  0.00  0.00    +0.000 C 
BRANCH   8   9
ATOM      9  O   UNL     1       6.247   3.665  13.512  0.00  0.00    +0.000 OA
ATOM     10  H   UNL     1       5.275   3.643  13.609  0.00  0.00    +0.000 HD
ENDBRANCH   8   9
ENDBRANCH   6   8
ENDBRANCH   5   6
ENDBRANCH   1   5
BRANCH   3  11
ATOM     11  C   UNL     1       3.681   6.462  17.886  0.00  0.00    +0.000 C 
BRANCH  11  12
ATOM     12  C   UNL     1       2.311   5.793  17.799  0.00  0.00    +0.000 C 
BRANCH  12  13
ATOM     13  C   UNL     1       2.050   4.890  18.980  0.00  0.00    +0.000 A 
ATOM     14  C   UNL     1       2.442   5.273  20.273  0.00  0.00    +0.000 A 
ATOM     15  C   UNL     1       2.207   4.435  21.366  0.00  0.00    +0.000 A 
ATOM     16  C   UNL     1       1.583   3.208  21.166  0.00  0.00    +0.000 A 
ATOM     17  C   UNL     1       1.202   2.805  19.893  0.00  0.00    +0.000 A 
ATOM     18  C   UNL     1       1.437   3.642  18.801  0.00  0.00    +0.000 A 
BRANCH  16  19
ATOM     19  O   UNL     1       1.326   2.364  22.205  0.00  0.00    +0.000 OA
ATOM     20  H   UNL     1       1.931   2.577  22.934  0.00  0.00    +0.000 HD
ENDBRANCH  16  19
ENDBRANCH  12  13
ENDBRANCH  11  12
ENDBRANCH   3  11
TORSDOF 8
ENDMDL
MODEL 7
REMARK VINA RESULT:      -6.1      3.159      4.423
REMARK  Name = 
REMARK  8 active torsions:
REMARK  status: ('A' for Active; 'I' for Inactive)
REMARK    1  A    between atoms: C_2  and  O_3
REMARK    2  A    between atoms: C_2  and  C_4
REMARK    3  A    between atoms: C_4  and  C_5
REMARK    4  A    between atoms: C_5  and  C_6
REMARK    5  A    between atoms: N_8  and  C_9
REMARK    6  A    between atoms: C_9  and  C_10
REMARK    7  A    between atoms: C_10  and  C_11
REMARK    8  A    between atoms: C_14  and  O_15
REMARK                            x       y       z     vdW  Elec       q    Type
REMARK                         _______ _______ _______ _____ _____    ______ ____
ROOT
ATOM      1  C   UNL     1       6.451   4.686  14.921  0.00  0.00    +0.000 C 
ATOM      2  O   UNL     1       7.433   5.403  15.088  0.00  0.00    +0.000 OA
ATOM      3  N   UNL     1       5.333   4.746  15.724  0.00  0.00    +0.000 N 
ATOM      4  H   UNL     1       4.515   4.197  15.488  0.00  0.00    +0.000 HD
ENDROOT
BRANCH   1   5
ATOM      5  C   UNL     1       6.365   3.676  13.800  0.00  0.00    +0.000 C 
BRANCH   5   6
ATOM      6  C   UNL     1       5.205   4.034  12.876  0.00  0.00    +0.000 C 
BRANCH   6   8
ATOM      7  O   UNL     1       4.004   2.928  11.086  0.00  0.00    +0.000 OA
ATOM      8  C   UNL     1       4.975   2.984  11.826  0.00  0.00    +0.000 C 
BRANCH   8   9
ATOM      9  O   UNL     1       5.975   2.075  11.780  0.00  0.00    +0.000 OA
ATOM     10  H   UNL     1       6.529   2.140  10.978  0.00  0.00    +0.000 HD
ENDBRANCH   8   9
ENDBRANCH   6   8
ENDBRANCH   5   6
ENDBRANCH   1   5
BRANCH   3  11
ATOM     11  C   UNL     1       5.285   5.684  16.832  0.00  0.00    +0.000 C 
BRANCH  11  12
ATOM     12  C   UNL     1       5.105   5.001  18.187  0.00  0.00    +0.000 C 
BRANCH  12  13
ATOM     13  C   UNL     1       3.837   4.182  18.239  0.00  0.00    +0.000 A 
ATOM     14  C   UNL     1       2.599   4.762  17.924  0.00  0.00    +0.000 A 
ATOM     15  C   UNL     1       1.424   4.006  17.978  0.00  0.00    +0.000 A 
ATOM     16  C   UNL     1       1.488   2.668  18.353  0.00  0.00    +0.000 A 
ATOM     17  C   UNL     1       2.702   2.081  18.683  0.00  0.00    +0.000 A 
ATOM     18  C   UNL     1       3.875   2.836  18.630  0.00  0.00    +0.000 A 
BRANCH  16  19
ATOM     19  O   UNL     1       0.369   1.892  18.410  0.00  0.00    +0.000 OA
ATOM     20  H   UNL     1      -0.408   2.472  18.459  0.00  0.00    +0.000 HD
ENDBRANCH  16  19
ENDBRANCH  12  13
ENDBRANCH  11  12
ENDBRANCH   3  11
TORSDOF 8
ENDMDL
MODEL 8
REMARK VINA RESULT:      -6.1      3.266      4.632
REMARK  Name = 
REMARK  8 active torsions:
REMARK  status: ('A' for Active; 'I' for Inactive)
REMARK    1  A    between atoms: C_2  and  O_3
REMARK    2  A    between atoms: C_2  and  C_4
REMARK    3  A    between atoms: C_4  and  C_5
REMARK    4  A    between atoms: C_5  and  C_6
REMARK    5  A    between atoms: N_8  and  C_9
REMARK    6  A    between atoms: C_9  and  C_10
REMARK    7  A    between atoms: C_10  and  C_11
REMARK    8  A    between atoms: C_14  and  O_15
REMARK                            x       y       z     vdW  Elec       q    Type
REMARK                         _______ _______ _______ _____ _____    ______ ____
ROOT
ATOM      1  C   UNL     1       6.584   4.843  14.614  0.00  0.00    +0.000 C 
ATOM      2  O   UNL     1       7.607   5.393  15.009  0.00  0.00    +0.000 OA
ATOM      3  N   UNL     1       5.389   4.897  15.297  0.00  0.00    +0.000 N 
ATOM      4  H   UNL     1       4.554   4.503  14.883  0.00  0.00    +0.000 HD
ENDROOT
BRANCH   1   5
ATOM      5  C   UNL     1       6.531   4.062  13.320  0.00  0.00    +0.000 C 
BRANCH   5   6
ATOM      6  C   UNL     1       5.093   3.638  13.037  0.00  0.00    +0.000 C 
BRANCH   6   8
ATOM      7  O   UNL     1       5.642   1.890  11.452  0.00  0.00    +0.000 OA
ATOM      8  C   UNL     1       4.975   2.869  11.751  0.00  0.00    +0.000 C 
BRANCH   8   9
ATOM      9  O   UNL     1       4.033   3.383  10.929  0.00  0.00    +0.000 OA
ATOM     10  H   UNL     1       3.142   3.006  11.067  0.00  0.00    +0.000 HD
ENDBRANCH   8   9
ENDBRANCH   6   8
ENDBRANCH   5   6
ENDBRANCH   1   5
BRANCH   3  11
ATOM     11  C   UNL     1       5.304   5.626  16.552  0.00  0.00    +0.000 C 
BRANCH  11  12
ATOM     12  C   UNL     1       5.308   4.712  17.776  0.00  0.00    +0.000 C 
BRANCH  12  13
ATOM     13  C   UNL     1       3.976   4.028  17.971  0.00  0.00    +0.000 A 
ATOM     14  C   UNL     1       3.915   2.677  18.344  0.00  0.00    +0.000 A 
ATOM     15  C   UNL     1       2.682   2.042  18.518  0.00  0.00    +0.000 A 
ATOM     16  C   UNL     1       1.508   2.759  18.314  0.00  0.00    +0.000 A 
ATOM     17  C   UNL     1       1.548   4.092  17.929  0.00  0.00    +0.000 A 
ATOM     18  C   UNL     1       2.780   4.727  17.754  0.00  0.00    +0.000 A 
BRANCH  16  19
ATOM     19  O   UNL     1       0.284   2.181  18.482  0.00  0.00    +0.000 OA
ATOM     20  H   UNL     1       0.309   1.287  18.105  0.00  0.00    +0.000 HD
ENDBRANCH  16  19
ENDBRANCH  12  13
ENDBRANCH  11  12
ENDBRANCH   3  11
TORSDOF 8
ENDMDL
MODEL 9
REMARK VINA RESULT:      -6.0      2.063      2.233
REMARK  Name = 
REMARK  8 active torsions:
REMARK  status: ('A' for Active; 'I' for Inactive)
REMARK    1  A    between atoms: C_2  and  O_3
REMARK    2  A    between atoms: C_2  and  C_4
REMARK    3  A    between atoms: C_4  and  C_5
REMARK    4  A    between atoms: C_5  and  C_6
REMARK    5  A    between atoms: N_8  and  C_9
REMARK    6  A    between atoms: C_9  and  C_10
REMARK    7  A    between atoms: C_10  and  C_11
REMARK    8  A    between atoms: C_14  and  O_15
REMARK                            x       y       z     vdW  Elec       q    Type
REMARK                         _______ _______ _______ _____ _____    ______ ____
ROOT
ATOM      1  C   UNL     1       5.681   6.279  16.706  0.00  0.00    +0.000 C 
ATOM      2  O   UNL     1       5.269   6.756  15.653  0.00  0.00    +0.000 OA
ATOM      3  N   UNL     1       4.955   5.383  17.460  0.00  0.00    +0.000 N 
ATOM      4  H   UNL     1       5.378   4.951  18.272  0.00  0.00    +0.000 HD
ENDROOT
BRANCH   1   5
ATOM      5  C   UNL     1       7.042   6.616  17.272  0.00  0.00    +0.000 C 
BRANCH   5   6
ATOM      6  C   UNL     1       7.650   5.374  17.916  0.00  0.00    +0.000 C 
BRANCH   6   8
ATOM      7  O   UNL     1       6.356   5.281  19.962  0.00  0.00    +0.000 OA
ATOM      8  C   UNL     1       7.441   5.351  19.405  0.00  0.00    +0.000 C 
BRANCH   8   9
ATOM      9  O   UNL     1       8.605   5.423  20.088  0.00  0.00    +0.000 OA
ATOM     10  H   UNL     1       8.524   5.863  20.957  0.00  0.00    +0.000 HD
ENDBRANCH   8   9
ENDBRANCH   6   8
ENDBRANCH   5   6
ENDBRANCH   1   5
BRANCH   3  11
ATOM     11  C   UNL     1       3.634   4.968  17.020  0.00  0.00    +0.000 C 
BRANCH  11  12
ATOM     12  C   UNL     1       2.508   5.561  17.866  0.00  0.00    +0.000 C 
BRANCH  12  13
ATOM     13  C   UNL     1       2.172   4.684  19.048  0.00  0.00    +0.000 A 
ATOM     14  C   UNL     1       1.423   3.510  18.876  0.00  0.00    +0.000 A 
ATOM     15  C   UNL     1       1.106   2.701  19.971  0.00  0.00    +0.000 A 
ATOM     16  C   UNL     1       1.536   3.069  21.241  0.00  0.00    +0.000 A 
ATOM     17  C   UNL     1       2.265   4.235  21.433  0.00  0.00    +0.000 A 
ATOM     18  C   UNL     1       2.581   5.044  20.340  0.00  0.00    +0.000 A 
BRANCH  16  19
ATOM     19  O   UNL     1       1.257   2.305  22.335  0.00  0.00    +0.000 OA
ATOM     20  H   UNL     1       1.982   2.402  22.974  0.00  0.00    +0.000 HD
ENDBRANCH  16  19
ENDBRANCH  12  13
ENDBRANCH  11  12
ENDBRANCH   3  11
TORSDOF 8
ENDMDL
