MODEL 1
REMARK VINA RESULT:      -7.8      0.000      0.000
REMARK  Name = 
REMARK  4 active torsions:
REMARK  status: ('A' for Active; 'I' for Inactive)
REMARK    1  A    between atoms: C_1  and  O_2
REMARK    2  A    between atoms: O_2  and  C_3
REMARK    3  A    between atoms: C_8  and  N_9
REMARK    4  A    between atoms: C_16  and  C_17
REMARK                            x       y       z     vdW  Elec       q    Type
REMARK                         _______ _______ _______ _____ _____    ______ ____
ROOT
ATOM      1  N   UNL     1       2.375   6.678  18.719  0.00  0.00    +0.000 N 
ATOM      2  C   UNL     1       1.764   6.414  20.048  0.00  0.00    +0.000 C 
ATOM      3  C   UNL     1       1.870   7.671  20.953  0.00  0.00    +0.000 C 
ATOM      4  N   UNL     1       1.258   8.791  20.232  0.00  0.00    +0.000 N 
ATOM      5  C   UNL     1       0.563   9.761  20.912  0.00  0.00    +0.000 A 
ATOM      6  C   UNL     1      -0.391  10.508  20.234  0.00  0.00    +0.000 A 
ATOM      7  C   UNL     1      -1.178  11.434  20.911  0.00  0.00    +0.000 A 
ATOM      8  C   UNL     1      -1.003  11.602  22.274  0.00  0.00    +0.000 A 
ATOM      9  N   UNL     1      -0.062  10.882  22.923  0.00  0.00    +0.000 NA
ATOM     10  N   UNL     1       0.705   9.948  22.242  0.00  0.00    +0.000 NA
ATOM     11  C   UNL     1       1.892   9.093  18.941  0.00  0.00    +0.000 C 
ATOM     12  C   UNL     1       1.822   7.852  18.022  0.00  0.00    +0.000 C 
ENDROOT
BRANCH   1  18
ATOM     13  C   UNL     1       2.829   4.491  17.614  0.00  0.00    +0.000 A 
ATOM     14  C   UNL     1       3.761   3.659  16.966  0.00  0.00    +0.000 A 
ATOM     15  C   UNL     1       5.077   4.068  16.770  0.00  0.00    +0.000 A 
ATOM     16  C   UNL     1       5.477   5.311  17.227  0.00  0.00    +0.000 A 
ATOM     17  C   UNL     1       4.561   6.137  17.878  0.00  0.00    +0.000 A 
ATOM     18  C   UNL     1       3.220   5.765  18.102  0.00  0.00    +0.000 A 
BRANCH  13  20
ATOM     19  C   UNL     1       1.450   2.781  18.526  0.00  0.00    +0.000 C 
ATOM     20  O   UNL     1       1.548   4.040  17.866  0.00  0.00    +0.000 OA
ENDBRANCH  13  20
ENDBRANCH   1  18
BRANCH   8  21
ATOM     21  C   UNL     1      -1.811  12.542  23.063  0.00  0.00    +0.000 A 
ATOM     22  C   UNL     1      -1.296  13.791  23.461  0.00  0.00    +0.000 A 
ATOM     23  C   UNL     1      -2.044  14.673  24.240  0.00  0.00    +0.000 A 
ATOM     24  C   UNL     1      -3.333  14.325  24.633  0.00  0.00    +0.000 A 
ATOM     25  C   UNL     1      -3.872  13.103  24.241  0.00  0.00    +0.000 A 
ATOM     26  C   UNL     1      -3.119  12.221  23.461  0.00  0.00    +0.000 A 
ENDBRANCH   8  21
TORSDOF 3
ENDMDL
MODEL 2
REMARK VINA RESULT:      -7.6      2.400      9.980
REMARK  Name = 
REMARK  4 active torsions:
REMARK  status: ('A' for Active; 'I' for Inactive)
REMARK    1  A    between atoms: C_1  and  O_2
REMARK    2  A    between atoms: O_2  and  C_3
REMARK    3  A    between atoms: C_8  and  N_9
REMARK    4  A    between atoms: C_16  and  C_17
REMARK                            x       y       z     vdW  Elec       q    Type
REMARK                         _______ _______ _______ _____ _____    ______ ____
ROOT
ATOM      1  N   UNL     1      -1.267  11.403  22.401  0.00  0.00    +0.000 N 
ATOM      2  C   UNL     1      -1.330  11.222  20.928  0.00  0.00    +0.000 C 
ATOM      3  C   UNL     1       0.059  10.810  20.371  0.00  0.00    +0.000 C 
ATOM      4  N   UNL     1       0.491   9.612  21.097  0.00  0.00    +0.000 N 
ATOM      5  C   UNL     1       1.213   8.633  20.458  0.00  0.00    +0.000 A 
ATOM      6  C   UNL     1       1.194   7.341  20.967  0.00  0.00    +0.000 A 
ATOM      7  C   UNL     1       1.837   6.306  20.296  0.00  0.00    +0.000 A 
ATOM      8  C   UNL     1       2.495   6.577  19.108  0.00  0.00    +0.000 A 
ATOM      9  N   UNL     1       2.521   7.839  18.628  0.00  0.00    +0.000 NA
ATOM     10  N   UNL     1       1.861   8.860  19.296  0.00  0.00    +0.000 NA
ATOM     11  C   UNL     1       0.610   9.798  22.550  0.00  0.00    +0.000 C 
ATOM     12  C   UNL     1      -0.756  10.230  23.133  0.00  0.00    +0.000 C 
ENDROOT
BRANCH   1  18
ATOM     13  C   UNL     1      -1.250  13.763  23.203  0.00  0.00    +0.000 A 
ATOM     14  C   UNL     1      -1.953  14.809  23.830  0.00  0.00    +0.000 A 
ATOM     15  C   UNL     1      -3.258  14.630  24.280  0.00  0.00    +0.000 A 
ATOM     16  C   UNL     1      -3.870  13.400  24.118  0.00  0.00    +0.000 A 
ATOM     17  C   UNL     1      -3.176  12.357  23.507  0.00  0.00    +0.000 A 
ATOM     18  C   UNL     1      -1.854  12.489  23.037  0.00  0.00    +0.000 A 
BRANCH  13  20
ATOM     19  C   UNL     1       0.321  14.987  21.903  0.00  0.00    +0.000 C 
ATOM     20  O   UNL     1       0.069  13.934  22.829  0.00  0.00    +0.000 OA
ENDBRANCH  13  20
ENDBRANCH   1  18
BRANCH   8  21
ATOM     21  C   UNL     1       3.177   5.534  18.328  0.00  0.00    +0.000 A 
ATOM     22  C   UNL     1       2.457   4.475  17.741  0.00  0.00    +0.000 A 
ATOM     23  C   UNL     1       3.101   3.462  17.031  0.00  0.00    +0.000 A 
ATOM     24  C   UNL     1       4.484   3.493  16.883  0.00  0.00    +0.000 A 
ATOM     25  C   UNL     1       5.218   4.537  17.441  0.00  0.00    +0.000 A 
ATOM     26  C   UNL     1       4.570   5.549  18.153  0.00  0.00    +0.000 A 
ENDBRANCH   8  21
TORSDOF 3
ENDMDL
MODEL 3
REMARK VINA RESULT:      -7.5      2.543      9.943
REMARK  Name = 
REMARK  4 active torsions:
REMARK  status: ('A' for Active; 'I' for Inactive)
REMARK    1  A    between atoms: C_1  and  O_2
REMARK    2  A    between atoms: O_2  and  C_3
REMARK    3  A    between atoms: C_8  and  N_9
REMARK    4  A    between atoms: C_16  and  C_17
REMARK                            x       y       z     vdW  Elec       q    Type
REMARK                         _______ _______ _______ _____ _____    ______ ____
ROOT
ATOM      1  N   UNL     1      -0.528  11.575  21.862  0.00  0.00    +0.000 N 
ATOM      2  C   UNL     1       0.614  10.811  22.427  0.00  0.00    +0.000 C 
ATOM      3  C   UNL     1       0.663   9.382  21.824  0.00  0.00    +0.000 C 
ATOM      4  N   UNL     1       0.705   9.516  20.365  0.00  0.00    +0.000 N 
ATOM      5  C   UNL     1       1.428   8.629  19.604  0.00  0.00    +0.000 A 
ATOM      6  C   UNL     1       1.862   9.020  18.344  0.00  0.00    +0.000 A 
ATOM      7  C   UNL     1       2.674   8.184  17.585  0.00  0.00    +0.000 A 
ATOM      8  C   UNL     1       3.050   6.955  18.101  0.00  0.00    +0.000 A 
ATOM      9  N   UNL     1       2.610   6.577  19.321  0.00  0.00    +0.000 NA
ATOM     10  N   UNL     1       1.816   7.426  20.078  0.00  0.00    +0.000 NA
ATOM     11  C   UNL     1      -0.449  10.222  19.793  0.00  0.00    +0.000 C 
ATOM     12  C   UNL     1      -0.538  11.646  20.390  0.00  0.00    +0.000 C 
ENDROOT
BRANCH   1  18
ATOM     13  C   UNL     1      -1.126  13.684  23.047  0.00  0.00    +0.000 A 
ATOM     14  C   UNL     1      -2.068  14.383  23.825  0.00  0.00    +0.000 A 
ATOM     15  C   UNL     1      -3.264  13.787  24.214  0.00  0.00    +0.000 A 
ATOM     16  C   UNL     1      -3.528  12.482  23.836  0.00  0.00    +0.000 A 
ATOM     17  C   UNL     1      -2.595  11.781  23.073  0.00  0.00    +0.000 A 
ATOM     18  C   UNL     1      -1.369  12.341  22.658  0.00  0.00    +0.000 A 
BRANCH  13  20
ATOM     19  C   UNL     1       0.072  15.676  22.543  0.00  0.00    +0.000 C 
ATOM     20  O   UNL     1       0.087  14.264  22.733  0.00  0.00    +0.000 OA
ENDBRANCH  13  20
ENDBRANCH   1  18
BRANCH   8  21
ATOM     21  C   UNL     1       3.924   6.027  17.370  0.00  0.00    +0.000 A 
ATOM     22  C   UNL     1       4.892   6.499  16.462  0.00  0.00    +0.000 A 
ATOM     23  C   UNL     1       5.700   5.621  15.739  0.00  0.00    +0.000 A 
ATOM     24  C   UNL     1       5.563   4.249  15.917  0.00  0.00    +0.000 A 
ATOM     25  C   UNL     1       4.625   3.756  16.820  0.00  0.00    +0.000 A 
ATOM     26  C   UNL     1       3.816   4.637  17.542  0.00  0.00    +0.000 A 
ENDBRANCH   8  21
TORSDOF 3
ENDMDL
MODEL 4
REMARK VINA RESULT:      -7.5      1.066      2.128
REMARK  Name = 
REMARK  4 active torsions:
REMARK  status: ('A' for Active; 'I' for Inactive)
REMARK    1  A    between atoms: C_1  and  O_2
REMARK    2  A    between atoms: O_2  and  C_3
REMARK    3  A    between atoms: C_8  and  N_9
REMARK    4  A    between atoms: C_16  and  C_17
REMARK                            x       y       z     vdW  Elec       q    Type
REMARK                         _______ _______ _______ _____ _____    ______ ____
ROOT
ATOM      1  N   UNL     1       2.423   6.580  18.525  0.00  0.00    +0.000 N 
ATOM      2  C   UNL     1       1.826   6.307  19.858  0.00  0.00    +0.000 C 
ATOM      3  C   UNL     1       1.955   7.552  20.776  0.00  0.00    +0.000 C 
ATOM      4  N   UNL     1       1.347   8.686  20.076  0.00  0.00    +0.000 N 
ATOM      5  C   UNL     1       0.670   9.656  20.776  0.00  0.00    +0.000 A 
ATOM      6  C   UNL     1      -0.285  10.420  20.118  0.00  0.00    +0.000 A 
ATOM      7  C   UNL     1      -1.054  11.345  20.816  0.00  0.00    +0.000 A 
ATOM      8  C   UNL     1      -0.860  11.496  22.178  0.00  0.00    +0.000 A 
ATOM      9  N   UNL     1       0.082  10.759  22.807  0.00  0.00    +0.000 NA
ATOM     10  N   UNL     1       0.830   9.826  22.106  0.00  0.00    +0.000 NA
ATOM     11  C   UNL     1       1.968   8.997  18.781  0.00  0.00    +0.000 C 
ATOM     12  C   UNL     1       1.873   7.768  17.848  0.00  0.00    +0.000 C 
ENDROOT
BRANCH   1  18
ATOM     13  C   UNL     1       4.588   5.916  17.485  0.00  0.00    +0.000 A 
ATOM     14  C   UNL     1       5.352   4.901  16.879  0.00  0.00    +0.000 A 
ATOM     15  C   UNL     1       4.828   3.628  16.679  0.00  0.00    +0.000 A 
ATOM     16  C   UNL     1       3.530   3.357  17.074  0.00  0.00    +0.000 A 
ATOM     17  C   UNL     1       2.764   4.361  17.666  0.00  0.00    +0.000 A 
ATOM     18  C   UNL     1       3.250   5.666  17.887  0.00  0.00    +0.000 A 
BRANCH  13  20
ATOM     19  C   UNL     1       6.486   7.341  17.326  0.00  0.00    +0.000 C 
ATOM     20  O   UNL     1       5.097   7.194  17.608  0.00  0.00    +0.000 OA
ENDBRANCH  13  20
ENDBRANCH   1  18
BRANCH   8  21
ATOM     21  C   UNL     1      -1.649  12.435  22.988  0.00  0.00    +0.000 A 
ATOM     22  C   UNL     1      -2.943  12.103  23.436  0.00  0.00    +0.000 A 
ATOM     23  C   UNL     1      -3.710  13.004  24.174  0.00  0.00    +0.000 A 
ATOM     24  C   UNL     1      -3.194  14.256  24.490  0.00  0.00    +0.000 A 
ATOM     25  C   UNL     1      -1.912  14.604  24.073  0.00  0.00    +0.000 A 
ATOM     26  C   UNL     1      -1.146  13.700  23.332  0.00  0.00    +0.000 A 
ENDBRANCH   8  21
TORSDOF 3
ENDMDL
MODEL 5
REMARK VINA RESULT:      -7.3      2.741      9.989
REMARK  Name = 
REMARK  4 active torsions:
REMARK  status: ('A' for Active; 'I' for Inactive)
REMARK    1  A    between atoms: C_1  and  O_2
REMARK    2  A    between atoms: O_2  and  C_3
REMARK    3  A    between atoms: C_8  and  N_9
REMARK    4  A    between atoms: C_16  and  C_17
REMARK                            x       y       z     vdW  Elec       q    Type
REMARK                         _______ _______ _______ _____ _____    ______ ____
ROOT
ATOM      1  N   UNL     1      -1.417  11.818  21.147  0.00  0.00    +0.000 N 
ATOM      2  C   UNL     1      -1.560  11.416  19.723  0.00  0.00    +0.000 C 
ATOM      3  C   UNL     1      -0.166  11.178  19.083  0.00  0.00    +0.000 C 
ATOM      4  N   UNL     1       0.540  10.193  19.909  0.00  0.00    +0.000 N 
ATOM      5  C   UNL     1       1.381   9.274  19.330  0.00  0.00    +0.000 A 
ATOM      6  C   UNL     1       1.646   8.087  20.001  0.00  0.00    +0.000 A 
ATOM      7  C   UNL     1       2.418   7.095  19.406  0.00  0.00    +0.000 A 
ATOM      8  C   UNL     1       2.919   7.301  18.131  0.00  0.00    +0.000 A 
ATOM      9  N   UNL     1       2.668   8.465  17.493  0.00  0.00    +0.000 NA
ATOM     10  N   UNL     1       1.882   9.440  18.088  0.00  0.00    +0.000 NA
ATOM     11  C   UNL     1       0.734  10.608  21.305  0.00  0.00    +0.000 C 
ATOM     12  C   UNL     1      -0.638  10.873  21.966  0.00  0.00    +0.000 C 
ENDROOT
BRANCH   1  18
ATOM     13  C   UNL     1      -1.817  14.240  21.576  0.00  0.00    +0.000 A 
ATOM     14  C   UNL     1      -2.652  15.224  22.138  0.00  0.00    +0.000 A 
ATOM     15  C   UNL     1      -3.826  14.879  22.801  0.00  0.00    +0.000 A 
ATOM     16  C   UNL     1      -4.174  13.545  22.917  0.00  0.00    +0.000 A 
ATOM     17  C   UNL     1      -3.346  12.564  22.371  0.00  0.00    +0.000 A 
ATOM     18  C   UNL     1      -2.147  12.865  21.694  0.00  0.00    +0.000 A 
BRANCH  13  20
ATOM     19  C   UNL     1      -0.716  15.272  19.738  0.00  0.00    +0.000 C 
ATOM     20  O   UNL     1      -0.619  14.595  20.987  0.00  0.00    +0.000 OA
ENDBRANCH  13  20
ENDBRANCH   1  18
BRANCH   8  21
ATOM     21  C   UNL     1       3.722   6.292  17.426  0.00  0.00    +0.000 A 
ATOM     22  C   UNL     1       4.764   6.667  16.556  0.00  0.00    +0.000 A 
ATOM     23  C   UNL     1       5.506   5.716  15.856  0.00  0.00    +0.000 A 
ATOM     24  C   UNL     1       5.225   4.363  16.019  0.00  0.00    +0.000 A 
ATOM     25  C   UNL     1       4.210   3.965  16.885  0.00  0.00    +0.000 A 
ATOM     26  C   UNL     1       3.468   4.920  17.584  0.00  0.00    +0.000 A 
ENDBRANCH   8  21
TORSDOF 3
ENDMDL
MODEL 6
REMARK VINA RESULT:      -7.3      1.170      1.916
REMARK  Name = 
REMARK  4 active torsions:
REMARK  status: ('A' for Active; 'I' for Inactive)
REMARK    1  A    between atoms: C_1  and  O_2
REMARK    2  A    between atoms: O_2  and  C_3
REMARK    3  A    between atoms: C_8  and  N_9
REMARK    4  A    between atoms: C_16  and  C_17
REMARK                            x       y       z     vdW  Elec       q    Type
REMARK                         _______ _______ _______ _____ _____    ______ ____
ROOT
ATOM      1  N   UNL     1       3.390   6.794  18.267  0.00  0.00    +0.000 N 
ATOM      2  C   UNL     1       3.146   8.203  17.860  0.00  0.00    +0.000 C 
ATOM      3  C   UNL     1       1.703   8.634  18.235  0.00  0.00    +0.000 C 
ATOM      4  N   UNL     1       1.526   8.393  19.670  0.00  0.00    +0.000 N 
ATOM      5  C   UNL     1       0.755   9.241  20.428  0.00  0.00    +0.000 A 
ATOM      6  C   UNL     1       0.976   9.309  21.798  0.00  0.00    +0.000 A 
ATOM      7  C   UNL     1       0.279  10.222  22.583  0.00  0.00    +0.000 A 
ATOM      8  C   UNL     1      -0.638  11.068  21.983  0.00  0.00    +0.000 A 
ATOM      9  N   UNL     1      -0.857  10.984  20.652  0.00  0.00    +0.000 NA
ATOM     10  N   UNL     1      -0.144  10.083  19.876  0.00  0.00    +0.000 NA
ATOM     11  C   UNL     1       1.711   6.992  20.072  0.00  0.00    +0.000 C 
ATOM     12  C   UNL     1       3.135   6.525  19.694  0.00  0.00    +0.000 C 
ENDROOT
BRANCH   1  18
ATOM     13  C   UNL     1       3.722   4.499  17.356  0.00  0.00    +0.000 A 
ATOM     14  C   UNL     1       4.398   3.671  16.440  0.00  0.00    +0.000 A 
ATOM     15  C   UNL     1       5.356   4.189  15.574  0.00  0.00    +0.000 A 
ATOM     16  C   UNL     1       5.656   5.539  15.621  0.00  0.00    +0.000 A 
ATOM     17  C   UNL     1       4.997   6.362  16.532  0.00  0.00    +0.000 A 
ATOM     18  C   UNL     1       4.021   5.884  17.430  0.00  0.00    +0.000 A 
BRANCH  13  20
ATOM     19  C   UNL     1       2.397   2.626  17.986  0.00  0.00    +0.000 C 
ATOM     20  O   UNL     1       2.828   3.956  18.259  0.00  0.00    +0.000 OA
ENDBRANCH  13  20
ENDBRANCH   1  18
BRANCH   8  21
ATOM     21  C   UNL     1      -1.395  12.075  22.739  0.00  0.00    +0.000 A 
ATOM     22  C   UNL     1      -2.686  11.799  23.230  0.00  0.00    +0.000 A 
ATOM     23  C   UNL     1      -3.424  12.763  23.918  0.00  0.00    +0.000 A 
ATOM     24  C   UNL     1      -2.881  14.024  24.137  0.00  0.00    +0.000 A 
ATOM     25  C   UNL     1      -1.600  14.318  23.675  0.00  0.00    +0.000 A 
ATOM     26  C   UNL     1      -0.864  13.351  22.986  0.00  0.00    +0.000 A 
ENDBRANCH   8  21
TORSDOF 3
ENDMDL
MODEL 7
REMARK VINA RESULT:      -7.3      2.883      9.936
REMARK  Name = 
REMARK  4 active torsions:
REMARK  status: ('A' for Active; 'I' for Inactive)
REMARK    1  A    between atoms: C_1  and  O_2
REMARK    2  A    between atoms: O_2  and  C_3
REMARK    3  A    between atoms: C_8  and  N_9
REMARK    4  A    between atoms: C_16  and  C_17
REMARK                            x       y       z     vdW  Elec       q    Type
REMARK                         _______ _______ _______ _____ _____    ______ ____
ROOT
ATOM      1  N   UNL     1      -1.726  12.473  20.818  0.00  0.00    +0.000 N 
ATOM      2  C   UNL     1      -1.896  11.891  19.461  0.00  0.00    +0.000 C 
ATOM      3  C   UNL     1      -0.515  11.567  18.832  0.00  0.00    +0.000 C 
ATOM      4  N   UNL     1       0.205  10.695  19.764  0.00  0.00    +0.000 N 
ATOM      5  C   UNL     1       1.035   9.705  19.294  0.00  0.00    +0.000 A 
ATOM      6  C   UNL     1       1.311   8.614  20.108  0.00  0.00    +0.000 A 
ATOM      7  C   UNL     1       2.070   7.550  19.631  0.00  0.00    +0.000 A 
ATOM      8  C   UNL     1       2.546   7.588  18.332  0.00  0.00    +0.000 A 
ATOM      9  N   UNL     1       2.285   8.661  17.552  0.00  0.00    +0.000 NA
ATOM     10  N   UNL     1       1.512   9.708  18.031  0.00  0.00    +0.000 NA
ATOM     11  C   UNL     1       0.427  11.286  21.091  0.00  0.00    +0.000 C 
ATOM     12  C   UNL     1      -0.933  11.639  21.738  0.00  0.00    +0.000 C 
ENDROOT
BRANCH   1  18
ATOM     13  C   UNL     1      -3.750  13.551  21.793  0.00  0.00    +0.000 A 
ATOM     14  C   UNL     1      -4.371  14.738  22.224  0.00  0.00    +0.000 A 
ATOM     15  C   UNL     1      -3.719  15.965  22.140  0.00  0.00    +0.000 A 
ATOM     16  C   UNL     1      -2.440  16.019  21.614  0.00  0.00    +0.000 A 
ATOM     17  C   UNL     1      -1.822  14.848  21.175  0.00  0.00    +0.000 A 
ATOM     18  C   UNL     1      -2.444  13.584  21.238  0.00  0.00    +0.000 A 
BRANCH  13  20
ATOM     19  C   UNL     1      -5.800  12.412  21.397  0.00  0.00    +0.000 C 
ATOM     20  O   UNL     1      -4.439  12.355  21.815  0.00  0.00    +0.000 OA
ENDBRANCH  13  20
ENDBRANCH   1  18
BRANCH   8  21
ATOM     21  C   UNL     1       3.334   6.494  17.748  0.00  0.00    +0.000 A 
ATOM     22  C   UNL     1       4.534   6.748  17.054  0.00  0.00    +0.000 A 
ATOM     23  C   UNL     1       5.267   5.717  16.467  0.00  0.00    +0.000 A 
ATOM     24  C   UNL     1       4.819   4.404  16.569  0.00  0.00    +0.000 A 
ATOM     25  C   UNL     1       3.645   4.123  17.263  0.00  0.00    +0.000 A 
ATOM     26  C   UNL     1       2.911   5.158  17.849  0.00  0.00    +0.000 A 
ENDBRANCH   8  21
TORSDOF 3
ENDMDL
MODEL 8
REMARK VINA RESULT:      -7.3      2.964     10.003
REMARK  Name = 
REMARK  4 active torsions:
REMARK  status: ('A' for Active; 'I' for Inactive)
REMARK    1  A    between atoms: C_1  and  O_2
REMARK    2  A    between atoms: O_2  and  C_3
REMARK    3  A    between atoms: C_8  and  N_9
REMARK    4  A    between atoms: C_16  and  C_17
REMARK                            x       y       z     vdW  Elec       q    Type
REMARK                         _______ _______ _______ _____ _____    ______ ____
ROOT
ATOM      1  N   UNL     1      -2.034  12.596  20.989  0.00  0.00    +0.000 N 
ATOM      2  C   UNL     1      -2.232  11.972  19.655  0.00  0.00    +0.000 C 
ATOM      3  C   UNL     1      -0.864  11.694  18.977  0.00  0.00    +0.000 C 
ATOM      4  N   UNL     1      -0.068  10.879  19.899  0.00  0.00    +0.000 N 
ATOM      5  C   UNL     1       0.786   9.916  19.418  0.00  0.00    +0.000 A 
ATOM      6  C   UNL     1       1.144   8.859  20.246  0.00  0.00    +0.000 A 
ATOM      7  C   UNL     1       1.931   7.818  19.764  0.00  0.00    +0.000 A 
ATOM      8  C   UNL     1       2.353   7.844  18.445  0.00  0.00    +0.000 A 
ATOM      9  N   UNL     1       2.012   8.883  17.652  0.00  0.00    +0.000 NA
ATOM     10  N   UNL     1       1.211   9.907  18.137  0.00  0.00    +0.000 NA
ATOM     11  C   UNL     1       0.180  11.513  21.201  0.00  0.00    +0.000 C 
ATOM     12  C   UNL     1      -1.167  11.822  21.895  0.00  0.00    +0.000 C 
ENDROOT
BRANCH   1  18
ATOM     13  C   UNL     1      -4.107  13.617  21.920  0.00  0.00    +0.000 A 
ATOM     14  C   UNL     1      -4.763  14.782  22.360  0.00  0.00    +0.000 A 
ATOM     15  C   UNL     1      -4.128  16.020  22.329  0.00  0.00    +0.000 A 
ATOM     16  C   UNL     1      -2.834  16.108  21.849  0.00  0.00    +0.000 A 
ATOM     17  C   UNL     1      -2.182  14.959  21.402  0.00  0.00    +0.000 A 
ATOM     18  C   UNL     1      -2.784  13.685  21.412  0.00  0.00    +0.000 A 
BRANCH  13  20
ATOM     19  C   UNL     1      -5.971  12.379  21.112  0.00  0.00    +0.000 C 
ATOM     20  O   UNL     1      -4.777  12.409  21.889  0.00  0.00    +0.000 OA
ENDBRANCH  13  20
ENDBRANCH   1  18
BRANCH   8  21
ATOM     21  C   UNL     1       3.166   6.771  17.855  0.00  0.00    +0.000 A 
ATOM     22  C   UNL     1       2.789   5.419  17.979  0.00  0.00    +0.000 A 
ATOM     23  C   UNL     1       3.574   4.393  17.453  0.00  0.00    +0.000 A 
ATOM     24  C   UNL     1       4.754   4.700  16.782  0.00  0.00    +0.000 A 
ATOM     25  C   UNL     1       5.142   6.029  16.633  0.00  0.00    +0.000 A 
ATOM     26  C   UNL     1       4.353   7.055  17.162  0.00  0.00    +0.000 A 
ENDBRANCH   8  21
TORSDOF 3
ENDMDL
MODEL 9
REMARK VINA RESULT:      -7.2      2.540     10.028
REMARK  Name = 
REMARK  4 active torsions:
REMARK  status: ('A' for Active; 'I' for Inactive)
REMARK    1  A    between atoms: C_1  and  O_2
REMARK    2  A    between atoms: O_2  and  C_3
REMARK    3  A    between atoms: C_8  and  N_9
REMARK    4  A    between atoms: C_16  and  C_17
REMARK                            x       y       z     vdW  Elec       q    Type
REMARK                         _______ _______ _______ _____ _____    ______ ____
ROOT
ATOM      1  N   UNL     1      -1.214  11.580  21.494  0.00  0.00    +0.000 N 
ATOM      2  C   UNL     1      -1.381  11.247  20.055  0.00  0.00    +0.000 C 
ATOM      3  C   UNL     1      -0.001  10.997  19.391  0.00  0.00    +0.000 C 
ATOM      4  N   UNL     1       0.682   9.956  20.164  0.00  0.00    +0.000 N 
ATOM      5  C   UNL     1       1.491   9.039  19.535  0.00  0.00    +0.000 A 
ATOM      6  C   UNL     1       1.726   7.816  20.149  0.00  0.00    +0.000 A 
ATOM      7  C   UNL     1       2.462   6.829  19.501  0.00  0.00    +0.000 A 
ATOM      8  C   UNL     1       2.957   7.078  18.233  0.00  0.00    +0.000 A 
ATOM      9  N   UNL     1       2.736   8.277  17.650  0.00  0.00    +0.000 NA
ATOM     10  N   UNL     1       1.985   9.247  18.297  0.00  0.00    +0.000 NA
ATOM     11  C   UNL     1       0.901  10.300  21.575  0.00  0.00    +0.000 C 
ATOM     12  C   UNL     1      -0.457  10.575  22.261  0.00  0.00    +0.000 C 
ENDROOT
BRANCH   1  18
ATOM     13  C   UNL     1      -1.644  14.001  21.893  0.00  0.00    +0.000 A 
ATOM     14  C   UNL     1      -2.437  14.978  22.525  0.00  0.00    +0.000 A 
ATOM     15  C   UNL     1      -3.506  14.619  23.341  0.00  0.00    +0.000 A 
ATOM     16  C   UNL     1      -3.788  13.280  23.543  0.00  0.00    +0.000 A 
ATOM     17  C   UNL     1      -3.000  12.307  22.928  0.00  0.00    +0.000 A 
ATOM     18  C   UNL     1      -1.907  12.621  22.095  0.00  0.00    +0.000 A 
BRANCH  13  20
ATOM     19  C   UNL     1       0.039  15.630  21.479  0.00  0.00    +0.000 C 
ATOM     20  O   UNL     1      -0.543  14.373  21.147  0.00  0.00    +0.000 OA
ENDBRANCH  13  20
ENDBRANCH   1  18
BRANCH   8  21
ATOM     21  C   UNL     1       3.723   6.079  17.474  0.00  0.00    +0.000 A 
ATOM     22  C   UNL     1       3.451   4.703  17.600  0.00  0.00    +0.000 A 
ATOM     23  C   UNL     1       4.198   3.747  16.911  0.00  0.00    +0.000 A 
ATOM     24  C   UNL     1       5.231   4.151  16.071  0.00  0.00    +0.000 A 
ATOM     25  C   UNL     1       5.511   5.506  15.917  0.00  0.00    +0.000 A 
ATOM     26  C   UNL     1       4.762   6.461  16.610  0.00  0.00    +0.000 A 
ENDBRANCH   8  21
TORSDOF 3
ENDMDL
