MODEL 1
REMARK VINA RESULT:      -6.9      0.000      0.000
REMARK  Name = 
REMARK  3 active torsions:
REMARK  status: ('A' for Active; 'I' for Inactive)
REMARK    1  A    between atoms: C_1  and  S_2
REMARK    2  A    between atoms: S_2  and  C_3
REMARK    3  A    between atoms: C_6  and  N_7
REMARK                            x       y       z     vdW  Elec       q    Type
REMARK                         _______ _______ _______ _____ _____    ______ ____
ROOT
ATOM      1  N   UNL     1       2.381   6.606  19.376  0.00  0.00    +0.000 N 
ATOM      2  C   UNL     1       3.389   6.440  18.455  0.00  0.00    +0.000 C 
ATOM      3  O   UNL     1       3.998   7.261  17.787  0.00  0.00    +0.000 OA
ATOM      4  N   UNL     1       3.707   5.104  18.380  0.00  0.00    +0.000 N 
ATOM      5  C   UNL     1       2.806   4.280  19.138  0.00  0.00    +0.000 C 
ATOM      6  C   UNL     1       1.879   3.498  18.200  0.00  0.00    +0.000 C 
ATOM      7  C   UNL     1       2.633   2.391  17.460  0.00  0.00    +0.000 C 
ATOM      8  C   UNL     1       3.383   1.474  18.424  0.00  0.00    +0.000 C 
ATOM      9  C   UNL     1       4.298   2.251  19.368  0.00  0.00    +0.000 C 
ATOM     10  C   UNL     1       3.546   3.358  20.106  0.00  0.00    +0.000 C 
ATOM     11  C   UNL     1       2.018   5.373  19.884  0.00  0.00    +0.000 C 
ATOM     12  O   UNL     1       1.165   5.113  20.727  0.00  0.00    +0.000 OA
ATOM     13  H   UNL     1       4.398   4.784  17.713  0.00  0.00    +0.000 HD
ENDROOT
BRANCH   1  17
ATOM     14  C   UNL     1       0.698  10.349  20.529  0.00  0.00    +0.000 A 
ATOM     15  C   UNL     1       0.959   9.364  21.478  0.00  0.00    +0.000 A 
ATOM     16  C   UNL     1       1.513   8.138  21.093  0.00  0.00    +0.000 A 
ATOM     17  C   UNL     1       1.827   7.861  19.754  0.00  0.00    +0.000 A 
ATOM     18  C   UNL     1       1.561   8.865  18.811  0.00  0.00    +0.000 A 
ATOM     19  C   UNL     1       0.988  10.088  19.190  0.00  0.00    +0.000 A 
BRANCH  14  21
ATOM     20  C   UNL     1      -0.787  11.430  22.559  0.00  0.00    +0.000 C 
ATOM     21  S   UNL     1      -0.014  11.913  20.992  0.00  0.00    +0.000 S 
ENDBRANCH  14  21
ENDBRANCH   1  17
TORSDOF 2
ENDMDL
MODEL 2
REMARK VINA RESULT:      -6.9      3.007      7.087
REMARK  Name = 
REMARK  3 active torsions:
REMARK  status: ('A' for Active; 'I' for Inactive)
REMARK    1  A    between atoms: C_1  and  S_2
REMARK    2  A    between atoms: S_2  and  C_3
REMARK    3  A    between atoms: C_6  and  N_7
REMARK                            x       y       z     vdW  Elec       q    Type
REMARK                         _______ _______ _______ _____ _____    ______ ____
ROOT
ATOM      1  N   UNL     1       1.761   8.168  19.634  0.00  0.00    +0.000 N 
ATOM      2  C   UNL     1       1.267   8.819  20.739  0.00  0.00    +0.000 C 
ATOM      3  O   UNL     1       1.189   8.461  21.905  0.00  0.00    +0.000 OA
ATOM      4  N   UNL     1       0.857  10.078  20.367  0.00  0.00    +0.000 N 
ATOM      5  C   UNL     1       0.905  10.275  18.945  0.00  0.00    +0.000 C 
ATOM      6  C   UNL     1      -0.511  10.291  18.358  0.00  0.00    +0.000 C 
ATOM      7  C   UNL     1      -1.262  11.568  18.739  0.00  0.00    +0.000 C 
ATOM      8  C   UNL     1      -0.473  12.821  18.370  0.00  0.00    +0.000 C 
ATOM      9  C   UNL     1       0.943  12.803  18.942  0.00  0.00    +0.000 C 
ATOM     10  C   UNL     1       1.694  11.527  18.563  0.00  0.00    +0.000 C 
ATOM     11  C   UNL     1       1.645   8.989  18.528  0.00  0.00    +0.000 C 
ATOM     12  O   UNL     1       1.980   8.765  17.369  0.00  0.00    +0.000 OA
ATOM     13  H   UNL     1       0.416  10.688  21.044  0.00  0.00    +0.000 HD
ENDROOT
BRANCH   1  17
ATOM     14  C   UNL     1       3.436   4.248  19.712  0.00  0.00    +0.000 A 
ATOM     15  C   UNL     1       2.310   4.555  20.471  0.00  0.00    +0.000 A 
ATOM     16  C   UNL     1       1.763   5.843  20.440  0.00  0.00    +0.000 A 
ATOM     17  C   UNL     1       2.321   6.859  19.648  0.00  0.00    +0.000 A 
ATOM     18  C   UNL     1       3.454   6.532  18.888  0.00  0.00    +0.000 A 
ATOM     19  C   UNL     1       4.014   5.248  18.931  0.00  0.00    +0.000 A 
BRANCH  14  21
ATOM     20  C   UNL     1       3.366   1.926  18.264  0.00  0.00    +0.000 C 
ATOM     21  S   UNL     1       4.153   2.620  19.741  0.00  0.00    +0.000 S 
ENDBRANCH  14  21
ENDBRANCH   1  17
TORSDOF 2
ENDMDL
MODEL 3
REMARK VINA RESULT:      -6.9      3.012      7.145
REMARK  Name = 
REMARK  3 active torsions:
REMARK  status: ('A' for Active; 'I' for Inactive)
REMARK    1  A    between atoms: C_1  and  S_2
REMARK    2  A    between atoms: S_2  and  C_3
REMARK    3  A    between atoms: C_6  and  N_7
REMARK                            x       y       z     vdW  Elec       q    Type
REMARK                         _______ _______ _______ _____ _____    ______ ____
ROOT
ATOM      1  N   UNL     1       1.755   8.192  19.644  0.00  0.00    +0.000 N 
ATOM      2  C   UNL     1       1.265   8.851  20.747  0.00  0.00    +0.000 C 
ATOM      3  O   UNL     1       1.194   8.502  21.915  0.00  0.00    +0.000 OA
ATOM      4  N   UNL     1       0.847  10.105  20.366  0.00  0.00    +0.000 N 
ATOM      5  C   UNL     1       0.888  10.291  18.942  0.00  0.00    +0.000 C 
ATOM      6  C   UNL     1      -0.531  10.296  18.362  0.00  0.00    +0.000 C 
ATOM      7  C   UNL     1      -1.285  11.574  18.736  0.00  0.00    +0.000 C 
ATOM      8  C   UNL     1      -0.503  12.827  18.353  0.00  0.00    +0.000 C 
ATOM      9  C   UNL     1       0.916  12.819  18.919  0.00  0.00    +0.000 C 
ATOM     10  C   UNL     1       1.670  11.543  18.547  0.00  0.00    +0.000 C 
ATOM     11  C   UNL     1       1.631   9.004  18.532  0.00  0.00    +0.000 C 
ATOM     12  O   UNL     1       1.961   8.772  17.374  0.00  0.00    +0.000 OA
ATOM     13  H   UNL     1       0.407  10.719  21.040  0.00  0.00    +0.000 HD
ENDROOT
BRANCH   1  17
ATOM     14  C   UNL     1       3.453   4.282  19.673  0.00  0.00    +0.000 A 
ATOM     15  C   UNL     1       4.017   5.296  18.903  0.00  0.00    +0.000 A 
ATOM     16  C   UNL     1       3.456   6.578  18.900  0.00  0.00    +0.000 A 
ATOM     17  C   UNL     1       2.321   6.886  19.666  0.00  0.00    +0.000 A 
ATOM     18  C   UNL     1       1.766   5.853  20.436  0.00  0.00    +0.000 A 
ATOM     19  C   UNL     1       2.315   4.563  20.428  0.00  0.00    +0.000 A 
BRANCH  14  21
ATOM     20  C   UNL     1       3.223   1.925  18.300  0.00  0.00    +0.000 C 
ATOM     21  S   UNL     1       4.144   2.642  19.687  0.00  0.00    +0.000 S 
ENDBRANCH  14  21
ENDBRANCH   1  17
TORSDOF 2
ENDMDL
MODEL 4
REMARK VINA RESULT:      -6.9      4.678      6.864
REMARK  Name = 
REMARK  3 active torsions:
REMARK  status: ('A' for Active; 'I' for Inactive)
REMARK    1  A    between atoms: C_1  and  S_2
REMARK    2  A    between atoms: S_2  and  C_3
REMARK    3  A    between atoms: C_6  and  N_7
REMARK                            x       y       z     vdW  Elec       q    Type
REMARK                         _______ _______ _______ _____ _____    ______ ____
ROOT
ATOM      1  N   UNL     1       4.155   4.350  17.528  0.00  0.00    +0.000 N 
ATOM      2  C   UNL     1       3.628   5.386  18.262  0.00  0.00    +0.000 C 
ATOM      3  O   UNL     1       3.810   6.591  18.181  0.00  0.00    +0.000 OA
ATOM      4  N   UNL     1       2.741   4.874  19.181  0.00  0.00    +0.000 N 
ATOM      5  C   UNL     1       2.754   3.438  19.217  0.00  0.00    +0.000 C 
ATOM      6  C   UNL     1       3.440   2.940  20.495  0.00  0.00    +0.000 C 
ATOM      7  C   UNL     1       2.575   3.191  21.731  0.00  0.00    +0.000 C 
ATOM      8  C   UNL     1       1.172   2.612  21.568  0.00  0.00    +0.000 C 
ATOM      9  C   UNL     1       0.490   3.096  20.290  0.00  0.00    +0.000 C 
ATOM     10  C   UNL     1       1.354   2.846  19.055  0.00  0.00    +0.000 C 
ATOM     11  C   UNL     1       3.637   3.153  17.987  0.00  0.00    +0.000 C 
ATOM     12  O   UNL     1       3.860   2.017  17.583  0.00  0.00    +0.000 OA
ATOM     13  H   UNL     1       2.291   5.489  19.848  0.00  0.00    +0.000 HD
ENDROOT
BRANCH   1  17
ATOM     14  C   UNL     1       6.916   4.845  14.318  0.00  0.00    +0.000 A 
ATOM     15  C   UNL     1       7.298   5.108  15.630  0.00  0.00    +0.000 A 
ATOM     16  C   UNL     1       6.387   4.941  16.680  0.00  0.00    +0.000 A 
ATOM     17  C   UNL     1       5.073   4.504  16.452  0.00  0.00    +0.000 A 
ATOM     18  C   UNL     1       4.705   4.242  15.124  0.00  0.00    +0.000 A 
ATOM     19  C   UNL     1       5.610   4.425  14.068  0.00  0.00    +0.000 A 
BRANCH  14  21
ATOM     20  C   UNL     1       7.212   4.048  11.716  0.00  0.00    +0.000 C 
ATOM     21  S   UNL     1       8.053   5.057  12.965  0.00  0.00    +0.000 S 
ENDBRANCH  14  21
ENDBRANCH   1  17
TORSDOF 2
ENDMDL
MODEL 5
REMARK VINA RESULT:      -6.9      0.122      1.079
REMARK  Name = 
REMARK  3 active torsions:
REMARK  status: ('A' for Active; 'I' for Inactive)
REMARK    1  A    between atoms: C_1  and  S_2
REMARK    2  A    between atoms: S_2  and  C_3
REMARK    3  A    between atoms: C_6  and  N_7
REMARK                            x       y       z     vdW  Elec       q    Type
REMARK                         _______ _______ _______ _____ _____    ______ ____
ROOT
ATOM      1  N   UNL     1       2.316   6.641  19.438  0.00  0.00    +0.000 N 
ATOM      2  C   UNL     1       3.296   6.503  18.483  0.00  0.00    +0.000 C 
ATOM      3  O   UNL     1       3.876   7.342  17.812  0.00  0.00    +0.000 OA
ATOM      4  N   UNL     1       3.625   5.171  18.373  0.00  0.00    +0.000 N 
ATOM      5  C   UNL     1       2.756   4.324  19.142  0.00  0.00    +0.000 C 
ATOM      6  C   UNL     1       1.808   3.551  18.218  0.00  0.00    +0.000 C 
ATOM      7  C   UNL     1       2.549   2.465  17.436  0.00  0.00    +0.000 C 
ATOM      8  C   UNL     1       3.337   1.539  18.358  0.00  0.00    +0.000 C 
ATOM      9  C   UNL     1       4.273   2.307  19.288  0.00  0.00    +0.000 C 
ATOM     10  C   UNL     1       3.534   3.392  20.070  0.00  0.00    +0.000 C 
ATOM     11  C   UNL     1       1.980   5.395  19.933  0.00  0.00    +0.000 C 
ATOM     12  O   UNL     1       1.156   5.111  20.797  0.00  0.00    +0.000 OA
ATOM     13  H   UNL     1       4.297   4.872  17.679  0.00  0.00    +0.000 HD
ENDROOT
BRANCH   1  17
ATOM     14  C   UNL     1       0.679  10.381  20.667  0.00  0.00    +0.000 A 
ATOM     15  C   UNL     1       0.933  10.123  19.323  0.00  0.00    +0.000 A 
ATOM     16  C   UNL     1       1.468   8.892  18.925  0.00  0.00    +0.000 A 
ATOM     17  C   UNL     1       1.762   7.884  19.856  0.00  0.00    +0.000 A 
ATOM     18  C   UNL     1       1.499   8.159  21.206  0.00  0.00    +0.000 A 
ATOM     19  C   UNL     1       0.979   9.397  21.609  0.00  0.00    +0.000 A 
BRANCH  14  21
ATOM     20  C   UNL     1      -0.919  11.380  22.652  0.00  0.00    +0.000 C 
ATOM     21  S   UNL     1       0.006  11.940  21.198  0.00  0.00    +0.000 S 
ENDBRANCH  14  21
ENDBRANCH   1  17
TORSDOF 2
ENDMDL
MODEL 6
REMARK VINA RESULT:      -6.9      0.770      1.424
REMARK  Name = 
REMARK  3 active torsions:
REMARK  status: ('A' for Active; 'I' for Inactive)
REMARK    1  A    between atoms: C_1  and  S_2
REMARK    2  A    between atoms: S_2  and  C_3
REMARK    3  A    between atoms: C_6  and  N_7
REMARK                            x       y       z     vdW  Elec       q    Type
REMARK                         _______ _______ _______ _____ _____    ______ ____
ROOT
ATOM      1  N   UNL     1       2.456   6.546  19.182  0.00  0.00    +0.000 N 
ATOM      2  C   UNL     1       3.531   6.319  18.356  0.00  0.00    +0.000 C 
ATOM      3  O   UNL     1       4.200   7.093  17.690  0.00  0.00    +0.000 OA
ATOM      4  N   UNL     1       3.840   4.978  18.387  0.00  0.00    +0.000 N 
ATOM      5  C   UNL     1       2.873   4.207  19.118  0.00  0.00    +0.000 C 
ATOM      6  C   UNL     1       2.014   3.376  18.157  0.00  0.00    +0.000 C 
ATOM      7  C   UNL     1       2.812   2.221  17.549  0.00  0.00    +0.000 C 
ATOM      8  C   UNL     1       3.473   1.360  18.622  0.00  0.00    +0.000 C 
ATOM      9  C   UNL     1       4.319   2.188  19.588  0.00  0.00    +0.000 C 
ATOM     10  C   UNL     1       3.523   3.341  20.196  0.00  0.00    +0.000 C 
ATOM     11  C   UNL     1       2.039   5.349  19.732  0.00  0.00    +0.000 C 
ATOM     12  O   UNL     1       1.119   5.146  20.518  0.00  0.00    +0.000 OA
ATOM     13  H   UNL     1       4.577   4.615  17.797  0.00  0.00    +0.000 HD
ENDROOT
BRANCH   1  17
ATOM     14  C   UNL     1       0.778  10.394  19.926  0.00  0.00    +0.000 A 
ATOM     15  C   UNL     1       1.133  10.011  18.636  0.00  0.00    +0.000 A 
ATOM     16  C   UNL     1       1.682   8.745  18.398  0.00  0.00    +0.000 A 
ATOM     17  C   UNL     1       1.887   7.826  19.438  0.00  0.00    +0.000 A 
ATOM     18  C   UNL     1       1.522   8.227  20.731  0.00  0.00    +0.000 A 
ATOM     19  C   UNL     1       0.989   9.501  20.976  0.00  0.00    +0.000 A 
BRANCH  14  21
ATOM     20  C   UNL     1      -0.892  12.213  18.744  0.00  0.00    +0.000 C 
ATOM     21  S   UNL     1       0.086  12.001  20.255  0.00  0.00    +0.000 S 
ENDBRANCH  14  21
ENDBRANCH   1  17
TORSDOF 2
ENDMDL
MODEL 7
REMARK VINA RESULT:      -6.9      1.492      1.684
REMARK  Name = 
REMARK  3 active torsions:
REMARK  status: ('A' for Active; 'I' for Inactive)
REMARK    1  A    between atoms: C_1  and  S_2
REMARK    2  A    between atoms: S_2  and  C_3
REMARK    3  A    between atoms: C_6  and  N_7
REMARK                            x       y       z     vdW  Elec       q    Type
REMARK                         _______ _______ _______ _____ _____    ______ ____
ROOT
ATOM      1  N   UNL     1       1.884   7.706  19.555  0.00  0.00    +0.000 N 
ATOM      2  C   UNL     1       2.451   7.925  18.322  0.00  0.00    +0.000 C 
ATOM      3  O   UNL     1       2.447   8.917  17.610  0.00  0.00    +0.000 OA
ATOM      4  N   UNL     1       3.137   6.795  17.941  0.00  0.00    +0.000 N 
ATOM      5  C   UNL     1       2.925   5.693  18.838  0.00  0.00    +0.000 C 
ATOM      6  C   UNL     1       2.022   4.639  18.187  0.00  0.00    +0.000 C 
ATOM      7  C   UNL     1       2.752   3.887  17.072  0.00  0.00    +0.000 C 
ATOM      8  C   UNL     1       4.071   3.293  17.558  0.00  0.00    +0.000 C 
ATOM      9  C   UNL     1       4.968   4.339  18.218  0.00  0.00    +0.000 C 
ATOM     10  C   UNL     1       4.241   5.091  19.331  0.00  0.00    +0.000 C 
ATOM     11  C   UNL     1       2.173   6.419  19.971  0.00  0.00    +0.000 C 
ATOM     12  O   UNL     1       1.850   5.860  21.014  0.00  0.00    +0.000 OA
ATOM     13  H   UNL     1       3.579   6.754  17.032  0.00  0.00    +0.000 HD
ENDROOT
BRANCH   1  17
ATOM     14  C   UNL     1      -0.360  10.574  21.772  0.00  0.00    +0.000 A 
ATOM     15  C   UNL     1       0.431   9.632  22.424  0.00  0.00    +0.000 A 
ATOM     16  C   UNL     1       1.166   8.694  21.690  0.00  0.00    +0.000 A 
ATOM     17  C   UNL     1       1.138   8.672  20.288  0.00  0.00    +0.000 A 
ATOM     18  C   UNL     1       0.338   9.629  19.646  0.00  0.00    +0.000 A 
ATOM     19  C   UNL     1      -0.414  10.558  20.378  0.00  0.00    +0.000 A 
BRANCH  14  21
ATOM     20  C   UNL     1      -0.419  13.276  22.207  0.00  0.00    +0.000 C 
ATOM     21  S   UNL     1      -1.311  11.771  22.683  0.00  0.00    +0.000 S 
ENDBRANCH  14  21
ENDBRANCH   1  17
TORSDOF 2
ENDMDL
MODEL 8
REMARK VINA RESULT:      -6.8      4.671      6.902
REMARK  Name = 
REMARK  3 active torsions:
REMARK  status: ('A' for Active; 'I' for Inactive)
REMARK    1  A    between atoms: C_1  and  S_2
REMARK    2  A    between atoms: S_2  and  C_3
REMARK    3  A    between atoms: C_6  and  N_7
REMARK                            x       y       z     vdW  Elec       q    Type
REMARK                         _______ _______ _______ _____ _____    ______ ____
ROOT
ATOM      1  N   UNL     1       4.160   4.377  17.540  0.00  0.00    +0.000 N 
ATOM      2  C   UNL     1       3.639   5.405  18.290  0.00  0.00    +0.000 C 
ATOM      3  O   UNL     1       3.827   6.610  18.226  0.00  0.00    +0.000 OA
ATOM      4  N   UNL     1       2.750   4.884  19.202  0.00  0.00    +0.000 N 
ATOM      5  C   UNL     1       2.754   3.448  19.216  0.00  0.00    +0.000 C 
ATOM      6  C   UNL     1       3.438   2.928  20.486  0.00  0.00    +0.000 C 
ATOM      7  C   UNL     1       2.575   3.165  21.726  0.00  0.00    +0.000 C 
ATOM      8  C   UNL     1       1.169   2.595  21.556  0.00  0.00    +0.000 C 
ATOM      9  C   UNL     1       0.489   3.102  20.285  0.00  0.00    +0.000 C 
ATOM     10  C   UNL     1       1.351   2.866  19.046  0.00  0.00    +0.000 C 
ATOM     11  C   UNL     1       3.635   3.177  17.981  0.00  0.00    +0.000 C 
ATOM     12  O   UNL     1       3.852   2.045  17.560  0.00  0.00    +0.000 OA
ATOM     13  H   UNL     1       2.303   5.492  19.877  0.00  0.00    +0.000 HD
ENDROOT
BRANCH   1  17
ATOM     14  C   UNL     1       6.899   4.842  14.307  0.00  0.00    +0.000 A 
ATOM     15  C   UNL     1       5.591   4.424  14.076  0.00  0.00    +0.000 A 
ATOM     16  C   UNL     1       4.696   4.275  15.142  0.00  0.00    +0.000 A 
ATOM     17  C   UNL     1       5.078   4.543  16.466  0.00  0.00    +0.000 A 
ATOM     18  C   UNL     1       6.399   4.965  16.680  0.00  0.00    +0.000 A 
ATOM     19  C   UNL     1       7.303   5.097  15.617  0.00  0.00    +0.000 A 
BRANCH  14  21
ATOM     20  C   UNL     1       7.194   4.071  11.697  0.00  0.00    +0.000 C 
ATOM     21  S   UNL     1       8.058   5.030  12.969  0.00  0.00    +0.000 S 
ENDBRANCH  14  21
ENDBRANCH   1  17
TORSDOF 2
ENDMDL
MODEL 9
REMARK VINA RESULT:      -6.8      1.493      1.971
REMARK  Name = 
REMARK  3 active torsions:
REMARK  status: ('A' for Active; 'I' for Inactive)
REMARK    1  A    between atoms: C_1  and  S_2
REMARK    2  A    between atoms: S_2  and  C_3
REMARK    3  A    between atoms: C_6  and  N_7
REMARK                            x       y       z     vdW  Elec       q    Type
REMARK                         _______ _______ _______ _____ _____    ______ ____
ROOT
ATOM      1  N   UNL     1       1.937   7.699  19.543  0.00  0.00    +0.000 N 
ATOM      2  C   UNL     1       2.502   7.927  18.310  0.00  0.00    +0.000 C 
ATOM      3  O   UNL     1       2.503   8.926  17.608  0.00  0.00    +0.000 OA
ATOM      4  N   UNL     1       3.180   6.796  17.916  0.00  0.00    +0.000 N 
ATOM      5  C   UNL     1       2.963   5.687  18.802  0.00  0.00    +0.000 C 
ATOM      6  C   UNL     1       2.051   4.645  18.143  0.00  0.00    +0.000 C 
ATOM      7  C   UNL     1       2.773   3.900  17.019  0.00  0.00    +0.000 C 
ATOM      8  C   UNL     1       4.090   3.293  17.495  0.00  0.00    +0.000 C 
ATOM      9  C   UNL     1       4.995   4.326  18.163  0.00  0.00    +0.000 C 
ATOM     10  C   UNL     1       4.275   5.071  19.286  0.00  0.00    +0.000 C 
ATOM     11  C   UNL     1       2.219   6.406  19.944  0.00  0.00    +0.000 C 
ATOM     12  O   UNL     1       1.894   5.839  20.982  0.00  0.00    +0.000 OA
ATOM     13  H   UNL     1       3.619   6.761  17.005  0.00  0.00    +0.000 HD
ENDROOT
BRANCH   1  17
ATOM     14  C   UNL     1      -0.261  10.611  21.747  0.00  0.00    +0.000 A 
ATOM     15  C   UNL     1      -0.314  10.584  20.356  0.00  0.00    +0.000 A 
ATOM     16  C   UNL     1       0.409   9.624  19.638  0.00  0.00    +0.000 A 
ATOM     17  C   UNL     1       1.199   8.662  20.286  0.00  0.00    +0.000 A 
ATOM     18  C   UNL     1       1.240   8.703  21.688  0.00  0.00    +0.000 A 
ATOM     19  C   UNL     1       0.532   9.675  22.409  0.00  0.00    +0.000 A 
BRANCH  14  21
ATOM     20  C   UNL     1      -2.239  12.466  21.369  0.00  0.00    +0.000 C 
ATOM     21  S   UNL     1      -1.165  11.827  22.682  0.00  0.00    +0.000 S 
ENDBRANCH  14  21
ENDBRANCH   1  17
TORSDOF 2
ENDMDL
