MODEL 1
REMARK VINA RESULT:      -8.0      0.000      0.000
REMARK  Name = 
REMARK  11 active torsions:
REMARK  status: ('A' for Active; 'I' for Inactive)
REMARK    1  A    between atoms: C_1  and  C_2
REMARK    2  A    between atoms: C_2  and  CA_3
REMARK    3  A    between atoms: CA_3  and  C_4
REMARK    4  A    between atoms: CA_3  and  N_6
REMARK    5  A    between atoms: C_4  and  O_5
REMARK    6  A    between atoms: C_7  and  C_9
REMARK    7  A    between atoms: C_12  and  O_13
REMARK    8  A    between atoms: O_13  and  C_14
REMARK    9  A    between atoms: C_14  and  C_15
REMARK   10  A    between atoms: C_16  and  C_17
REMARK   11  A    between atoms: C_25  and  C_26
REMARK                            x       y       z     vdW  Elec       q    Type
REMARK                         _______ _______ _______ _____ _____    ______ ____
ROOT
ATOM      1  C   UNL     1       1.218   9.830  19.280  0.00  0.00    +0.000 A 
ATOM      2  C   UNL     1       1.748   9.623  18.005  0.00  0.00    +0.000 A 
ATOM      3  C   UNL     1       2.381   8.410  17.720  0.00  0.00    +0.000 A 
ATOM      4  C   UNL     1       2.439   7.447  18.714  0.00  0.00    +0.000 A 
ATOM      5  N   UNL     1       1.935   7.619  19.954  0.00  0.00    +0.000 NA
ATOM      6  C   UNL     1       1.350   8.812  20.215  0.00  0.00    +0.000 A 
ENDROOT
BRANCH   1   8
ATOM      7  N   UNL     1      -0.394  10.965  20.701  0.00  0.00    +0.000 N 
ATOM      8  C   UNL     1       0.547  11.077  19.708  0.00  0.00    +0.000 C 
ATOM      9  O   UNL     1       0.867  12.143  19.192  0.00  0.00    +0.000 OA
ATOM     10  H   UNL     1      -0.616  10.071  21.119  0.00  0.00    +0.000 HD
BRANCH   7  11
ATOM     11  CA  UNL     1      -1.150  12.114  21.193  0.00  0.00    +0.000 C 
BRANCH  11  13
ATOM     12  C   UNL     1      -1.069  10.563  23.217  0.00  0.00    +0.000 C 
ATOM     13  C   UNL     1      -1.570  11.888  22.655  0.00  0.00    +0.000 C 
ENDBRANCH  11  13
BRANCH  11  14
ATOM     14  C   UNL     1      -2.367  12.335  20.278  0.00  0.00    +0.000 C 
BRANCH  14  15
ATOM     15  O   UNL     1      -2.056  13.245  19.219  0.00  0.00    +0.000 OA
ATOM     16  H   UNL     1      -2.493  14.090  19.429  0.00  0.00    +0.000 HD
ENDBRANCH  14  15
ENDBRANCH  11  14
ENDBRANCH   7  11
ENDBRANCH   1   8
BRANCH   4  17
ATOM     17  O   UNL     1       3.092   6.269  18.417  0.00  0.00    +0.000 OA
BRANCH  17  18
ATOM     18  C   UNL     1       2.311   5.132  18.809  0.00  0.00    +0.000 C 
BRANCH  18  19
ATOM     19  C   UNL     1       3.123   4.050  19.438  0.00  0.00    +0.000 A 
ATOM     20  C   UNL     1       4.401   3.547  19.008  0.00  0.00    +0.000 A 
ATOM     21  N   UNL     1       4.772   2.513  19.780  0.00  0.00    +0.000 NA
ATOM     22  O   UNL     1       3.785   2.346  20.722  0.00  0.00    +0.000 OA
ATOM     23  C   UNL     1       2.807   3.263  20.527  0.00  0.00    +0.000 A 
ATOM     24  C   UNL     1       1.671   3.213  21.468  0.00  0.00    +0.000 C 
BRANCH  20  25
ATOM     25  C   UNL     1       5.265   3.990  17.904  0.00  0.00    +0.000 A 
ATOM     26  C   UNL     1       4.920   3.764  16.564  0.00  0.00    +0.000 A 
ATOM     27  C   UNL     1       5.754   4.180  15.522  0.00  0.00    +0.000 A 
ATOM     28  C   UNL     1       6.934   4.861  15.804  0.00  0.00    +0.000 A 
ATOM     29  C   UNL     1       7.279   5.123  17.129  0.00  0.00    +0.000 A 
ATOM     30  C   UNL     1       6.454   4.687  18.171  0.00  0.00    +0.000 A 
ENDBRANCH  20  25
ENDBRANCH  18  19
ENDBRANCH  17  18
ENDBRANCH   4  17
TORSDOF 9
ENDMDL
MODEL 2
REMARK VINA RESULT:      -7.9      3.564      9.038
REMARK  Name = 
REMARK  11 active torsions:
REMARK  status: ('A' for Active; 'I' for Inactive)
REMARK    1  A    between atoms: C_1  and  C_2
REMARK    2  A    between atoms: C_2  and  CA_3
REMARK    3  A    between atoms: CA_3  and  C_4
REMARK    4  A    between atoms: CA_3  and  N_6
REMARK    5  A    between atoms: C_4  and  O_5
REMARK    6  A    between atoms: C_7  and  C_9
REMARK    7  A    between atoms: C_12  and  O_13
REMARK    8  A    between atoms: O_13  and  C_14
REMARK    9  A    between atoms: C_14  and  C_15
REMARK   10  A    between atoms: C_16  and  C_17
REMARK   11  A    between atoms: C_25  and  C_26
REMARK                            x       y       z     vdW  Elec       q    Type
REMARK                         _______ _______ _______ _____ _____    ______ ____
ROOT
ATOM      1  C   UNL     1       6.324   4.141  15.026  0.00  0.00    +0.000 A 
ATOM      2  C   UNL     1       7.440   4.512  15.779  0.00  0.00    +0.000 A 
ATOM      3  C   UNL     1       7.310   4.652  17.163  0.00  0.00    +0.000 A 
ATOM      4  C   UNL     1       6.077   4.394  17.740  0.00  0.00    +0.000 A 
ATOM      5  N   UNL     1       4.983   4.033  17.037  0.00  0.00    +0.000 NA
ATOM      6  C   UNL     1       5.126   3.930  15.695  0.00  0.00    +0.000 A 
ENDROOT
BRANCH   1   8
ATOM      7  N   UNL     1       5.387   3.143  13.018  0.00  0.00    +0.000 N 
ATOM      8  C   UNL     1       6.331   3.983  13.555  0.00  0.00    +0.000 C 
ATOM      9  O   UNL     1       7.140   4.613  12.883  0.00  0.00    +0.000 OA
ATOM     10  H   UNL     1       4.719   2.657  13.603  0.00  0.00    +0.000 HD
BRANCH   7  11
ATOM     11  CA  UNL     1       5.304   2.877  11.584  0.00  0.00    +0.000 C 
BRANCH  11  13
ATOM     12  C   UNL     1       3.598   4.009  10.062  0.00  0.00    +0.000 C 
ATOM     13  C   UNL     1       3.841   2.935  11.115  0.00  0.00    +0.000 C 
ENDBRANCH  11  13
BRANCH  11  14
ATOM     14  C   UNL     1       5.941   1.506  11.297  0.00  0.00    +0.000 C 
BRANCH  14  15
ATOM     15  O   UNL     1       7.360   1.617  11.159  0.00  0.00    +0.000 OA
ATOM     16  H   UNL     1       7.688   2.103  11.936  0.00  0.00    +0.000 HD
ENDBRANCH  14  15
ENDBRANCH  11  14
ENDBRANCH   7  11
ENDBRANCH   1   8
BRANCH   4  17
ATOM     17  O   UNL     1       5.968   4.564  19.104  0.00  0.00    +0.000 OA
BRANCH  17  18
ATOM     18  C   UNL     1       4.976   5.549  19.424  0.00  0.00    +0.000 C 
BRANCH  18  19
ATOM     19  C   UNL     1       3.653   4.957  19.778  0.00  0.00    +0.000 A 
ATOM     20  C   UNL     1       2.385   5.629  19.870  0.00  0.00    +0.000 A 
ATOM     21  N   UNL     1       1.441   4.776  20.301  0.00  0.00    +0.000 NA
ATOM     22  O   UNL     1       2.053   3.556  20.463  0.00  0.00    +0.000 OA
ATOM     23  C   UNL     1       3.366   3.657  20.145  0.00  0.00    +0.000 A 
ATOM     24  C   UNL     1       4.162   2.420  20.268  0.00  0.00    +0.000 C 
BRANCH  20  25
ATOM     25  C   UNL     1       2.038   7.029  19.586  0.00  0.00    +0.000 A 
ATOM     26  C   UNL     1       1.475   7.861  20.564  0.00  0.00    +0.000 A 
ATOM     27  C   UNL     1       1.140   9.188  20.280  0.00  0.00    +0.000 A 
ATOM     28  C   UNL     1       1.393   9.716  19.018  0.00  0.00    +0.000 A 
ATOM     29  C   UNL     1       1.982   8.914  18.041  0.00  0.00    +0.000 A 
ATOM     30  C   UNL     1       2.297   7.580  18.321  0.00  0.00    +0.000 A 
ENDBRANCH  20  25
ENDBRANCH  18  19
ENDBRANCH  17  18
ENDBRANCH   4  17
TORSDOF 9
ENDMDL
MODEL 3
REMARK VINA RESULT:      -7.9      1.547      3.456
REMARK  Name = 
REMARK  11 active torsions:
REMARK  status: ('A' for Active; 'I' for Inactive)
REMARK    1  A    between atoms: C_1  and  C_2
REMARK    2  A    between atoms: C_2  and  CA_3
REMARK    3  A    between atoms: CA_3  and  C_4
REMARK    4  A    between atoms: CA_3  and  N_6
REMARK    5  A    between atoms: C_4  and  O_5
REMARK    6  A    between atoms: C_7  and  C_9
REMARK    7  A    between atoms: C_12  and  O_13
REMARK    8  A    between atoms: O_13  and  C_14
REMARK    9  A    between atoms: C_14  and  C_15
REMARK   10  A    between atoms: C_16  and  C_17
REMARK   11  A    between atoms: C_25  and  C_26
REMARK                            x       y       z     vdW  Elec       q    Type
REMARK                         _______ _______ _______ _____ _____    ______ ____
ROOT
ATOM      1  C   UNL     1       1.163   9.908  19.596  0.00  0.00    +0.000 A 
ATOM      2  C   UNL     1       1.395   8.753  20.345  0.00  0.00    +0.000 A 
ATOM      3  C   UNL     1       1.946   7.633  19.717  0.00  0.00    +0.000 A 
ATOM      4  C   UNL     1       2.264   7.721  18.371  0.00  0.00    +0.000 A 
ATOM      5  N   UNL     1       2.053   8.825  17.623  0.00  0.00    +0.000 NA
ATOM      6  C   UNL     1       1.493   9.888  18.247  0.00  0.00    +0.000 A 
ENDROOT
BRANCH   1   8
ATOM      7  N   UNL     1      -0.729  11.061  20.592  0.00  0.00    +0.000 N 
ATOM      8  C   UNL     1       0.565  11.145  20.142  0.00  0.00    +0.000 C 
ATOM      9  O   UNL     1       1.238  12.169  20.197  0.00  0.00    +0.000 OA
ATOM     10  H   UNL     1      -1.247  10.193  20.550  0.00  0.00    +0.000 HD
BRANCH   7  11
ATOM     11  CA  UNL     1      -1.447  12.216  21.126  0.00  0.00    +0.000 C 
BRANCH  11  13
ATOM     12  C   UNL     1      -1.162  10.734  23.183  0.00  0.00    +0.000 C 
ATOM     13  C   UNL     1      -1.827  11.973  22.596  0.00  0.00    +0.000 C 
ENDBRANCH  11  13
BRANCH  11  14
ATOM     14  C   UNL     1      -2.686  12.477  20.252  0.00  0.00    +0.000 C 
BRANCH  14  15
ATOM     15  O   UNL     1      -2.312  12.958  18.958  0.00  0.00    +0.000 OA
ATOM     16  H   UNL     1      -1.393  12.676  18.802  0.00  0.00    +0.000 HD
ENDBRANCH  14  15
ENDBRANCH  11  14
ENDBRANCH   7  11
ENDBRANCH   1   8
BRANCH   4  17
ATOM     17  O   UNL     1       2.783   6.596  17.768  0.00  0.00    +0.000 OA
BRANCH  17  18
ATOM     18  C   UNL     1       4.168   6.775  17.441  0.00  0.00    +0.000 C 
BRANCH  18  19
ATOM     19  C   UNL     1       5.063   5.791  18.118  0.00  0.00    +0.000 A 
ATOM     20  C   UNL     1       4.679   4.634  18.882  0.00  0.00    +0.000 A 
ATOM     21  N   UNL     1       5.767   4.046  19.405  0.00  0.00    +0.000 NA
ATOM     22  O   UNL     1       6.854   4.770  18.977  0.00  0.00    +0.000 OA
ATOM     23  C   UNL     1       6.440   5.804  18.205  0.00  0.00    +0.000 A 
ATOM     24  C   UNL     1       7.500   6.678  17.665  0.00  0.00    +0.000 C 
BRANCH  20  25
ATOM     25  C   UNL     1       3.343   4.080  19.145  0.00  0.00    +0.000 A 
ATOM     26  C   UNL     1       2.676   4.312  20.356  0.00  0.00    +0.000 A 
ATOM     27  C   UNL     1       1.410   3.771  20.600  0.00  0.00    +0.000 A 
ATOM     28  C   UNL     1       0.775   3.014  19.621  0.00  0.00    +0.000 A 
ATOM     29  C   UNL     1       1.409   2.798  18.397  0.00  0.00    +0.000 A 
ATOM     30  C   UNL     1       2.685   3.323  18.163  0.00  0.00    +0.000 A 
ENDBRANCH  20  25
ENDBRANCH  18  19
ENDBRANCH  17  18
ENDBRANCH   4  17
TORSDOF 9
ENDMDL
MODEL 4
REMARK VINA RESULT:      -7.8      1.225      1.716
REMARK  Name = 
REMARK  11 active torsions:
REMARK  status: ('A' for Active; 'I' for Inactive)
REMARK    1  A    between atoms: C_1  and  C_2
REMARK    2  A    between atoms: C_2  and  CA_3
REMARK    3  A    between atoms: CA_3  and  C_4
REMARK    4  A    between atoms: CA_3  and  N_6
REMARK    5  A    between atoms: C_4  and  O_5
REMARK    6  A    between atoms: C_7  and  C_9
REMARK    7  A    between atoms: C_12  and  O_13
REMARK    8  A    between atoms: O_13  and  C_14
REMARK    9  A    between atoms: C_14  and  C_15
REMARK   10  A    between atoms: C_16  and  C_17
REMARK   11  A    between atoms: C_25  and  C_26
REMARK                            x       y       z     vdW  Elec       q    Type
REMARK                         _______ _______ _______ _____ _____    ______ ____
ROOT
ATOM      1  C   UNL     1       0.717   9.866  18.956  0.00  0.00    +0.000 A 
ATOM      2  C   UNL     1       1.378   9.330  17.849  0.00  0.00    +0.000 A 
ATOM      3  C   UNL     1       2.188   8.205  18.019  0.00  0.00    +0.000 A 
ATOM      4  C   UNL     1       2.287   7.648  19.284  0.00  0.00    +0.000 A 
ATOM      5  N   UNL     1       1.658   8.143  20.371  0.00  0.00    +0.000 NA
ATOM      6  C   UNL     1       0.901   9.250  20.186  0.00  0.00    +0.000 A 
ENDROOT
BRANCH   1   8
ATOM      7  N   UNL     1      -1.501  10.857  19.017  0.00  0.00    +0.000 N 
ATOM      8  C   UNL     1      -0.148  11.064  18.906  0.00  0.00    +0.000 C 
ATOM      9  O   UNL     1       0.363  12.174  18.798  0.00  0.00    +0.000 OA
ATOM     10  H   UNL     1      -1.885   9.928  19.127  0.00  0.00    +0.000 HD
BRANCH   7  11
ATOM     11  CA  UNL     1      -2.466  11.952  18.953  0.00  0.00    +0.000 C 
BRANCH  11  13
ATOM     12  C   UNL     1      -2.206  13.867  20.619  0.00  0.00    +0.000 C 
ATOM     13  C   UNL     1      -2.772  12.475  20.366  0.00  0.00    +0.000 C 
ENDBRANCH  11  13
BRANCH  11  14
ATOM     14  C   UNL     1      -3.736  11.452  18.242  0.00  0.00    +0.000 C 
BRANCH  14  15
ATOM     15  O   UNL     1      -3.786  11.918  16.890  0.00  0.00    +0.000 OA
ATOM     16  H   UNL     1      -3.603  11.154  16.316  0.00  0.00    +0.000 HD
ENDBRANCH  14  15
ENDBRANCH  11  14
ENDBRANCH   7  11
ENDBRANCH   1   8
BRANCH   4  17
ATOM     17  O   UNL     1       3.113   6.554  19.432  0.00  0.00    +0.000 OA
BRANCH  17  18
ATOM     18  C   UNL     1       2.396   5.331  19.219  0.00  0.00    +0.000 C 
BRANCH  18  19
ATOM     19  C   UNL     1       3.149   4.122  19.663  0.00  0.00    +0.000 A 
ATOM     20  C   UNL     1       4.370   3.596  19.112  0.00  0.00    +0.000 A 
ATOM     21  N   UNL     1       4.693   2.445  19.724  0.00  0.00    +0.000 NA
ATOM     22  O   UNL     1       3.733   2.222  20.682  0.00  0.00    +0.000 OA
ATOM     23  C   UNL     1       2.818   3.221  20.654  0.00  0.00    +0.000 A 
ATOM     24  C   UNL     1       1.717   3.123  21.633  0.00  0.00    +0.000 C 
BRANCH  20  25
ATOM     25  C   UNL     1       5.221   4.122  18.035  0.00  0.00    +0.000 A 
ATOM     26  C   UNL     1       6.395   4.840  18.309  0.00  0.00    +0.000 A 
ATOM     27  C   UNL     1       7.191   5.345  17.277  0.00  0.00    +0.000 A 
ATOM     28  C   UNL     1       6.845   5.110  15.950  0.00  0.00    +0.000 A 
ATOM     29  C   UNL     1       5.698   4.372  15.658  0.00  0.00    +0.000 A 
ATOM     30  C   UNL     1       4.891   3.886  16.692  0.00  0.00    +0.000 A 
ENDBRANCH  20  25
ENDBRANCH  18  19
ENDBRANCH  17  18
ENDBRANCH   4  17
TORSDOF 9
ENDMDL
MODEL 5
REMARK VINA RESULT:      -7.7      1.434      1.719
REMARK  Name = 
REMARK  11 active torsions:
REMARK  status: ('A' for Active; 'I' for Inactive)
REMARK    1  A    between atoms: C_1  and  C_2
REMARK    2  A    between atoms: C_2  and  CA_3
REMARK    3  A    between atoms: CA_3  and  C_4
REMARK    4  A    between atoms: CA_3  and  N_6
REMARK    5  A    between atoms: C_4  and  O_5
REMARK    6  A    between atoms: C_7  and  C_9
REMARK    7  A    between atoms: C_12  and  O_13
REMARK    8  A    between atoms: O_13  and  C_14
REMARK    9  A    between atoms: C_14  and  C_15
REMARK   10  A    between atoms: C_16  and  C_17
REMARK   11  A    between atoms: C_25  and  C_26
REMARK                            x       y       z     vdW  Elec       q    Type
REMARK                         _______ _______ _______ _____ _____    ______ ____
ROOT
ATOM      1  C   UNL     1       0.475   9.995  18.999  0.00  0.00    +0.000 A 
ATOM      2  C   UNL     1       1.251   9.440  17.979  0.00  0.00    +0.000 A 
ATOM      3  C   UNL     1       2.066   8.342  18.266  0.00  0.00    +0.000 A 
ATOM      4  C   UNL     1       2.055   7.830  19.553  0.00  0.00    +0.000 A 
ATOM      5  N   UNL     1       1.314   8.345  20.557  0.00  0.00    +0.000 NA
ATOM      6  C   UNL     1       0.553   9.425  20.262  0.00  0.00    +0.000 A 
ENDROOT
BRANCH   1   8
ATOM      7  N   UNL     1      -1.745  10.981  19.072  0.00  0.00    +0.000 N 
ATOM      8  C   UNL     1      -0.407  11.169  18.825  0.00  0.00    +0.000 C 
ATOM      9  O   UNL     1       0.078  12.247  18.501  0.00  0.00    +0.000 OA
ATOM     10  H   UNL     1      -2.106  10.081  19.359  0.00  0.00    +0.000 HD
BRANCH   7  11
ATOM     11  CA  UNL     1      -2.727  12.050  18.908  0.00  0.00    +0.000 C 
BRANCH  11  13
ATOM     12  C   UNL     1      -2.328  13.750  20.768  0.00  0.00    +0.000 C 
ATOM     13  C   UNL     1      -3.172  12.578  20.282  0.00  0.00    +0.000 C 
ENDBRANCH  11  13
BRANCH  11  14
ATOM     14  C   UNL     1      -3.915  11.511  18.092  0.00  0.00    +0.000 C 
BRANCH  14  15
ATOM     15  O   UNL     1      -3.797  11.870  16.713  0.00  0.00    +0.000 OA
ATOM     16  H   UNL     1      -3.776  11.042  16.201  0.00  0.00    +0.000 HD
ENDBRANCH  14  15
ENDBRANCH  11  14
ENDBRANCH   7  11
ENDBRANCH   1   8
BRANCH   4  17
ATOM     17  O   UNL     1       2.887   6.763  19.817  0.00  0.00    +0.000 OA
BRANCH  17  18
ATOM     18  C   UNL     1       2.321   5.534  19.341  0.00  0.00    +0.000 C 
BRANCH  18  19
ATOM     19  C   UNL     1       3.123   4.334  19.716  0.00  0.00    +0.000 A 
ATOM     20  C   UNL     1       4.471   4.019  19.323  0.00  0.00    +0.000 A 
ATOM     21  N   UNL     1       4.816   2.808  19.790  0.00  0.00    +0.000 NA
ATOM     22  O   UNL     1       3.741   2.337  20.505  0.00  0.00    +0.000 OA
ATOM     23  C   UNL     1       2.735   3.244  20.470  0.00  0.00    +0.000 A 
ATOM     24  C   UNL     1       1.505   2.880  21.199  0.00  0.00    +0.000 C 
BRANCH  20  25
ATOM     25  C   UNL     1       5.425   4.799  18.522  0.00  0.00    +0.000 A 
ATOM     26  C   UNL     1       5.229   5.019  17.151  0.00  0.00    +0.000 A 
ATOM     27  C   UNL     1       6.148   5.754  16.397  0.00  0.00    +0.000 A 
ATOM     28  C   UNL     1       7.266   6.311  17.010  0.00  0.00    +0.000 A 
ATOM     29  C   UNL     1       7.463   6.130  18.379  0.00  0.00    +0.000 A 
ATOM     30  C   UNL     1       6.553   5.376  19.128  0.00  0.00    +0.000 A 
ENDBRANCH  20  25
ENDBRANCH  18  19
ENDBRANCH  17  18
ENDBRANCH   4  17
TORSDOF 9
ENDMDL
MODEL 6
REMARK VINA RESULT:      -7.7      1.835      3.649
REMARK  Name = 
REMARK  11 active torsions:
REMARK  status: ('A' for Active; 'I' for Inactive)
REMARK    1  A    between atoms: C_1  and  C_2
REMARK    2  A    between atoms: C_2  and  CA_3
REMARK    3  A    between atoms: CA_3  and  C_4
REMARK    4  A    between atoms: CA_3  and  N_6
REMARK    5  A    between atoms: C_4  and  O_5
REMARK    6  A    between atoms: C_7  and  C_9
REMARK    7  A    between atoms: C_12  and  O_13
REMARK    8  A    between atoms: O_13  and  C_14
REMARK    9  A    between atoms: C_14  and  C_15
REMARK   10  A    between atoms: C_16  and  C_17
REMARK   11  A    between atoms: C_25  and  C_26
REMARK                            x       y       z     vdW  Elec       q    Type
REMARK                         _______ _______ _______ _____ _____    ______ ____
ROOT
ATOM      1  C   UNL     1       0.949   9.877  19.906  0.00  0.00    +0.000 A 
ATOM      2  C   UNL     1       1.297   8.728  20.620  0.00  0.00    +0.000 A 
ATOM      3  C   UNL     1       1.885   7.658  19.942  0.00  0.00    +0.000 A 
ATOM      4  C   UNL     1       2.121   7.787  18.583  0.00  0.00    +0.000 A 
ATOM      5  N   UNL     1       1.797   8.885  17.868  0.00  0.00    +0.000 NA
ATOM      6  C   UNL     1       1.204   9.898  18.542  0.00  0.00    +0.000 A 
ENDROOT
BRANCH   1   8
ATOM      7  N   UNL     1      -0.784  11.579  19.844  0.00  0.00    +0.000 N 
ATOM      8  C   UNL     1       0.302  11.063  20.507  0.00  0.00    +0.000 C 
ATOM      9  O   UNL     1       0.730  11.516  21.563  0.00  0.00    +0.000 OA
ATOM     10  H   UNL     1      -1.124  11.164  18.986  0.00  0.00    +0.000 HD
BRANCH   7  11
ATOM     11  CA  UNL     1      -1.495  12.765  20.314  0.00  0.00    +0.000 C 
BRANCH  11  13
ATOM     12  C   UNL     1      -3.279  11.736  18.808  0.00  0.00    +0.000 C 
ATOM     13  C   UNL     1      -2.995  12.648  19.995  0.00  0.00    +0.000 C 
ENDBRANCH  11  13
BRANCH  11  14
ATOM     14  C   UNL     1      -0.868  14.010  19.662  0.00  0.00    +0.000 C 
BRANCH  14  15
ATOM     15  O   UNL     1      -0.631  13.795  18.267  0.00  0.00    +0.000 OA
ATOM     16  H   UNL     1       0.098  13.155  18.196  0.00  0.00    +0.000 HD
ENDBRANCH  14  15
ENDBRANCH  11  14
ENDBRANCH   7  11
ENDBRANCH   1   8
BRANCH   4  17
ATOM     17  O   UNL     1       2.678   6.707  17.931  0.00  0.00    +0.000 OA
BRANCH  17  18
ATOM     18  C   UNL     1       4.058   6.945  17.621  0.00  0.00    +0.000 C 
BRANCH  18  19
ATOM     19  C   UNL     1       4.969   5.891  18.154  0.00  0.00    +0.000 A 
ATOM     20  C   UNL     1       4.607   4.683  18.846  0.00  0.00    +0.000 A 
ATOM     21  N   UNL     1       5.712   4.032  19.245  0.00  0.00    +0.000 NA
ATOM     22  O   UNL     1       6.787   4.766  18.804  0.00  0.00    +0.000 OA
ATOM     23  C   UNL     1       6.350   5.868  18.148  0.00  0.00    +0.000 A 
ATOM     24  C   UNL     1       7.394   6.762  17.610  0.00  0.00    +0.000 C 
BRANCH  20  25
ATOM     25  C   UNL     1       3.278   4.136  19.154  0.00  0.00    +0.000 A 
ATOM     26  C   UNL     1       2.543   3.411  18.205  0.00  0.00    +0.000 A 
ATOM     27  C   UNL     1       1.275   2.904  18.505  0.00  0.00    +0.000 A 
ATOM     28  C   UNL     1       0.734   3.087  19.774  0.00  0.00    +0.000 A 
ATOM     29  C   UNL     1       1.463   3.778  20.741  0.00  0.00    +0.000 A 
ATOM     30  C   UNL     1       2.723   4.303  20.432  0.00  0.00    +0.000 A 
ENDBRANCH  20  25
ENDBRANCH  18  19
ENDBRANCH  17  18
ENDBRANCH   4  17
TORSDOF 9
ENDMDL
MODEL 7
REMARK VINA RESULT:      -7.7      1.576      3.324
REMARK  Name = 
REMARK  11 active torsions:
REMARK  status: ('A' for Active; 'I' for Inactive)
REMARK    1  A    between atoms: C_1  and  C_2
REMARK    2  A    between atoms: C_2  and  CA_3
REMARK    3  A    between atoms: CA_3  and  C_4
REMARK    4  A    between atoms: CA_3  and  N_6
REMARK    5  A    between atoms: C_4  and  O_5
REMARK    6  A    between atoms: C_7  and  C_9
REMARK    7  A    between atoms: C_12  and  O_13
REMARK    8  A    between atoms: O_13  and  C_14
REMARK    9  A    between atoms: C_14  and  C_15
REMARK   10  A    between atoms: C_16  and  C_17
REMARK   11  A    between atoms: C_25  and  C_26
REMARK                            x       y       z     vdW  Elec       q    Type
REMARK                         _______ _______ _______ _____ _____    ______ ____
ROOT
ATOM      1  C   UNL     1       1.157   9.893  19.820  0.00  0.00    +0.000 A 
ATOM      2  C   UNL     1       1.438   9.951  18.454  0.00  0.00    +0.000 A 
ATOM      3  C   UNL     1       1.947   8.818  17.814  0.00  0.00    +0.000 A 
ATOM      4  C   UNL     1       2.134   7.667  18.561  0.00  0.00    +0.000 A 
ATOM      5  N   UNL     1       1.869   7.581  19.882  0.00  0.00    +0.000 NA
ATOM      6  C   UNL     1       1.403   8.699  20.486  0.00  0.00    +0.000 A 
ENDROOT
BRANCH   1   8
ATOM      7  N   UNL     1      -0.573  11.549  20.228  0.00  0.00    +0.000 N 
ATOM      8  C   UNL     1       0.639  11.030  20.610  0.00  0.00    +0.000 C 
ATOM      9  O   UNL     1       1.279  11.440  21.572  0.00  0.00    +0.000 OA
ATOM     10  H   UNL     1      -1.085  11.169  19.442  0.00  0.00    +0.000 HD
BRANCH   7  11
ATOM     11  CA  UNL     1      -1.183  12.691  20.905  0.00  0.00    +0.000 C 
BRANCH  11  13
ATOM     12  C   UNL     1      -1.920  11.650  23.114  0.00  0.00    +0.000 C 
ATOM     13  C   UNL     1      -2.363  12.226  21.774  0.00  0.00    +0.000 C 
ENDBRANCH  11  13
BRANCH  11  14
ATOM     14  C   UNL     1      -1.624  13.717  19.846  0.00  0.00    +0.000 C 
BRANCH  14  15
ATOM     15  O   UNL     1      -1.077  13.401  18.563  0.00  0.00    +0.000 OA
ATOM     16  H   UNL     1      -0.495  12.629  18.681  0.00  0.00    +0.000 HD
ENDBRANCH  14  15
ENDBRANCH  11  14
ENDBRANCH   7  11
ENDBRANCH   1   8
BRANCH   4  17
ATOM     17  O   UNL     1       2.661   6.570  17.914  0.00  0.00    +0.000 OA
BRANCH  17  18
ATOM     18  C   UNL     1       4.034   6.787  17.562  0.00  0.00    +0.000 C 
BRANCH  18  19
ATOM     19  C   UNL     1       4.957   5.767  18.140  0.00  0.00    +0.000 A 
ATOM     20  C   UNL     1       4.607   4.569  18.855  0.00  0.00    +0.000 A 
ATOM     21  N   UNL     1       5.717   3.953  19.294  0.00  0.00    +0.000 NA
ATOM     22  O   UNL     1       6.785   4.701  18.858  0.00  0.00    +0.000 OA
ATOM     23  C   UNL     1       6.338   5.776  18.165  0.00  0.00    +0.000 A 
ATOM     24  C   UNL     1       7.373   6.679  17.627  0.00  0.00    +0.000 C 
BRANCH  20  25
ATOM     25  C   UNL     1       3.284   4.000  19.148  0.00  0.00    +0.000 A 
ATOM     26  C   UNL     1       2.600   3.208  18.214  0.00  0.00    +0.000 A 
ATOM     27  C   UNL     1       1.337   2.681  18.499  0.00  0.00    +0.000 A 
ATOM     28  C   UNL     1       0.750   2.909  19.740  0.00  0.00    +0.000 A 
ATOM     29  C   UNL     1       1.428   3.668  20.694  0.00  0.00    +0.000 A 
ATOM     30  C   UNL     1       2.682   4.213  20.398  0.00  0.00    +0.000 A 
ENDBRANCH  20  25
ENDBRANCH  18  19
ENDBRANCH  17  18
ENDBRANCH   4  17
TORSDOF 9
ENDMDL
MODEL 8
REMARK VINA RESULT:      -7.7      0.726      1.234
REMARK  Name = 
REMARK  11 active torsions:
REMARK  status: ('A' for Active; 'I' for Inactive)
REMARK    1  A    between atoms: C_1  and  C_2
REMARK    2  A    between atoms: C_2  and  CA_3
REMARK    3  A    between atoms: CA_3  and  C_4
REMARK    4  A    between atoms: CA_3  and  N_6
REMARK    5  A    between atoms: C_4  and  O_5
REMARK    6  A    between atoms: C_7  and  C_9
REMARK    7  A    between atoms: C_12  and  O_13
REMARK    8  A    between atoms: O_13  and  C_14
REMARK    9  A    between atoms: C_14  and  C_15
REMARK   10  A    between atoms: C_16  and  C_17
REMARK   11  A    between atoms: C_25  and  C_26
REMARK                            x       y       z     vdW  Elec       q    Type
REMARK                         _______ _______ _______ _____ _____    ______ ____
ROOT
ATOM      1  C   UNL     1       1.018   9.946  19.420  0.00  0.00    +0.000 A 
ATOM      2  C   UNL     1       1.444   9.726  18.109  0.00  0.00    +0.000 A 
ATOM      3  C   UNL     1       2.100   8.532  17.799  0.00  0.00    +0.000 A 
ATOM      4  C   UNL     1       2.284   7.598  18.806  0.00  0.00    +0.000 A 
ATOM      5  N   UNL     1       1.881   7.784  20.081  0.00  0.00    +0.000 NA
ATOM      6  C   UNL     1       1.272   8.960  20.363  0.00  0.00    +0.000 A 
ENDROOT
BRANCH   1   8
ATOM      7  N   UNL     1      -0.557  11.044  20.910  0.00  0.00    +0.000 N 
ATOM      8  C   UNL     1       0.335  11.177  19.875  0.00  0.00    +0.000 C 
ATOM      9  O   UNL     1       0.603  12.248  19.343  0.00  0.00    +0.000 OA
ATOM     10  H   UNL     1      -0.736  10.146  21.340  0.00  0.00    +0.000 HD
BRANCH   7  11
ATOM     11  CA  UNL     1      -1.320  12.174  21.434  0.00  0.00    +0.000 C 
BRANCH  11  13
ATOM     12  C   UNL     1      -2.479  13.074  23.520  0.00  0.00    +0.000 C 
ATOM     13  C   UNL     1      -1.781  11.885  22.872  0.00  0.00    +0.000 C 
ENDBRANCH  11  13
BRANCH  11  14
ATOM     14  C   UNL     1      -2.510  12.445  20.497  0.00  0.00    +0.000 C 
BRANCH  14  15
ATOM     15  O   UNL     1      -2.216  13.507  19.584  0.00  0.00    +0.000 OA
ATOM     16  H   UNL     1      -1.505  14.039  19.983  0.00  0.00    +0.000 HD
ENDBRANCH  14  15
ENDBRANCH  11  14
ENDBRANCH   7  11
ENDBRANCH   1   8
BRANCH   4  17
ATOM     17  O   UNL     1       2.957   6.440  18.481  0.00  0.00    +0.000 OA
BRANCH  17  18
ATOM     18  C   UNL     1       3.220   5.649  19.649  0.00  0.00    +0.000 C 
BRANCH  18  19
ATOM     19  C   UNL     1       3.206   4.182  19.380  0.00  0.00    +0.000 A 
ATOM     20  C   UNL     1       3.991   3.457  18.416  0.00  0.00    +0.000 A 
ATOM     21  N   UNL     1       3.634   2.163  18.411  0.00  0.00    +0.000 NA
ATOM     22  O   UNL     1       2.658   2.016  19.368  0.00  0.00    +0.000 OA
ATOM     23  C   UNL     1       2.407   3.213  19.952  0.00  0.00    +0.000 A 
ATOM     24  C   UNL     1       1.376   3.217  21.009  0.00  0.00    +0.000 C 
BRANCH  20  25
ATOM     25  C   UNL     1       5.039   3.937  17.504  0.00  0.00    +0.000 A 
ATOM     26  C   UNL     1       6.288   4.363  17.976  0.00  0.00    +0.000 A 
ATOM     27  C   UNL     1       7.274   4.827  17.099  0.00  0.00    +0.000 A 
ATOM     28  C   UNL     1       7.037   4.840  15.729  0.00  0.00    +0.000 A 
ATOM     29  C   UNL     1       5.812   4.391  15.237  0.00  0.00    +0.000 A 
ATOM     30  C   UNL     1       4.819   3.947  16.117  0.00  0.00    +0.000 A 
ENDBRANCH  20  25
ENDBRANCH  18  19
ENDBRANCH  17  18
ENDBRANCH   4  17
TORSDOF 9
ENDMDL
MODEL 9
REMARK VINA RESULT:      -7.6      1.534      3.371
REMARK  Name = 
REMARK  11 active torsions:
REMARK  status: ('A' for Active; 'I' for Inactive)
REMARK    1  A    between atoms: C_1  and  C_2
REMARK    2  A    between atoms: C_2  and  CA_3
REMARK    3  A    between atoms: CA_3  and  C_4
REMARK    4  A    between atoms: CA_3  and  N_6
REMARK    5  A    between atoms: C_4  and  O_5
REMARK    6  A    between atoms: C_7  and  C_9
REMARK    7  A    between atoms: C_12  and  O_13
REMARK    8  A    between atoms: O_13  and  C_14
REMARK    9  A    between atoms: C_14  and  C_15
REMARK   10  A    between atoms: C_16  and  C_17
REMARK   11  A    between atoms: C_25  and  C_26
REMARK                            x       y       z     vdW  Elec       q    Type
REMARK                         _______ _______ _______ _____ _____    ______ ____
ROOT
ATOM      1  C   UNL     1       1.181  10.056  19.524  0.00  0.00    +0.000 A 
ATOM      2  C   UNL     1       1.514  10.010  18.169  0.00  0.00    +0.000 A 
ATOM      3  C   UNL     1       2.035   8.827  17.637  0.00  0.00    +0.000 A 
ATOM      4  C   UNL     1       2.180   7.734  18.475  0.00  0.00    +0.000 A 
ATOM      5  N   UNL     1       1.864   7.750  19.787  0.00  0.00    +0.000 NA
ATOM      6  C   UNL     1       1.387   8.914  20.286  0.00  0.00    +0.000 A 
ENDROOT
BRANCH   1   8
ATOM      7  N   UNL     1      -0.658  11.192  20.636  0.00  0.00    +0.000 N 
ATOM      8  C   UNL     1       0.645  11.254  20.206  0.00  0.00    +0.000 C 
ATOM      9  O   UNL     1       1.372  12.225  20.383  0.00  0.00    +0.000 OA
ATOM     10  H   UNL     1      -1.221  10.364  20.492  0.00  0.00    +0.000 HD
BRANCH   7  11
ATOM     11  CA  UNL     1      -1.317  12.316  21.296  0.00  0.00    +0.000 C 
BRANCH  11  13
ATOM     12  C   UNL     1      -1.082  10.606  23.175  0.00  0.00    +0.000 C 
ATOM     13  C   UNL     1      -1.489  12.025  22.796  0.00  0.00    +0.000 C 
ENDBRANCH  11  13
BRANCH  11  14
ATOM     14  C   UNL     1      -2.668  12.573  20.606  0.00  0.00    +0.000 C 
BRANCH  14  15
ATOM     15  O   UNL     1      -3.395  13.611  21.269  0.00  0.00    +0.000 OA
ATOM     16  H   UNL     1      -4.265  13.673  20.836  0.00  0.00    +0.000 HD
ENDBRANCH  14  15
ENDBRANCH  11  14
ENDBRANCH   7  11
ENDBRANCH   1   8
BRANCH   4  17
ATOM     17  O   UNL     1       2.719   6.587  17.933  0.00  0.00    +0.000 OA
BRANCH  17  18
ATOM     18  C   UNL     1       4.095   6.780  17.578  0.00  0.00    +0.000 C 
BRANCH  18  19
ATOM     19  C   UNL     1       5.007   5.770  18.190  0.00  0.00    +0.000 A 
ATOM     20  C   UNL     1       4.642   4.582  18.915  0.00  0.00    +0.000 A 
ATOM     21  N   UNL     1       5.743   3.974  19.387  0.00  0.00    +0.000 NA
ATOM     22  O   UNL     1       6.819   4.716  18.962  0.00  0.00    +0.000 OA
ATOM     23  C   UNL     1       6.386   5.780  18.244  0.00  0.00    +0.000 A 
ATOM     24  C   UNL     1       7.432   6.676  17.714  0.00  0.00    +0.000 C 
BRANCH  20  25
ATOM     25  C   UNL     1       3.314   4.016  19.189  0.00  0.00    +0.000 A 
ATOM     26  C   UNL     1       2.634   4.279  20.388  0.00  0.00    +0.000 A 
ATOM     27  C   UNL     1       1.376   3.726  20.642  0.00  0.00    +0.000 A 
ATOM     28  C   UNL     1       0.759   2.927  19.685  0.00  0.00    +0.000 A 
ATOM     29  C   UNL     1       1.404   2.680  18.474  0.00  0.00    +0.000 A 
ATOM     30  C   UNL     1       2.674   3.215  18.230  0.00  0.00    +0.000 A 
ENDBRANCH  20  25
ENDBRANCH  18  19
ENDBRANCH  17  18
ENDBRANCH   4  17
TORSDOF 9
ENDMDL
