MODEL 1
REMARK VINA RESULT:      -8.8      0.000      0.000
REMARK  Name = 
REMARK  8 active torsions:
REMARK  status: ('A' for Active; 'I' for Inactive)
REMARK    1  A    between atoms: C_1  and  C_2
REMARK    2  A    between atoms: C_6  and  C_7
REMARK    3  A    between atoms: N_8  and  C_9
REMARK    4  A    between atoms: C_9  and  C_10
REMARK    5  A    between atoms: C_18  and  N_19
REMARK    6  A    between atoms: N_22  and  C_23
REMARK    7  A    between atoms: C_23  and  C_24
REMARK    8  A    between atoms: C_24  and  C_25
REMARK                            x       y       z     vdW  Elec       q    Type
REMARK                         _______ _______ _______ _____ _____    ______ ____
ROOT
ATOM      1  C   UNL     1       7.902   8.714  18.128  0.00  0.00    +0.000 A 
ATOM      2  C   UNL     1       8.493   7.795  18.996  0.00  0.00    +0.000 A 
ATOM      3  C   UNL     1       8.307   6.421  18.816  0.00  0.00    +0.000 A 
ATOM      4  C   UNL     1       7.464   5.942  17.801  0.00  0.00    +0.000 A 
ATOM      5  C   UNL     1       6.875   6.852  16.913  0.00  0.00    +0.000 A 
ATOM      6  C   UNL     1       7.131   8.224  17.068  0.00  0.00    +0.000 A 
ATOM      7  C   UNL     1       5.848   6.429  15.893  0.00  0.00    +0.000 C 
ATOM      8  C   UNL     1       5.694   4.917  15.756  0.00  0.00    +0.000 C 
ATOM      9  C   UNL     1       5.729   4.219  17.135  0.00  0.00    +0.000 C 
ATOM     10  C   UNL     1       7.141   4.468  17.714  0.00  0.00    +0.000 C 
ENDROOT
BRANCH   9  11
ATOM     11  N   UNL     1       4.541   4.575  17.976  0.00  0.00    +0.000 N 
ATOM     12  C   UNL     1       3.495   5.364  17.326  0.00  0.00    +0.000 C 
ATOM     13  C   UNL     1       2.156   5.327  18.063  0.00  0.00    +0.000 C 
ATOM     14  N   UNL     1       2.299   5.692  19.478  0.00  0.00    +0.000 NA
ATOM     15  C   UNL     1       3.180   4.692  20.121  0.00  0.00    +0.000 C 
ATOM     16  C   UNL     1       4.358   4.146  19.293  0.00  0.00    +0.000 C 
ATOM     17  O   UNL     1       5.061   3.288  19.833  0.00  0.00    +0.000 OA
BRANCH  14  18
ATOM     18  C   UNL     1       2.759   7.068  19.723  0.00  0.00    +0.000 C 
BRANCH  18  19
ATOM     19  C   UNL     1       1.772   8.118  19.181  0.00  0.00    +0.000 C 
BRANCH  19  20
ATOM     20  C   UNL     1       1.098   8.921  20.269  0.00  0.00    +0.000 A 
ATOM     21  C   UNL     1       0.326  10.043  19.932  0.00  0.00    +0.000 A 
ATOM     22  C   UNL     1      -0.330  10.771  20.925  0.00  0.00    +0.000 A 
ATOM     23  C   UNL     1      -0.208  10.380  22.253  0.00  0.00    +0.000 A 
ATOM     24  F   UNL     1      -0.844  11.076  23.206  0.00  0.00    +0.000 F 
ATOM     25  C   UNL     1       0.560   9.277  22.607  0.00  0.00    +0.000 A 
ATOM     26  C   UNL     1       1.217   8.547  21.615  0.00  0.00    +0.000 A 
ENDBRANCH  19  20
ENDBRANCH  18  19
ENDBRANCH  14  18
ENDBRANCH   9  11
BRANCH   1  27
ATOM     27  C   UNL     1       8.087  10.212  18.297  0.00  0.00    +0.000 C 
BRANCH  27  35
ATOM     28  C   UNL     1       8.881  12.965  17.541  0.00  0.00    +0.000 C 
ATOM     29  C   UNL     1       9.845  11.769  17.583  0.00  0.00    +0.000 C 
ATOM     30  C   UNL     1      11.302  12.245  17.757  0.00  0.00    +0.000 C 
ATOM     31  C   UNL     1      11.669  12.530  19.203  0.00  0.00    +0.000 C 
ATOM     32  C   UNL     1      11.349  11.303  20.046  0.00  0.00    +0.000 C 
ATOM     33  C   UNL     1       9.865  10.894  19.931  0.00  0.00    +0.000 C 
ATOM     34  C   UNL     1       9.010  11.870  20.756  0.00  0.00    +0.000 C 
ATOM     35  N   UNL     1       9.470  10.688  18.522  0.00  0.00    +0.000 NA
ENDBRANCH  27  35
ENDBRANCH   1  27
TORSDOF 6
ENDMDL
MODEL 2
REMARK VINA RESULT:      -8.6      1.030      1.416
REMARK  Name = 
REMARK  8 active torsions:
REMARK  status: ('A' for Active; 'I' for Inactive)
REMARK    1  A    between atoms: C_1  and  C_2
REMARK    2  A    between atoms: C_6  and  C_7
REMARK    3  A    between atoms: N_8  and  C_9
REMARK    4  A    between atoms: C_9  and  C_10
REMARK    5  A    between atoms: C_18  and  N_19
REMARK    6  A    between atoms: N_22  and  C_23
REMARK    7  A    between atoms: C_23  and  C_24
REMARK    8  A    between atoms: C_24  and  C_25
REMARK                            x       y       z     vdW  Elec       q    Type
REMARK                         _______ _______ _______ _____ _____    ______ ____
ROOT
ATOM      1  C   UNL     1       7.815   8.649  18.063  0.00  0.00    +0.000 A 
ATOM      2  C   UNL     1       8.439   7.743  18.920  0.00  0.00    +0.000 A 
ATOM      3  C   UNL     1       8.287   6.365  18.737  0.00  0.00    +0.000 A 
ATOM      4  C   UNL     1       7.446   5.868  17.731  0.00  0.00    +0.000 A 
ATOM      5  C   UNL     1       6.824   6.765  16.853  0.00  0.00    +0.000 A 
ATOM      6  C   UNL     1       7.045   8.143  17.009  0.00  0.00    +0.000 A 
ATOM      7  C   UNL     1       5.797   6.318  15.842  0.00  0.00    +0.000 C 
ATOM      8  C   UNL     1       5.681   4.803  15.701  0.00  0.00    +0.000 C 
ATOM      9  C   UNL     1       5.750   4.102  17.076  0.00  0.00    +0.000 C 
ATOM     10  C   UNL     1       7.161   4.386  17.641  0.00  0.00    +0.000 C 
ENDROOT
BRANCH   9  11
ATOM     11  N   UNL     1       4.563   4.423  17.932  0.00  0.00    +0.000 N 
ATOM     12  C   UNL     1       3.473   5.155  17.287  0.00  0.00    +0.000 C 
ATOM     13  C   UNL     1       2.149   5.076  18.048  0.00  0.00    +0.000 C 
ATOM     14  N   UNL     1       2.301   5.474  19.453  0.00  0.00    +0.000 NA
ATOM     15  C   UNL     1       3.235   4.524  20.099  0.00  0.00    +0.000 C 
ATOM     16  C   UNL     1       4.421   4.013  19.260  0.00  0.00    +0.000 C 
ATOM     17  O   UNL     1       5.168   3.195  19.803  0.00  0.00    +0.000 OA
BRANCH  14  18
ATOM     18  C   UNL     1       2.706   6.872  19.664  0.00  0.00    +0.000 C 
BRANCH  18  19
ATOM     19  C   UNL     1       1.773   7.607  20.645  0.00  0.00    +0.000 C 
BRANCH  19  20
ATOM     20  C   UNL     1       1.093   8.808  20.033  0.00  0.00    +0.000 A 
ATOM     21  C   UNL     1       0.148   9.532  20.779  0.00  0.00    +0.000 A 
ATOM     22  C   UNL     1      -0.461  10.663  20.237  0.00  0.00    +0.000 A 
ATOM     23  C   UNL     1      -0.130  11.068  18.949  0.00  0.00    +0.000 A 
ATOM     24  F   UNL     1      -0.710  12.160  18.432  0.00  0.00    +0.000 F 
ATOM     25  C   UNL     1       0.795  10.359  18.192  0.00  0.00    +0.000 A 
ATOM     26  C   UNL     1       1.406   9.226  18.732  0.00  0.00    +0.000 A 
ENDBRANCH  19  20
ENDBRANCH  18  19
ENDBRANCH  14  18
ENDBRANCH   9  11
BRANCH   1  27
ATOM     27  C   UNL     1       7.963  10.151  18.236  0.00  0.00    +0.000 C 
BRANCH  27  35
ATOM     28  C   UNL     1       8.549  13.007  17.708  0.00  0.00    +0.000 C 
ATOM     29  C   UNL     1       9.558  11.866  17.504  0.00  0.00    +0.000 C 
ATOM     30  C   UNL     1      11.005  12.397  17.562  0.00  0.00    +0.000 C 
ATOM     31  C   UNL     1      11.532  12.545  18.979  0.00  0.00    +0.000 C 
ATOM     32  C   UNL     1      11.364  11.219  19.709  0.00  0.00    +0.000 C 
ATOM     33  C   UNL     1       9.895  10.747  19.721  0.00  0.00    +0.000 C 
ATOM     34  C   UNL     1       9.107  11.583  20.743  0.00  0.00    +0.000 C 
ATOM     35  N   UNL     1       9.342  10.672  18.353  0.00  0.00    +0.000 NA
ENDBRANCH  27  35
ENDBRANCH   1  27
TORSDOF 6
ENDMDL
MODEL 3
REMARK VINA RESULT:      -8.0      4.392      9.180
REMARK  Name = 
REMARK  8 active torsions:
REMARK  status: ('A' for Active; 'I' for Inactive)
REMARK    1  A    between atoms: C_1  and  C_2
REMARK    2  A    between atoms: C_6  and  C_7
REMARK    3  A    between atoms: N_8  and  C_9
REMARK    4  A    between atoms: C_9  and  C_10
REMARK    5  A    between atoms: C_18  and  N_19
REMARK    6  A    between atoms: N_22  and  C_23
REMARK    7  A    between atoms: C_23  and  C_24
REMARK    8  A    between atoms: C_24  and  C_25
REMARK                            x       y       z     vdW  Elec       q    Type
REMARK                         _______ _______ _______ _____ _____    ______ ____
ROOT
ATOM      1  C   UNL     1       1.801   8.479  18.752  0.00  0.00    +0.000 A 
ATOM      2  C   UNL     1       1.750   8.372  20.142  0.00  0.00    +0.000 A 
ATOM      3  C   UNL     1       0.796   9.082  20.879  0.00  0.00    +0.000 A 
ATOM      4  C   UNL     1      -0.082   9.970  20.240  0.00  0.00    +0.000 A 
ATOM      5  C   UNL     1      -0.052  10.078  18.844  0.00  0.00    +0.000 A 
ATOM      6  C   UNL     1       0.867   9.303  18.116  0.00  0.00    +0.000 A 
ATOM      7  C   UNL     1      -0.859  11.112  18.100  0.00  0.00    +0.000 C 
ATOM      8  C   UNL     1      -1.874  11.851  18.968  0.00  0.00    +0.000 C 
ATOM      9  C   UNL     1      -1.283  12.199  20.353  0.00  0.00    +0.000 C 
ATOM     10  C   UNL     1      -0.999  10.851  21.057  0.00  0.00    +0.000 C 
ENDROOT
BRANCH   9  11
ATOM     11  N   UNL     1      -0.174  13.201  20.257  0.00  0.00    +0.000 N 
ATOM     12  C   UNL     1       0.086  13.761  18.931  0.00  0.00    +0.000 C 
ATOM     13  C   UNL     1       0.902  15.053  18.963  0.00  0.00    +0.000 C 
ATOM     14  N   UNL     1       2.144  14.898  19.729  0.00  0.00    +0.000 NA
ATOM     15  C   UNL     1       1.782  14.574  21.127  0.00  0.00    +0.000 C 
ATOM     16  C   UNL     1       0.562  13.662  21.352  0.00  0.00    +0.000 C 
ATOM     17  O   UNL     1       0.254  13.432  22.523  0.00  0.00    +0.000 OA
BRANCH  14  18
ATOM     18  C   UNL     1       3.103  13.931  19.172  0.00  0.00    +0.000 C 
BRANCH  18  19
ATOM     19  C   UNL     1       3.745  14.433  17.865  0.00  0.00    +0.000 C 
BRANCH  19  20
ATOM     20  C   UNL     1       5.061  15.141  18.082  0.00  0.00    +0.000 A 
ATOM     21  C   UNL     1       5.082  16.406  18.691  0.00  0.00    +0.000 A 
ATOM     22  C   UNL     1       6.294  17.054  18.928  0.00  0.00    +0.000 A 
ATOM     23  C   UNL     1       7.483  16.441  18.550  0.00  0.00    +0.000 A 
ATOM     24  F   UNL     1       8.647  17.061  18.785  0.00  0.00    +0.000 F 
ATOM     25  C   UNL     1       7.482  15.194  17.937  0.00  0.00    +0.000 A 
ATOM     26  C   UNL     1       6.270  14.543  17.699  0.00  0.00    +0.000 A 
ENDBRANCH  19  20
ENDBRANCH  18  19
ENDBRANCH  14  18
ENDBRANCH   9  11
BRANCH   1  27
ATOM     27  C   UNL     1       2.824   7.720  17.926  0.00  0.00    +0.000 C 
BRANCH  27  35
ATOM     28  C   UNL     1       1.870   4.918  17.792  0.00  0.00    +0.000 C 
ATOM     29  C   UNL     1       2.681   5.500  18.961  0.00  0.00    +0.000 C 
ATOM     30  C   UNL     1       3.411   4.380  19.732  0.00  0.00    +0.000 C 
ATOM     31  C   UNL     1       4.724   3.970  19.089  0.00  0.00    +0.000 C 
ATOM     32  C   UNL     1       5.588   5.209  18.895  0.00  0.00    +0.000 C 
ATOM     33  C   UNL     1       4.878   6.283  18.045  0.00  0.00    +0.000 C 
ATOM     34  C   UNL     1       4.901   5.851  16.569  0.00  0.00    +0.000 C 
ATOM     35  N   UNL     1       3.562   6.638  18.615  0.00  0.00    +0.000 NA
ENDBRANCH  27  35
ENDBRANCH   1  27
TORSDOF 6
ENDMDL
MODEL 4
REMARK VINA RESULT:      -7.8      8.115     12.705
REMARK  Name = 
REMARK  8 active torsions:
REMARK  status: ('A' for Active; 'I' for Inactive)
REMARK    1  A    between atoms: C_1  and  C_2
REMARK    2  A    between atoms: C_6  and  C_7
REMARK    3  A    between atoms: N_8  and  C_9
REMARK    4  A    between atoms: C_9  and  C_10
REMARK    5  A    between atoms: C_18  and  N_19
REMARK    6  A    between atoms: N_22  and  C_23
REMARK    7  A    between atoms: C_23  and  C_24
REMARK    8  A    between atoms: C_24  and  C_25
REMARK                            x       y       z     vdW  Elec       q    Type
REMARK                         _______ _______ _______ _____ _____    ______ ____
ROOT
ATOM      1  C   UNL     1      -6.007  11.813  18.752  0.00  0.00    +0.000 A 
ATOM      2  C   UNL     1      -6.575  10.819  19.549  0.00  0.00    +0.000 A 
ATOM      3  C   UNL     1      -7.257  11.149  20.725  0.00  0.00    +0.000 A 
ATOM      4  C   UNL     1      -7.320  12.480  21.163  0.00  0.00    +0.000 A 
ATOM      5  C   UNL     1      -6.767  13.491  20.366  0.00  0.00    +0.000 A 
ATOM      6  C   UNL     1      -6.148  13.146  19.153  0.00  0.00    +0.000 A 
ATOM      7  C   UNL     1      -6.667  14.921  20.835  0.00  0.00    +0.000 C 
ATOM      8  C   UNL     1      -7.429  15.206  22.127  0.00  0.00    +0.000 C 
ATOM      9  C   UNL     1      -7.258  14.057  23.146  0.00  0.00    +0.000 C 
ATOM     10  C   UNL     1      -7.917  12.809  22.512  0.00  0.00    +0.000 C 
ENDROOT
BRANCH   9  11
ATOM     11  N   UNL     1      -5.848  13.946  23.639  0.00  0.00    +0.000 N 
ATOM     12  C   UNL     1      -5.025  15.151  23.538  0.00  0.00    +0.000 C 
ATOM     13  C   UNL     1      -3.780  15.115  24.424  0.00  0.00    +0.000 C 
ATOM     14  N   UNL     1      -2.981  13.904  24.198  0.00  0.00    +0.000 NA
ATOM     15  C   UNL     1      -3.812  12.735  24.564  0.00  0.00    +0.000 C 
ATOM     16  C   UNL     1      -5.314  12.799  24.232  0.00  0.00    +0.000 C 
ATOM     17  O   UNL     1      -5.997  11.831  24.576  0.00  0.00    +0.000 OA
BRANCH  14  18
ATOM     18  C   UNL     1      -2.414  13.774  22.847  0.00  0.00    +0.000 C 
BRANCH  18  19
ATOM     19  C   UNL     1      -2.641  12.372  22.253  0.00  0.00    +0.000 C 
BRANCH  19  20
ATOM     20  C   UNL     1      -1.393  11.520  22.242  0.00  0.00    +0.000 A 
ATOM     21  C   UNL     1      -1.266  10.454  23.146  0.00  0.00    +0.000 A 
ATOM     22  C   UNL     1      -0.134   9.640  23.121  0.00  0.00    +0.000 A 
ATOM     23  C   UNL     1       0.872   9.895  22.197  0.00  0.00    +0.000 A 
ATOM     24  F   UNL     1       1.956   9.107  22.169  0.00  0.00    +0.000 F 
ATOM     25  C   UNL     1       0.768  10.951  21.300  0.00  0.00    +0.000 A 
ATOM     26  C   UNL     1      -0.363  11.767  21.323  0.00  0.00    +0.000 A 
ENDBRANCH  19  20
ENDBRANCH  18  19
ENDBRANCH  14  18
ENDBRANCH   9  11
BRANCH   1  27
ATOM     27  C   UNL     1      -5.262  11.485  17.469  0.00  0.00    +0.000 C 
BRANCH  27  35
ATOM     28  C   UNL     1      -3.256  11.336  15.294  0.00  0.00    +0.000 C 
ATOM     29  C   UNL     1      -3.550  10.193  16.278  0.00  0.00    +0.000 C 
ATOM     30  C   UNL     1      -2.344   9.236  16.381  0.00  0.00    +0.000 C 
ATOM     31  C   UNL     1      -1.274   9.724  17.342  0.00  0.00    +0.000 C 
ATOM     32  C   UNL     1      -1.916  10.007  18.694  0.00  0.00    +0.000 C 
ATOM     33  C   UNL     1      -3.061  11.036  18.587  0.00  0.00    +0.000 C 
ATOM     34  C   UNL     1      -2.460  12.440  18.408  0.00  0.00    +0.000 C 
ATOM     35  N   UNL     1      -4.074  10.613  17.597  0.00  0.00    +0.000 NA
ENDBRANCH  27  35
ENDBRANCH   1  27
TORSDOF 6
ENDMDL
MODEL 5
REMARK VINA RESULT:      -7.8      4.119      9.292
REMARK  Name = 
REMARK  8 active torsions:
REMARK  status: ('A' for Active; 'I' for Inactive)
REMARK    1  A    between atoms: C_1  and  C_2
REMARK    2  A    between atoms: C_6  and  C_7
REMARK    3  A    between atoms: N_8  and  C_9
REMARK    4  A    between atoms: C_9  and  C_10
REMARK    5  A    between atoms: C_18  and  N_19
REMARK    6  A    between atoms: N_22  and  C_23
REMARK    7  A    between atoms: C_23  and  C_24
REMARK    8  A    between atoms: C_24  and  C_25
REMARK                            x       y       z     vdW  Elec       q    Type
REMARK                         _______ _______ _______ _____ _____    ______ ____
ROOT
ATOM      1  C   UNL     1       1.867   8.124  19.603  0.00  0.00    +0.000 A 
ATOM      2  C   UNL     1       1.443   8.241  20.928  0.00  0.00    +0.000 A 
ATOM      3  C   UNL     1       0.384   9.089  21.267  0.00  0.00    +0.000 A 
ATOM      4  C   UNL     1      -0.226   9.893  20.293  0.00  0.00    +0.000 A 
ATOM      5  C   UNL     1       0.178   9.776  18.957  0.00  0.00    +0.000 A 
ATOM      6  C   UNL     1       1.196   8.867  18.625  0.00  0.00    +0.000 A 
ATOM      7  C   UNL     1      -0.326  10.705  17.880  0.00  0.00    +0.000 C 
ATOM      8  C   UNL     1      -1.476  11.605  18.324  0.00  0.00    +0.000 C 
ATOM      9  C   UNL     1      -1.247  12.149  19.752  0.00  0.00    +0.000 C 
ATOM     10  C   UNL     1      -1.258  10.922  20.694  0.00  0.00    +0.000 C 
ENDROOT
BRANCH   9  11
ATOM     11  N   UNL     1      -0.080  13.086  19.817  0.00  0.00    +0.000 N 
ATOM     12  C   UNL     1       0.106  13.977  18.673  0.00  0.00    +0.000 C 
ATOM     13  C   UNL     1       1.012  15.172  18.969  0.00  0.00    +0.000 C 
ATOM     14  N   UNL     1       2.301  14.755  19.534  0.00  0.00    +0.000 NA
ATOM     15  C   UNL     1       2.037  14.076  20.822  0.00  0.00    +0.000 C 
ATOM     16  C   UNL     1       0.778  13.194  20.916  0.00  0.00    +0.000 C 
ATOM     17  O   UNL     1       0.555  12.664  22.007  0.00  0.00    +0.000 OA
BRANCH  14  18
ATOM     18  C   UNL     1       3.137  13.935  18.643  0.00  0.00    +0.000 C 
BRANCH  18  19
ATOM     19  C   UNL     1       4.136  14.785  17.837  0.00  0.00    +0.000 C 
BRANCH  19  20
ATOM     20  C   UNL     1       5.534  14.762  18.408  0.00  0.00    +0.000 A 
ATOM     21  C   UNL     1       6.609  14.340  17.610  0.00  0.00    +0.000 A 
ATOM     22  C   UNL     1       7.909  14.349  18.115  0.00  0.00    +0.000 A 
ATOM     23  C   UNL     1       8.133  14.773  19.419  0.00  0.00    +0.000 A 
ATOM     24  F   UNL     1       9.383  14.788  19.902  0.00  0.00    +0.000 F 
ATOM     25  C   UNL     1       7.081  15.185  20.229  0.00  0.00    +0.000 A 
ATOM     26  C   UNL     1       5.779  15.178  19.725  0.00  0.00    +0.000 A 
ENDBRANCH  19  20
ENDBRANCH  18  19
ENDBRANCH  14  18
ENDBRANCH   9  11
BRANCH   1  27
ATOM     27  C   UNL     1       3.012   7.211  19.205  0.00  0.00    +0.000 C 
BRANCH  27  35
ATOM     28  C   UNL     1       5.046   5.097  18.784  0.00  0.00    +0.000 C 
ATOM     29  C   UNL     1       3.802   5.287  17.902  0.00  0.00    +0.000 C 
ATOM     30  C   UNL     1       3.436   3.972  17.181  0.00  0.00    +0.000 C 
ATOM     31  C   UNL     1       2.620   3.025  18.044  0.00  0.00    +0.000 C 
ATOM     32  C   UNL     1       1.398   3.764  18.572  0.00  0.00    +0.000 C 
ATOM     33  C   UNL     1       1.786   5.028  19.368  0.00  0.00    +0.000 C 
ATOM     34  C   UNL     1       2.316   4.608  20.749  0.00  0.00    +0.000 C 
ATOM     35  N   UNL     1       2.645   5.926  18.569  0.00  0.00    +0.000 NA
ENDBRANCH  27  35
ENDBRANCH   1  27
TORSDOF 6
ENDMDL
MODEL 6
REMARK VINA RESULT:      -7.8      4.319      9.287
REMARK  Name = 
REMARK  8 active torsions:
REMARK  status: ('A' for Active; 'I' for Inactive)
REMARK    1  A    between atoms: C_1  and  C_2
REMARK    2  A    between atoms: C_6  and  C_7
REMARK    3  A    between atoms: N_8  and  C_9
REMARK    4  A    between atoms: C_9  and  C_10
REMARK    5  A    between atoms: C_18  and  N_19
REMARK    6  A    between atoms: N_22  and  C_23
REMARK    7  A    between atoms: C_23  and  C_24
REMARK    8  A    between atoms: C_24  and  C_25
REMARK                            x       y       z     vdW  Elec       q    Type
REMARK                         _______ _______ _______ _____ _____    ______ ____
ROOT
ATOM      1  C   UNL     1       2.029   8.196  19.134  0.00  0.00    +0.000 A 
ATOM      2  C   UNL     1       1.668   8.166  20.481  0.00  0.00    +0.000 A 
ATOM      3  C   UNL     1       0.587   8.920  20.949  0.00  0.00    +0.000 A 
ATOM      4  C   UNL     1      -0.112   9.777  20.085  0.00  0.00    +0.000 A 
ATOM      5  C   UNL     1       0.229   9.807  18.726  0.00  0.00    +0.000 A 
ATOM      6  C   UNL     1       1.273   8.989  18.263  0.00  0.00    +0.000 A 
ATOM      7  C   UNL     1      -0.375  10.803  17.768  0.00  0.00    +0.000 C 
ATOM      8  C   UNL     1      -1.545  11.593  18.348  0.00  0.00    +0.000 C 
ATOM      9  C   UNL     1      -1.270  12.014  19.809  0.00  0.00    +0.000 C 
ATOM     10  C   UNL     1      -1.172  10.706  20.629  0.00  0.00    +0.000 C 
ENDROOT
BRANCH   9  11
ATOM     11  N   UNL     1      -0.150  13.003  19.910  0.00  0.00    +0.000 N 
ATOM     12  C   UNL     1       0.107  13.820  18.724  0.00  0.00    +0.000 C 
ATOM     13  C   UNL     1       0.937  15.071  19.013  0.00  0.00    +0.000 C 
ATOM     14  N   UNL     1       2.183  14.750  19.719  0.00  0.00    +0.000 NA
ATOM     15  C   UNL     1       1.827  14.151  21.025  0.00  0.00    +0.000 C 
ATOM     16  C   UNL     1       0.598  13.224  21.069  0.00  0.00    +0.000 C 
ATOM     17  O   UNL     1       0.296  12.762  22.172  0.00  0.00    +0.000 OA
BRANCH  14  18
ATOM     18  C   UNL     1       3.127  13.908  18.968  0.00  0.00    +0.000 C 
BRANCH  18  19
ATOM     19  C   UNL     1       3.730  14.646  17.758  0.00  0.00    +0.000 C 
BRANCH  19  20
ATOM     20  C   UNL     1       5.082  15.256  18.045  0.00  0.00    +0.000 A 
ATOM     21  C   UNL     1       5.164  16.504  18.684  0.00  0.00    +0.000 A 
ATOM     22  C   UNL     1       6.406  17.060  18.986  0.00  0.00    +0.000 A 
ATOM     23  C   UNL     1       7.565  16.374  18.644  0.00  0.00    +0.000 A 
ATOM     24  F   UNL     1       8.758  16.906  18.941  0.00  0.00    +0.000 F 
ATOM     25  C   UNL     1       7.504  15.142  18.003  0.00  0.00    +0.000 A 
ATOM     26  C   UNL     1       6.262  14.583  17.699  0.00  0.00    +0.000 A 
ENDBRANCH  19  20
ENDBRANCH  18  19
ENDBRANCH  14  18
ENDBRANCH   9  11
BRANCH   1  27
ATOM     27  C   UNL     1       3.197   7.388  18.597  0.00  0.00    +0.000 C 
BRANCH  27  35
ATOM     28  C   UNL     1       5.269   5.282  18.372  0.00  0.00    +0.000 C 
ATOM     29  C   UNL     1       4.069   5.418  17.421  0.00  0.00    +0.000 C 
ATOM     30  C   UNL     1       3.752   4.069  16.742  0.00  0.00    +0.000 C 
ATOM     31  C   UNL     1       2.903   3.151  17.604  0.00  0.00    +0.000 C 
ATOM     32  C   UNL     1       1.650   3.898  18.038  0.00  0.00    +0.000 C 
ATOM     33  C   UNL     1       1.985   5.200  18.796  0.00  0.00    +0.000 C 
ATOM     34  C   UNL     1       2.449   4.847  20.219  0.00  0.00    +0.000 C 
ATOM     35  N   UNL     1       2.874   6.072  18.002  0.00  0.00    +0.000 NA
ENDBRANCH  27  35
ENDBRANCH   1  27
TORSDOF 6
ENDMDL
MODEL 7
REMARK VINA RESULT:      -7.7      5.792      9.565
REMARK  Name = 
REMARK  8 active torsions:
REMARK  status: ('A' for Active; 'I' for Inactive)
REMARK    1  A    between atoms: C_1  and  C_2
REMARK    2  A    between atoms: C_6  and  C_7
REMARK    3  A    between atoms: N_8  and  C_9
REMARK    4  A    between atoms: C_9  and  C_10
REMARK    5  A    between atoms: C_18  and  N_19
REMARK    6  A    between atoms: N_22  and  C_23
REMARK    7  A    between atoms: C_23  and  C_24
REMARK    8  A    between atoms: C_24  and  C_25
REMARK                            x       y       z     vdW  Elec       q    Type
REMARK                         _______ _______ _______ _____ _____    ______ ____
ROOT
ATOM      1  C   UNL     1       1.816   7.544  19.716  0.00  0.00    +0.000 A 
ATOM      2  C   UNL     1       2.034   7.845  18.372  0.00  0.00    +0.000 A 
ATOM      3  C   UNL     1       1.882   9.153  17.898  0.00  0.00    +0.000 A 
ATOM      4  C   UNL     1       1.437  10.173  18.752  0.00  0.00    +0.000 A 
ATOM      5  C   UNL     1       1.228   9.889  20.108  0.00  0.00    +0.000 A 
ATOM      6  C   UNL     1       1.454   8.585  20.579  0.00  0.00    +0.000 A 
ATOM      7  C   UNL     1       0.614  10.891  21.053  0.00  0.00    +0.000 C 
ATOM      8  C   UNL     1       0.472  12.293  20.467  0.00  0.00    +0.000 C 
ATOM      9  C   UNL     1      -0.003  12.244  18.997  0.00  0.00    +0.000 C 
ATOM     10  C   UNL     1       1.121  11.543  18.199  0.00  0.00    +0.000 C 
ENDROOT
BRANCH   9  11
ATOM     11  N   UNL     1      -1.399  11.716  18.874  0.00  0.00    +0.000 N 
ATOM     12  C   UNL     1      -1.655  10.801  17.762  0.00  0.00    +0.000 C 
ATOM     13  C   UNL     1      -2.931   9.977  17.930  0.00  0.00    +0.000 C 
ATOM     14  N   UNL     1      -4.099  10.824  18.203  0.00  0.00    +0.000 NA
ATOM     15  C   UNL     1      -3.862  11.531  19.482  0.00  0.00    +0.000 C 
ATOM     16  C   UNL     1      -2.425  11.996  19.781  0.00  0.00    +0.000 C 
ATOM     17  O   UNL     1      -2.240  12.551  20.867  0.00  0.00    +0.000 OA
BRANCH  14  18
ATOM     18  C   UNL     1      -4.461  11.753  17.122  0.00  0.00    +0.000 C 
BRANCH  18  19
ATOM     19  C   UNL     1      -5.981  11.979  17.032  0.00  0.00    +0.000 C 
BRANCH  19  20
ATOM     20  C   UNL     1      -6.396  13.389  17.381  0.00  0.00    +0.000 A 
ATOM     21  C   UNL     1      -6.763  14.282  16.361  0.00  0.00    +0.000 A 
ATOM     22  C   UNL     1      -7.182  15.575  16.674  0.00  0.00    +0.000 A 
ATOM     23  C   UNL     1      -7.227  15.977  18.003  0.00  0.00    +0.000 A 
ATOM     24  F   UNL     1      -7.637  17.217  18.304  0.00  0.00    +0.000 F 
ATOM     25  C   UNL     1      -6.859  15.110  19.026  0.00  0.00    +0.000 A 
ATOM     26  C   UNL     1      -6.439  13.816  18.715  0.00  0.00    +0.000 A 
ENDBRANCH  19  20
ENDBRANCH  18  19
ENDBRANCH  14  18
ENDBRANCH   9  11
BRANCH   1  27
ATOM     27  C   UNL     1       1.975   6.134  20.259  0.00  0.00    +0.000 C 
BRANCH  27  35
ATOM     28  C   UNL     1       4.249   4.468  19.349  0.00  0.00    +0.000 C 
ATOM     29  C   UNL     1       2.983   4.731  18.518  0.00  0.00    +0.000 C 
ATOM     30  C   UNL     1       2.776   3.618  17.469  0.00  0.00    +0.000 C 
ATOM     31  C   UNL     1       2.091   2.385  18.034  0.00  0.00    +0.000 C 
ATOM     32  C   UNL     1       0.792   2.807  18.708  0.00  0.00    +0.000 C 
ATOM     33  C   UNL     1       1.028   3.854  19.816  0.00  0.00    +0.000 C 
ATOM     34  C   UNL     1       1.618   3.153  21.051  0.00  0.00    +0.000 C 
ATOM     35  N   UNL     1       1.763   5.027  19.301  0.00  0.00    +0.000 NA
ENDBRANCH  27  35
ENDBRANCH   1  27
TORSDOF 6
ENDMDL
MODEL 8
REMARK VINA RESULT:      -7.7      4.772      7.699
REMARK  Name = 
REMARK  8 active torsions:
REMARK  status: ('A' for Active; 'I' for Inactive)
REMARK    1  A    between atoms: C_1  and  C_2
REMARK    2  A    between atoms: C_6  and  C_7
REMARK    3  A    between atoms: N_8  and  C_9
REMARK    4  A    between atoms: C_9  and  C_10
REMARK    5  A    between atoms: C_18  and  N_19
REMARK    6  A    between atoms: N_22  and  C_23
REMARK    7  A    between atoms: C_23  and  C_24
REMARK    8  A    between atoms: C_24  and  C_25
REMARK                            x       y       z     vdW  Elec       q    Type
REMARK                         _______ _______ _______ _____ _____    ______ ____
ROOT
ATOM      1  C   UNL     1       7.049  14.855  19.371  0.00  0.00    +0.000 A 
ATOM      2  C   UNL     1       6.509  14.484  18.139  0.00  0.00    +0.000 A 
ATOM      3  C   UNL     1       5.291  15.017  17.704  0.00  0.00    +0.000 A 
ATOM      4  C   UNL     1       4.554  15.880  18.529  0.00  0.00    +0.000 A 
ATOM      5  C   UNL     1       5.091  16.273  19.762  0.00  0.00    +0.000 A 
ATOM      6  C   UNL     1       6.348  15.781  20.151  0.00  0.00    +0.000 A 
ATOM      7  C   UNL     1       4.300  17.077  20.763  0.00  0.00    +0.000 C 
ATOM      8  C   UNL     1       2.981  17.620  20.221  0.00  0.00    +0.000 C 
ATOM      9  C   UNL     1       2.257  16.572  19.346  0.00  0.00    +0.000 C 
ATOM     10  C   UNL     1       3.168  16.323  18.121  0.00  0.00    +0.000 C 
ENDROOT
BRANCH   9  11
ATOM     11  N   UNL     1       1.798  15.391  20.144  0.00  0.00    +0.000 N 
ATOM     12  C   UNL     1       2.277  14.081  19.704  0.00  0.00    +0.000 C 
ATOM     13  C   UNL     1       2.146  12.993  20.770  0.00  0.00    +0.000 C 
ATOM     14  N   UNL     1       0.781  12.911  21.304  0.00  0.00    +0.000 NA
ATOM     15  C   UNL     1       0.466  14.202  21.955  0.00  0.00    +0.000 C 
ATOM     16  C   UNL     1       1.012  15.482  21.296  0.00  0.00    +0.000 C 
ATOM     17  O   UNL     1       0.770  16.546  21.872  0.00  0.00    +0.000 OA
BRANCH  14  18
ATOM     18  C   UNL     1      -0.248  12.524  20.327  0.00  0.00    +0.000 C 
BRANCH  18  19
ATOM     19  C   UNL     1      -0.853  11.141  20.634  0.00  0.00    +0.000 C 
BRANCH  19  20
ATOM     20  C   UNL     1       0.092   9.999  20.342  0.00  0.00    +0.000 A 
ATOM     21  C   UNL     1       0.702   9.901  19.081  0.00  0.00    +0.000 A 
ATOM     22  C   UNL     1       1.603   8.872  18.812  0.00  0.00    +0.000 A 
ATOM     23  C   UNL     1       1.889   7.938  19.800  0.00  0.00    +0.000 A 
ATOM     24  F   UNL     1       2.761   6.953  19.543  0.00  0.00    +0.000 F 
ATOM     25  C   UNL     1       1.289   8.013  21.052  0.00  0.00    +0.000 A 
ATOM     26  C   UNL     1       0.386   9.042  21.323  0.00  0.00    +0.000 A 
ENDBRANCH  19  20
ENDBRANCH  18  19
ENDBRANCH  14  18
ENDBRANCH   9  11
BRANCH   1  27
ATOM     27  C   UNL     1       8.370  14.294  19.870  0.00  0.00    +0.000 C 
BRANCH  27  35
ATOM     28  C   UNL     1      11.191  14.801  19.120  0.00  0.00    +0.000 C 
ATOM     29  C   UNL     1      10.183  14.054  18.233  0.00  0.00    +0.000 C 
ATOM     30  C   UNL     1      10.910  13.132  17.233  0.00  0.00    +0.000 C 
ATOM     31  C   UNL     1      11.303  11.793  17.831  0.00  0.00    +0.000 C 
ATOM     32  C   UNL     1      10.068  11.141  18.438  0.00  0.00    +0.000 C 
ATOM     33  C   UNL     1       9.404  12.038  19.503  0.00  0.00    +0.000 C 
ATOM     34  C   UNL     1      10.245  11.996  20.790  0.00  0.00    +0.000 C 
ATOM     35  N   UNL     1       9.085  13.374  18.958  0.00  0.00    +0.000 NA
ENDBRANCH  27  35
ENDBRANCH   1  27
TORSDOF 6
ENDMDL
MODEL 9
REMARK VINA RESULT:      -7.6      5.636      9.111
REMARK  Name = 
REMARK  8 active torsions:
REMARK  status: ('A' for Active; 'I' for Inactive)
REMARK    1  A    between atoms: C_1  and  C_2
REMARK    2  A    between atoms: C_6  and  C_7
REMARK    3  A    between atoms: N_8  and  C_9
REMARK    4  A    between atoms: C_9  and  C_10
REMARK    5  A    between atoms: C_18  and  N_19
REMARK    6  A    between atoms: N_22  and  C_23
REMARK    7  A    between atoms: C_23  and  C_24
REMARK    8  A    between atoms: C_24  and  C_25
REMARK                            x       y       z     vdW  Elec       q    Type
REMARK                         _______ _______ _______ _____ _____    ______ ____
ROOT
ATOM      1  C   UNL     1       1.992   7.022  19.660  0.00  0.00    +0.000 A 
ATOM      2  C   UNL     1       2.227   7.278  18.309  0.00  0.00    +0.000 A 
ATOM      3  C   UNL     1       2.172   8.583  17.808  0.00  0.00    +0.000 A 
ATOM      4  C   UNL     1       1.811   9.652  18.642  0.00  0.00    +0.000 A 
ATOM      5  C   UNL     1       1.587   9.413  20.004  0.00  0.00    +0.000 A 
ATOM      6  C   UNL     1       1.715   8.105  20.501  0.00  0.00    +0.000 A 
ATOM      7  C   UNL     1       1.056  10.478  20.930  0.00  0.00    +0.000 C 
ATOM      8  C   UNL     1       1.020  11.875  20.315  0.00  0.00    +0.000 C 
ATOM      9  C   UNL     1       0.535  11.832  18.848  0.00  0.00    +0.000 C 
ATOM     10  C   UNL     1       1.598  11.031  18.061  0.00  0.00    +0.000 C 
ENDROOT
BRANCH   9  11
ATOM     11  N   UNL     1      -0.898  11.410  18.741  0.00  0.00    +0.000 N 
ATOM     12  C   UNL     1      -1.217  10.446  17.689  0.00  0.00    +0.000 C 
ATOM     13  C   UNL     1      -2.557   9.739  17.894  0.00  0.00    +0.000 C 
ATOM     14  N   UNL     1      -3.655  10.693  18.093  0.00  0.00    +0.000 NA
ATOM     15  C   UNL     1      -3.373  11.463  19.325  0.00  0.00    +0.000 C 
ATOM     16  C   UNL     1      -1.906  11.831  19.613  0.00  0.00    +0.000 C 
ATOM     17  O   UNL     1      -1.686  12.442  20.662  0.00  0.00    +0.000 OA
BRANCH  14  18
ATOM     18  C   UNL     1      -3.931  11.573  16.947  0.00  0.00    +0.000 C 
BRANCH  18  19
ATOM     19  C   UNL     1      -5.430  11.897  16.809  0.00  0.00    +0.000 C 
BRANCH  19  20
ATOM     20  C   UNL     1      -6.118  12.113  18.136  0.00  0.00    +0.000 A 
ATOM     21  C   UNL     1      -6.767  11.042  18.770  0.00  0.00    +0.000 A 
ATOM     22  C   UNL     1      -7.375  11.221  20.012  0.00  0.00    +0.000 A 
ATOM     23  C   UNL     1      -7.339  12.471  20.617  0.00  0.00    +0.000 A 
ATOM     24  F   UNL     1      -7.917  12.641  21.814  0.00  0.00    +0.000 F 
ATOM     25  C   UNL     1      -6.709  13.547  20.001  0.00  0.00    +0.000 A 
ATOM     26  C   UNL     1      -6.100  13.369  18.758  0.00  0.00    +0.000 A 
ENDBRANCH  19  20
ENDBRANCH  18  19
ENDBRANCH  14  18
ENDBRANCH   9  11
BRANCH   1  27
ATOM     27  C   UNL     1       2.045   5.616  20.232  0.00  0.00    +0.000 C 
BRANCH  27  35
ATOM     28  C   UNL     1       4.328   3.857  19.543  0.00  0.00    +0.000 C 
ATOM     29  C   UNL     1       3.150   4.152  18.601  0.00  0.00    +0.000 C 
ATOM     30  C   UNL     1       2.994   3.033  17.552  0.00  0.00    +0.000 C 
ATOM     31  C   UNL     1       2.218   1.833  18.068  0.00  0.00    +0.000 C 
ATOM     32  C   UNL     1       0.882   2.310  18.621  0.00  0.00    +0.000 C 
ATOM     33  C   UNL     1       1.058   3.364  19.734  0.00  0.00    +0.000 C 
ATOM     34  C   UNL     1       1.513   2.661  21.024  0.00  0.00    +0.000 C 
ATOM     35  N   UNL     1       1.878   4.503  19.272  0.00  0.00    +0.000 NA
ENDBRANCH  27  35
ENDBRANCH   1  27
TORSDOF 6
ENDMDL
