MODEL 1
REMARK VINA RESULT:      -8.9      0.000      0.000
REMARK  Name = 
REMARK  7 active torsions:
REMARK  status: ('A' for Active; 'I' for Inactive)
REMARK    1  A    between atoms: C_1  and  O_2
REMARK    2  A    between atoms: O_2  and  C_3
REMARK    3  A    between atoms: C_5  and  C_6
REMARK    4  A    between atoms: C_12  and  C_13
REMARK    5  A    between atoms: C_16  and  C_17
REMARK    6  A    between atoms: C_22  and  C_23
REMARK    7  A    between atoms: N_26  and  C_27
REMARK                            x       y       z     vdW  Elec       q    Type
REMARK                         _______ _______ _______ _____ _____    ______ ____
ROOT
ATOM      1  C   UNL     1       2.419   7.901  18.388  0.00  0.00    +0.000 A 
ATOM      2  C   UNL     1       1.678   8.928  17.834  0.00  0.00    +0.000 A 
ATOM      3  C   UNL     1       0.950   9.680  18.797  0.00  0.00    +0.000 A 
ATOM      4  C   UNL     1       1.052   9.157  20.069  0.00  0.00    +0.000 A 
ATOM      5  S   UNL     1       2.133   7.827  20.084  0.00  0.00    +0.000 S 
ENDROOT
BRANCH   4   6
ATOM      6  C   UNL     1       0.419   9.624  21.275  0.00  0.00    +0.000 A 
ATOM      7  C   UNL     1       0.615   9.212  22.583  0.00  0.00    +0.000 A 
ATOM      8  N   UNL     1      -0.126   9.947  23.470  0.00  0.00    +0.000 NA
ATOM      9  C   UNL     1      -0.798  10.799  22.729  0.00  0.00    +0.000 A 
ATOM     10  C   UNL     1      -1.721  11.818  23.103  0.00  0.00    +0.000 A 
ATOM     11  C   UNL     1      -2.343  12.584  22.173  0.00  0.00    +0.000 A 
ATOM     12  C   UNL     1      -2.055  12.335  20.753  0.00  0.00    +0.000 A 
ATOM     13  C   UNL     1      -1.191  11.374  20.393  0.00  0.00    +0.000 A 
ATOM     14  N   UNL     1      -0.539  10.623  21.373  0.00  0.00    +0.000 N 
BRANCH  11  15
ATOM     15  C   UNL     1      -3.272  13.615  22.530  0.00  0.00    +0.000 A 
ATOM     16  C   UNL     1      -4.426  14.049  21.842  0.00  0.00    +0.000 A 
ATOM     17  N   UNL     1      -5.048  15.054  22.458  0.00  0.00    +0.000 NA
ATOM     18  N   UNL     1      -4.292  15.266  23.552  0.00  0.00    +0.000 N 
ATOM     19  C   UNL     1      -4.647  16.302  24.492  0.00  0.00    +0.000 C 
ATOM     20  C   UNL     1      -3.217  14.426  23.643  0.00  0.00    +0.000 A 
ENDBRANCH  11  15
ENDBRANCH   4   6
BRANCH   1  26
ATOM     21  C   UNL     1       3.233   5.557  17.865  0.00  0.00    +0.000 A 
ATOM     22  C   UNL     1       4.154   4.701  17.247  0.00  0.00    +0.000 A 
ATOM     23  C   UNL     1       5.240   5.203  16.523  0.00  0.00    +0.000 A 
ATOM     24  C   UNL     1       5.355   6.586  16.360  0.00  0.00    +0.000 A 
ATOM     25  C   UNL     1       4.423   7.448  16.946  0.00  0.00    +0.000 A 
ATOM     26  C   UNL     1       3.349   6.960  17.719  0.00  0.00    +0.000 A 
BRANCH  23  27
ATOM     27  C   UNL     1       6.281   4.268  15.960  0.00  0.00    +0.000 C 
ATOM     28  F   UNL     1       7.365   4.119  16.771  0.00  0.00    +0.000 F 
ATOM     29  F   UNL     1       5.802   3.016  15.736  0.00  0.00    +0.000 F 
ATOM     30  F   UNL     1       6.771   4.706  14.767  0.00  0.00    +0.000 F 
ENDBRANCH  23  27
BRANCH  21  32
ATOM     31  C   UNL     1       1.455   3.996  17.929  0.00  0.00    +0.000 C 
ATOM     32  O   UNL     1       2.168   5.050  18.575  0.00  0.00    +0.000 OA
ENDBRANCH  21  32
ENDBRANCH   1  26
TORSDOF 5
ENDMDL
MODEL 2
REMARK VINA RESULT:      -8.7      2.575      3.212
REMARK  Name = 
REMARK  7 active torsions:
REMARK  status: ('A' for Active; 'I' for Inactive)
REMARK    1  A    between atoms: C_1  and  O_2
REMARK    2  A    between atoms: O_2  and  C_3
REMARK    3  A    between atoms: C_5  and  C_6
REMARK    4  A    between atoms: C_12  and  C_13
REMARK    5  A    between atoms: C_16  and  C_17
REMARK    6  A    between atoms: C_22  and  C_23
REMARK    7  A    between atoms: N_26  and  C_27
REMARK                            x       y       z     vdW  Elec       q    Type
REMARK                         _______ _______ _______ _____ _____    ______ ____
ROOT
ATOM      1  C   UNL     1       2.613   7.396  18.742  0.00  0.00    +0.000 A 
ATOM      2  C   UNL     1       2.287   7.145  20.062  0.00  0.00    +0.000 A 
ATOM      3  C   UNL     1       1.400   8.109  20.615  0.00  0.00    +0.000 A 
ATOM      4  C   UNL     1       1.137   9.151  19.750  0.00  0.00    +0.000 A 
ATOM      5  S   UNL     1       1.885   8.871  18.233  0.00  0.00    +0.000 S 
ENDROOT
BRANCH   4   6
ATOM      6  C   UNL     1       0.327  10.317  19.983  0.00  0.00    +0.000 A 
ATOM      7  C   UNL     1       0.612  11.446  20.731  0.00  0.00    +0.000 A 
ATOM      8  N   UNL     1      -0.388  12.379  20.658  0.00  0.00    +0.000 NA
ATOM      9  C   UNL     1      -1.305  11.836  19.888  0.00  0.00    +0.000 A 
ATOM     10  C   UNL     1      -2.561  12.345  19.450  0.00  0.00    +0.000 A 
ATOM     11  C   UNL     1      -3.390  11.606  18.673  0.00  0.00    +0.000 A 
ATOM     12  C   UNL     1      -2.973  10.249  18.294  0.00  0.00    +0.000 A 
ATOM     13  C   UNL     1      -1.793   9.761  18.707  0.00  0.00    +0.000 A 
ATOM     14  N   UNL     1      -0.944  10.555  19.478  0.00  0.00    +0.000 N 
BRANCH  11  15
ATOM     15  C   UNL     1      -4.657  12.102  18.220  0.00  0.00    +0.000 A 
ATOM     16  C   UNL     1      -5.232  12.027  16.934  0.00  0.00    +0.000 A 
ATOM     17  N   UNL     1      -6.425  12.619  16.866  0.00  0.00    +0.000 NA
ATOM     18  N   UNL     1      -6.620  13.074  18.118  0.00  0.00    +0.000 N 
ATOM     19  C   UNL     1      -7.828  13.791  18.451  0.00  0.00    +0.000 C 
ATOM     20  C   UNL     1      -5.590  12.787  18.969  0.00  0.00    +0.000 A 
ENDBRANCH  11  15
ENDBRANCH   4   6
BRANCH   1  26
ATOM     21  C   UNL     1       3.406   5.171  17.820  0.00  0.00    +0.000 A 
ATOM     22  C   UNL     1       4.235   4.439  16.959  0.00  0.00    +0.000 A 
ATOM     23  C   UNL     1       5.158   5.076  16.123  0.00  0.00    +0.000 A 
ATOM     24  C   UNL     1       5.193   6.472  16.105  0.00  0.00    +0.000 A 
ATOM     25  C   UNL     1       4.348   7.212  16.937  0.00  0.00    +0.000 A 
ATOM     26  C   UNL     1       3.444   6.585  17.819  0.00  0.00    +0.000 A 
BRANCH  23  27
ATOM     27  C   UNL     1       6.117   4.266  15.287  0.00  0.00    +0.000 C 
ATOM     28  F   UNL     1       5.961   2.922  15.438  0.00  0.00    +0.000 F 
ATOM     29  F   UNL     1       5.997   4.512  13.956  0.00  0.00    +0.000 F 
ATOM     30  F   UNL     1       7.417   4.524  15.605  0.00  0.00    +0.000 F 
ENDBRANCH  23  27
BRANCH  21  32
ATOM     31  C   UNL     1       1.598   3.651  17.970  0.00  0.00    +0.000 C 
ATOM     32  O   UNL     1       2.502   4.532  18.637  0.00  0.00    +0.000 OA
ENDBRANCH  21  32
ENDBRANCH   1  26
TORSDOF 5
ENDMDL
MODEL 3
REMARK VINA RESULT:      -8.4      1.227      2.071
REMARK  Name = 
REMARK  7 active torsions:
REMARK  status: ('A' for Active; 'I' for Inactive)
REMARK    1  A    between atoms: C_1  and  O_2
REMARK    2  A    between atoms: O_2  and  C_3
REMARK    3  A    between atoms: C_5  and  C_6
REMARK    4  A    between atoms: C_12  and  C_13
REMARK    5  A    between atoms: C_16  and  C_17
REMARK    6  A    between atoms: C_22  and  C_23
REMARK    7  A    between atoms: N_26  and  C_27
REMARK                            x       y       z     vdW  Elec       q    Type
REMARK                         _______ _______ _______ _____ _____    ______ ____
ROOT
ATOM      1  C   UNL     1       2.525   7.629  18.648  0.00  0.00    +0.000 A 
ATOM      2  C   UNL     1       2.139   7.549  19.973  0.00  0.00    +0.000 A 
ATOM      3  C   UNL     1       1.134   8.491  20.325  0.00  0.00    +0.000 A 
ATOM      4  C   UNL     1       0.834   9.359  19.296  0.00  0.00    +0.000 A 
ATOM      5  S   UNL     1       1.700   8.931  17.881  0.00  0.00    +0.000 S 
ENDROOT
BRANCH   4   6
ATOM      6  C   UNL     1      -0.094  10.460  19.304  0.00  0.00    +0.000 A 
ATOM      7  C   UNL     1      -0.688  11.112  18.237  0.00  0.00    +0.000 A 
ATOM      8  N   UNL     1      -1.574  12.073  18.650  0.00  0.00    +0.000 NA
ATOM      9  C   UNL     1      -1.523  12.042  19.963  0.00  0.00    +0.000 A 
ATOM     10  C   UNL     1      -2.234  12.808  20.932  0.00  0.00    +0.000 A 
ATOM     11  C   UNL     1      -2.014  12.646  22.259  0.00  0.00    +0.000 A 
ATOM     12  C   UNL     1      -1.009  11.663  22.690  0.00  0.00    +0.000 A 
ATOM     13  C   UNL     1      -0.333  10.941  21.783  0.00  0.00    +0.000 A 
ATOM     14  N   UNL     1      -0.603  11.104  20.424  0.00  0.00    +0.000 N 
BRANCH  11  15
ATOM     15  C   UNL     1      -2.720  13.405  23.249  0.00  0.00    +0.000 A 
ATOM     16  C   UNL     1      -3.596  12.952  24.258  0.00  0.00    +0.000 A 
ATOM     17  N   UNL     1      -4.095  13.946  24.994  0.00  0.00    +0.000 NA
ATOM     18  N   UNL     1      -3.533  15.046  24.457  0.00  0.00    +0.000 N 
ATOM     19  C   UNL     1      -3.835  16.352  24.991  0.00  0.00    +0.000 C 
ATOM     20  C   UNL     1      -2.697  14.774  23.410  0.00  0.00    +0.000 A 
ENDBRANCH  11  15
ENDBRANCH   4   6
BRANCH   1  26
ATOM     21  C   UNL     1       3.452   5.365  17.984  0.00  0.00    +0.000 A 
ATOM     22  C   UNL     1       4.400   4.594  17.298  0.00  0.00    +0.000 A 
ATOM     23  C   UNL     1       5.432   5.192  16.568  0.00  0.00    +0.000 A 
ATOM     24  C   UNL     1       5.465   6.586  16.472  0.00  0.00    +0.000 A 
ATOM     25  C   UNL     1       4.504   7.363  17.128  0.00  0.00    +0.000 A 
ATOM     26  C   UNL     1       3.484   6.777  17.905  0.00  0.00    +0.000 A 
BRANCH  23  27
ATOM     27  C   UNL     1       6.505   4.347  15.929  0.00  0.00    +0.000 C 
ATOM     28  F   UNL     1       6.066   3.117  15.546  0.00  0.00    +0.000 F 
ATOM     29  F   UNL     1       7.039   4.920  14.818  0.00  0.00    +0.000 F 
ATOM     30  F   UNL     1       7.548   4.119  16.776  0.00  0.00    +0.000 F 
ENDBRANCH  23  27
BRANCH  21  32
ATOM     31  C   UNL     1       1.457   4.092  17.911  0.00  0.00    +0.000 C 
ATOM     32  O   UNL     1       2.441   4.763  18.698  0.00  0.00    +0.000 OA
ENDBRANCH  21  32
ENDBRANCH   1  26
TORSDOF 5
ENDMDL
MODEL 4
REMARK VINA RESULT:      -8.3      1.035      1.260
REMARK  Name = 
REMARK  7 active torsions:
REMARK  status: ('A' for Active; 'I' for Inactive)
REMARK    1  A    between atoms: C_1  and  O_2
REMARK    2  A    between atoms: O_2  and  C_3
REMARK    3  A    between atoms: C_5  and  C_6
REMARK    4  A    between atoms: C_12  and  C_13
REMARK    5  A    between atoms: C_16  and  C_17
REMARK    6  A    between atoms: C_22  and  C_23
REMARK    7  A    between atoms: N_26  and  C_27
REMARK                            x       y       z     vdW  Elec       q    Type
REMARK                         _______ _______ _______ _____ _____    ______ ____
ROOT
ATOM      1  C   UNL     1       2.363   7.858  18.389  0.00  0.00    +0.000 A 
ATOM      2  C   UNL     1       1.609   8.846  17.783  0.00  0.00    +0.000 A 
ATOM      3  C   UNL     1       0.815   9.590  18.699  0.00  0.00    +0.000 A 
ATOM      4  C   UNL     1       0.883   9.097  19.986  0.00  0.00    +0.000 A 
ATOM      5  S   UNL     1       2.009   7.809  20.074  0.00  0.00    +0.000 S 
ENDROOT
BRANCH   4   6
ATOM      6  C   UNL     1       0.185   9.565  21.154  0.00  0.00    +0.000 A 
ATOM      7  C   UNL     1      -0.145   8.879  22.311  0.00  0.00    +0.000 A 
ATOM      8  N   UNL     1      -0.752   9.688  23.234  0.00  0.00    +0.000 NA
ATOM      9  C   UNL     1      -0.824  10.868  22.659  0.00  0.00    +0.000 A 
ATOM     10  C   UNL     1      -1.347  12.101  23.145  0.00  0.00    +0.000 A 
ATOM     11  C   UNL     1      -1.358  13.216  22.374  0.00  0.00    +0.000 A 
ATOM     12  C   UNL     1      -0.825  13.129  21.007  0.00  0.00    +0.000 A 
ATOM     13  C   UNL     1      -0.335  11.971  20.541  0.00  0.00    +0.000 A 
ATOM     14  N   UNL     1      -0.305  10.846  21.367  0.00  0.00    +0.000 N 
BRANCH  11  15
ATOM     15  C   UNL     1      -1.878  14.466  22.846  0.00  0.00    +0.000 A 
ATOM     16  C   UNL     1      -2.619  15.441  22.146  0.00  0.00    +0.000 A 
ATOM     17  N   UNL     1      -2.923  16.498  22.898  0.00  0.00    +0.000 NA
ATOM     18  N   UNL     1      -2.378  16.200  24.093  0.00  0.00    +0.000 N 
ATOM     19  C   UNL     1      -2.493  17.122  25.196  0.00  0.00    +0.000 C 
ATOM     20  C   UNL     1      -1.743  14.989  24.114  0.00  0.00    +0.000 A 
ENDBRANCH  11  15
ENDBRANCH   4   6
BRANCH   1  26
ATOM     21  C   UNL     1       3.219   5.532  17.858  0.00  0.00    +0.000 A 
ATOM     22  C   UNL     1       4.195   4.695  17.301  0.00  0.00    +0.000 A 
ATOM     23  C   UNL     1       5.349   5.217  16.709  0.00  0.00    +0.000 A 
ATOM     24  C   UNL     1       5.484   6.605  16.614  0.00  0.00    +0.000 A 
ATOM     25  C   UNL     1       4.499   7.449  17.138  0.00  0.00    +0.000 A 
ATOM     26  C   UNL     1       3.352   6.938  17.779  0.00  0.00    +0.000 A 
BRANCH  23  27
ATOM     27  C   UNL     1       6.439   4.299  16.217  0.00  0.00    +0.000 C 
ATOM     28  F   UNL     1       5.979   3.077  15.828  0.00  0.00    +0.000 F 
ATOM     29  F   UNL     1       7.115   4.803  15.151  0.00  0.00    +0.000 F 
ATOM     30  F   UNL     1       7.374   4.053  17.177  0.00  0.00    +0.000 F 
ENDBRANCH  23  27
BRANCH  21  32
ATOM     31  C   UNL     1       1.602   3.803  17.838  0.00  0.00    +0.000 C 
ATOM     32  O   UNL     1       2.088   5.004  18.437  0.00  0.00    +0.000 OA
ENDBRANCH  21  32
ENDBRANCH   1  26
TORSDOF 5
ENDMDL
MODEL 5
REMARK VINA RESULT:      -8.2      2.355      2.914
REMARK  Name = 
REMARK  7 active torsions:
REMARK  status: ('A' for Active; 'I' for Inactive)
REMARK    1  A    between atoms: C_1  and  O_2
REMARK    2  A    between atoms: O_2  and  C_3
REMARK    3  A    between atoms: C_5  and  C_6
REMARK    4  A    between atoms: C_12  and  C_13
REMARK    5  A    between atoms: C_16  and  C_17
REMARK    6  A    between atoms: C_22  and  C_23
REMARK    7  A    between atoms: N_26  and  C_27
REMARK                            x       y       z     vdW  Elec       q    Type
REMARK                         _______ _______ _______ _____ _____    ______ ____
ROOT
ATOM      1  C   UNL     1       2.624   6.553  19.092  0.00  0.00    +0.000 A 
ATOM      2  C   UNL     1       2.103   5.888  20.187  0.00  0.00    +0.000 A 
ATOM      3  C   UNL     1       1.339   6.727  21.044  0.00  0.00    +0.000 A 
ATOM      4  C   UNL     1       1.370   8.051  20.659  0.00  0.00    +0.000 A 
ATOM      5  S   UNL     1       2.233   8.227  19.189  0.00  0.00    +0.000 S 
ENDROOT
BRANCH   4   6
ATOM      6  C   UNL     1       0.755   9.180  21.308  0.00  0.00    +0.000 A 
ATOM      7  C   UNL     1       0.326   9.309  22.618  0.00  0.00    +0.000 A 
ATOM      8  N   UNL     1      -0.147  10.567  22.882  0.00  0.00    +0.000 NA
ATOM      9  C   UNL     1      -0.037  11.219  21.746  0.00  0.00    +0.000 A 
ATOM     10  C   UNL     1      -0.362  12.567  21.421  0.00  0.00    +0.000 A 
ATOM     11  C   UNL     1      -0.202  13.049  20.163  0.00  0.00    +0.000 A 
ATOM     12  C   UNL     1       0.308  12.143  19.125  0.00  0.00    +0.000 A 
ATOM     13  C   UNL     1       0.612  10.870  19.423  0.00  0.00    +0.000 A 
ATOM     14  N   UNL     1       0.470  10.410  20.732  0.00  0.00    +0.000 N 
BRANCH  11  15
ATOM     15  C   UNL     1      -0.521  14.403  19.817  0.00  0.00    +0.000 A 
ATOM     16  C   UNL     1      -1.401  15.300  20.459  0.00  0.00    +0.000 A 
ATOM     17  N   UNL     1      -1.471  16.482  19.848  0.00  0.00    +0.000 NA
ATOM     18  N   UNL     1      -0.627  16.347  18.807  0.00  0.00    +0.000 N 
ATOM     19  C   UNL     1      -0.427  17.439  17.885  0.00  0.00    +0.000 C 
ATOM     20  C   UNL     1      -0.029  15.119  18.747  0.00  0.00    +0.000 A 
ENDBRANCH  11  15
ENDBRANCH   4   6
BRANCH   1  26
ATOM     21  C   UNL     1       3.343   4.639  17.592  0.00  0.00    +0.000 A 
ATOM     22  C   UNL     1       4.124   4.152  16.536  0.00  0.00    +0.000 A 
ATOM     23  C   UNL     1       5.023   4.979  15.855  0.00  0.00    +0.000 A 
ATOM     24  C   UNL     1       5.081   6.332  16.197  0.00  0.00    +0.000 A 
ATOM     25  C   UNL     1       4.281   6.835  17.229  0.00  0.00    +0.000 A 
ATOM     26  C   UNL     1       3.404   6.005  17.956  0.00  0.00    +0.000 A 
BRANCH  23  27
ATOM     27  C   UNL     1       5.935   4.409  14.797  0.00  0.00    +0.000 C 
ATOM     28  F   UNL     1       6.965   5.238  14.470  0.00  0.00    +0.000 F 
ATOM     29  F   UNL     1       6.503   3.230  15.166  0.00  0.00    +0.000 F 
ATOM     30  F   UNL     1       5.275   4.163  13.631  0.00  0.00    +0.000 F 
ENDBRANCH  23  27
BRANCH  21  32
ATOM     31  C   UNL     1       2.657   2.418  18.035  0.00  0.00    +0.000 C 
ATOM     32  O   UNL     1       2.461   3.815  18.253  0.00  0.00    +0.000 OA
ENDBRANCH  21  32
ENDBRANCH   1  26
TORSDOF 5
ENDMDL
MODEL 6
REMARK VINA RESULT:      -8.0      6.980     11.837
REMARK  Name = 
REMARK  7 active torsions:
REMARK  status: ('A' for Active; 'I' for Inactive)
REMARK    1  A    between atoms: C_1  and  O_2
REMARK    2  A    between atoms: O_2  and  C_3
REMARK    3  A    between atoms: C_5  and  C_6
REMARK    4  A    between atoms: C_12  and  C_13
REMARK    5  A    between atoms: C_16  and  C_17
REMARK    6  A    between atoms: C_22  and  C_23
REMARK    7  A    between atoms: N_26  and  C_27
REMARK                            x       y       z     vdW  Elec       q    Type
REMARK                         _______ _______ _______ _____ _____    ______ ____
ROOT
ATOM      1  C   UNL     1      -1.441  12.176  22.249  0.00  0.00    +0.000 A 
ATOM      2  C   UNL     1      -0.993  11.082  22.966  0.00  0.00    +0.000 A 
ATOM      3  C   UNL     1      -0.131  10.233  22.217  0.00  0.00    +0.000 A 
ATOM      4  C   UNL     1      -0.012  10.623  20.899  0.00  0.00    +0.000 A 
ATOM      5  S   UNL     1      -0.860  12.088  20.631  0.00  0.00    +0.000 S 
ENDROOT
BRANCH   4   6
ATOM      6  C   UNL     1       0.733   9.983  19.848  0.00  0.00    +0.000 A 
ATOM      7  C   UNL     1       1.080  10.470  18.598  0.00  0.00    +0.000 A 
ATOM      8  N   UNL     1       1.857   9.586  17.899  0.00  0.00    +0.000 NA
ATOM      9  C   UNL     1       1.983   8.543  18.689  0.00  0.00    +0.000 A 
ATOM     10  C   UNL     1       2.691   7.321  18.498  0.00  0.00    +0.000 A 
ATOM     11  C   UNL     1       2.673   6.341  19.434  0.00  0.00    +0.000 A 
ATOM     12  C   UNL     1       1.891   6.556  20.660  0.00  0.00    +0.000 A 
ATOM     13  C   UNL     1       1.218   7.702  20.845  0.00  0.00    +0.000 A 
ATOM     14  N   UNL     1       1.282   8.708  19.880  0.00  0.00    +0.000 N 
BRANCH  11  15
ATOM     15  C   UNL     1       3.380   5.106  19.261  0.00  0.00    +0.000 A 
ATOM     16  C   UNL     1       4.766   4.858  19.344  0.00  0.00    +0.000 A 
ATOM     17  N   UNL     1       5.079   3.584  19.104  0.00  0.00    +0.000 NA
ATOM     18  N   UNL     1       3.884   3.008  18.870  0.00  0.00    +0.000 N 
ATOM     19  C   UNL     1       3.804   1.601  18.561  0.00  0.00    +0.000 C 
ATOM     20  C   UNL     1       2.834   3.878  18.956  0.00  0.00    +0.000 A 
ENDBRANCH  11  15
ENDBRANCH   4   6
BRANCH   1  26
ATOM     21  C   UNL     1      -1.731  14.499  23.222  0.00  0.00    +0.000 A 
ATOM     22  C   UNL     1      -2.564  15.528  23.680  0.00  0.00    +0.000 A 
ATOM     23  C   UNL     1      -3.955  15.385  23.697  0.00  0.00    +0.000 A 
ATOM     24  C   UNL     1      -4.514  14.215  23.178  0.00  0.00    +0.000 A 
ATOM     25  C   UNL     1      -3.692  13.195  22.688  0.00  0.00    +0.000 A 
ATOM     26  C   UNL     1      -2.287  13.304  22.707  0.00  0.00    +0.000 A 
BRANCH  23  27
ATOM     27  C   UNL     1      -4.827  16.459  24.298  0.00  0.00    +0.000 C 
ATOM     28  F   UNL     1      -4.792  17.631  23.606  0.00  0.00    +0.000 F 
ATOM     29  F   UNL     1      -6.136  16.101  24.366  0.00  0.00    +0.000 F 
ATOM     30  F   UNL     1      -4.452  16.770  25.570  0.00  0.00    +0.000 F 
ENDBRANCH  23  27
BRANCH  21  32
ATOM     31  C   UNL     1       0.127  15.647  22.311  0.00  0.00    +0.000 C 
ATOM     32  O   UNL     1      -0.364  14.654  23.210  0.00  0.00    +0.000 OA
ENDBRANCH  21  32
ENDBRANCH   1  26
TORSDOF 5
ENDMDL
MODEL 7
REMARK VINA RESULT:      -8.0      6.208     10.951
REMARK  Name = 
REMARK  7 active torsions:
REMARK  status: ('A' for Active; 'I' for Inactive)
REMARK    1  A    between atoms: C_1  and  O_2
REMARK    2  A    between atoms: O_2  and  C_3
REMARK    3  A    between atoms: C_5  and  C_6
REMARK    4  A    between atoms: C_12  and  C_13
REMARK    5  A    between atoms: C_16  and  C_17
REMARK    6  A    between atoms: C_22  and  C_23
REMARK    7  A    between atoms: N_26  and  C_27
REMARK                            x       y       z     vdW  Elec       q    Type
REMARK                         _______ _______ _______ _____ _____    ______ ____
ROOT
ATOM      1  C   UNL     1       0.968  10.248  20.189  0.00  0.00    +0.000 A 
ATOM      2  C   UNL     1       0.618   9.496  21.296  0.00  0.00    +0.000 A 
ATOM      3  C   UNL     1       1.093   8.157  21.240  0.00  0.00    +0.000 A 
ATOM      4  C   UNL     1       1.711   7.860  20.043  0.00  0.00    +0.000 A 
ATOM      5  S   UNL     1       1.805   9.258  19.056  0.00  0.00    +0.000 S 
ENDROOT
BRANCH   4   6
ATOM      6  C   UNL     1       2.268   6.603  19.619  0.00  0.00    +0.000 A 
ATOM      7  C   UNL     1       2.053   5.333  20.128  0.00  0.00    +0.000 A 
ATOM      8  N   UNL     1       2.713   4.372  19.410  0.00  0.00    +0.000 NA
ATOM      9  C   UNL     1       3.355   5.029  18.470  0.00  0.00    +0.000 A 
ATOM     10  C   UNL     1       4.196   4.554  17.423  0.00  0.00    +0.000 A 
ATOM     11  C   UNL     1       4.800   5.407  16.560  0.00  0.00    +0.000 A 
ATOM     12  C   UNL     1       4.580   6.850  16.732  0.00  0.00    +0.000 A 
ATOM     13  C   UNL     1       3.793   7.305  17.718  0.00  0.00    +0.000 A 
ATOM     14  N   UNL     1       3.156   6.403  18.571  0.00  0.00    +0.000 N 
BRANCH  11  15
ATOM     15  C   UNL     1       5.648   4.948  15.499  0.00  0.00    +0.000 A 
ATOM     16  C   UNL     1       7.046   5.074  15.362  0.00  0.00    +0.000 A 
ATOM     17  N   UNL     1       7.504   4.544  14.228  0.00  0.00    +0.000 NA
ATOM     18  N   UNL     1       6.393   4.070  13.633  0.00  0.00    +0.000 N 
ATOM     19  C   UNL     1       6.478   3.413  12.351  0.00  0.00    +0.000 C 
ATOM     20  C   UNL     1       5.254   4.285  14.357  0.00  0.00    +0.000 A 
ENDBRANCH  11  15
ENDBRANCH   4   6
BRANCH   1  26
ATOM     21  C   UNL     1      -0.193  12.118  18.932  0.00  0.00    +0.000 A 
ATOM     22  C   UNL     1      -0.374  13.485  18.685  0.00  0.00    +0.000 A 
ATOM     23  C   UNL     1       0.374  14.452  19.363  0.00  0.00    +0.000 A 
ATOM     24  C   UNL     1       1.265  14.036  20.355  0.00  0.00    +0.000 A 
ATOM     25  C   UNL     1       1.430  12.674  20.631  0.00  0.00    +0.000 A 
ATOM     26  C   UNL     1       0.717  11.685  19.924  0.00  0.00    +0.000 A 
BRANCH  23  27
ATOM     27  C   UNL     1       0.244  15.911  19.004  0.00  0.00    +0.000 C 
ATOM     28  F   UNL     1      -0.037  16.707  20.072  0.00  0.00    +0.000 F 
ATOM     29  F   UNL     1       1.371  16.420  18.441  0.00  0.00    +0.000 F 
ATOM     30  F   UNL     1      -0.759  16.130  18.108  0.00  0.00    +0.000 F 
ENDBRANCH  23  27
BRANCH  21  32
ATOM     31  C   UNL     1      -2.136  11.667  17.657  0.00  0.00    +0.000 C 
ATOM     32  O   UNL     1      -0.937  11.177  18.257  0.00  0.00    +0.000 OA
ENDBRANCH  21  32
ENDBRANCH   1  26
TORSDOF 5
ENDMDL
MODEL 8
REMARK VINA RESULT:      -8.0      2.272      2.810
REMARK  Name = 
REMARK  7 active torsions:
REMARK  status: ('A' for Active; 'I' for Inactive)
REMARK    1  A    between atoms: C_1  and  O_2
REMARK    2  A    between atoms: O_2  and  C_3
REMARK    3  A    between atoms: C_5  and  C_6
REMARK    4  A    between atoms: C_12  and  C_13
REMARK    5  A    between atoms: C_16  and  C_17
REMARK    6  A    between atoms: C_22  and  C_23
REMARK    7  A    between atoms: N_26  and  C_27
REMARK                            x       y       z     vdW  Elec       q    Type
REMARK                         _______ _______ _______ _____ _____    ______ ____
ROOT
ATOM      1  C   UNL     1       2.655   6.516  19.074  0.00  0.00    +0.000 A 
ATOM      2  C   UNL     1       2.137   5.854  20.171  0.00  0.00    +0.000 A 
ATOM      3  C   UNL     1       1.373   6.694  21.027  0.00  0.00    +0.000 A 
ATOM      4  C   UNL     1       1.401   8.018  20.639  0.00  0.00    +0.000 A 
ATOM      5  S   UNL     1       2.262   8.190  19.166  0.00  0.00    +0.000 S 
ENDROOT
BRANCH   4   6
ATOM      6  C   UNL     1       0.786   9.147  21.285  0.00  0.00    +0.000 A 
ATOM      7  C   UNL     1       0.364   9.282  22.597  0.00  0.00    +0.000 A 
ATOM      8  N   UNL     1      -0.112  10.539  22.858  0.00  0.00    +0.000 NA
ATOM      9  C   UNL     1      -0.012  11.185  21.717  0.00  0.00    +0.000 A 
ATOM     10  C   UNL     1      -0.346  12.530  21.386  0.00  0.00    +0.000 A 
ATOM     11  C   UNL     1      -0.196  13.005  20.126  0.00  0.00    +0.000 A 
ATOM     12  C   UNL     1       0.311  12.096  19.089  0.00  0.00    +0.000 A 
ATOM     13  C   UNL     1       0.623  10.826  19.392  0.00  0.00    +0.000 A 
ATOM     14  N   UNL     1       0.491  10.373  20.705  0.00  0.00    +0.000 N 
BRANCH  11  15
ATOM     15  C   UNL     1      -0.523  14.356  19.774  0.00  0.00    +0.000 A 
ATOM     16  C   UNL     1       0.001  15.157  18.738  0.00  0.00    +0.000 A 
ATOM     17  N   UNL     1      -0.523  16.382  18.715  0.00  0.00    +0.000 NA
ATOM     18  N   UNL     1      -1.394  16.369  19.742  0.00  0.00    +0.000 N 
ATOM     19  C   UNL     1      -2.173  17.544  20.050  0.00  0.00    +0.000 C 
ATOM     20  C   UNL     1      -1.434  15.175  20.406  0.00  0.00    +0.000 A 
ENDBRANCH  11  15
ENDBRANCH   4   6
BRANCH   1  26
ATOM     21  C   UNL     1       3.436   4.586  17.627  0.00  0.00    +0.000 A 
ATOM     22  C   UNL     1       4.215   4.100  16.569  0.00  0.00    +0.000 A 
ATOM     23  C   UNL     1       5.051   4.945  15.833  0.00  0.00    +0.000 A 
ATOM     24  C   UNL     1       5.045   6.312  16.123  0.00  0.00    +0.000 A 
ATOM     25  C   UNL     1       4.246   6.812  17.156  0.00  0.00    +0.000 A 
ATOM     26  C   UNL     1       3.433   5.966  17.938  0.00  0.00    +0.000 A 
BRANCH  23  27
ATOM     27  C   UNL     1       5.964   4.384  14.772  0.00  0.00    +0.000 C 
ATOM     28  F   UNL     1       5.355   4.226  13.564  0.00  0.00    +0.000 F 
ATOM     29  F   UNL     1       7.055   5.163  14.546  0.00  0.00    +0.000 F 
ATOM     30  F   UNL     1       6.441   3.152  15.107  0.00  0.00    +0.000 F 
ENDBRANCH  23  27
BRANCH  21  32
ATOM     31  C   UNL     1       3.236   2.541  18.801  0.00  0.00    +0.000 C 
ATOM     32  O   UNL     1       2.618   3.743  18.343  0.00  0.00    +0.000 OA
ENDBRANCH  21  32
ENDBRANCH   1  26
TORSDOF 5
ENDMDL
MODEL 9
REMARK VINA RESULT:      -8.0      6.918     11.764
REMARK  Name = 
REMARK  7 active torsions:
REMARK  status: ('A' for Active; 'I' for Inactive)
REMARK    1  A    between atoms: C_1  and  O_2
REMARK    2  A    between atoms: O_2  and  C_3
REMARK    3  A    between atoms: C_5  and  C_6
REMARK    4  A    between atoms: C_12  and  C_13
REMARK    5  A    between atoms: C_16  and  C_17
REMARK    6  A    between atoms: C_22  and  C_23
REMARK    7  A    between atoms: N_26  and  C_27
REMARK                            x       y       z     vdW  Elec       q    Type
REMARK                         _______ _______ _______ _____ _____    ______ ____
ROOT
ATOM      1  C   UNL     1      -1.436  12.249  22.440  0.00  0.00    +0.000 A 
ATOM      2  C   UNL     1      -1.099  11.074  23.085  0.00  0.00    +0.000 A 
ATOM      3  C   UNL     1      -0.284  10.214  22.298  0.00  0.00    +0.000 A 
ATOM      4  C   UNL     1      -0.092  10.687  21.017  0.00  0.00    +0.000 A 
ATOM      5  S   UNL     1      -0.812  12.232  20.836  0.00  0.00    +0.000 S 
ENDROOT
BRANCH   4   6
ATOM      6  C   UNL     1       0.634  10.066  19.940  0.00  0.00    +0.000 A 
ATOM      7  C   UNL     1       0.936  10.566  18.684  0.00  0.00    +0.000 A 
ATOM      8  N   UNL     1       1.708   9.700  17.957  0.00  0.00    +0.000 NA
ATOM      9  C   UNL     1       1.875   8.655  18.737  0.00  0.00    +0.000 A 
ATOM     10  C   UNL     1       2.597   7.447  18.518  0.00  0.00    +0.000 A 
ATOM     11  C   UNL     1       2.622   6.461  19.448  0.00  0.00    +0.000 A 
ATOM     12  C   UNL     1       1.873   6.655  20.697  0.00  0.00    +0.000 A 
ATOM     13  C   UNL     1       1.186   7.788  20.908  0.00  0.00    +0.000 A 
ATOM     14  N   UNL     1       1.205   8.801  19.948  0.00  0.00    +0.000 N 
BRANCH  11  15
ATOM     15  C   UNL     1       3.346   5.239  19.247  0.00  0.00    +0.000 A 
ATOM     16  C   UNL     1       4.740   5.023  19.245  0.00  0.00    +0.000 A 
ATOM     17  N   UNL     1       5.065   3.753  19.003  0.00  0.00    +0.000 NA
ATOM     18  N   UNL     1       3.872   3.147  18.852  0.00  0.00    +0.000 N 
ATOM     19  C   UNL     1       3.804   1.734  18.568  0.00  0.00    +0.000 C 
ATOM     20  C   UNL     1       2.809   3.995  18.993  0.00  0.00    +0.000 A 
ENDBRANCH  11  15
ENDBRANCH   4   6
BRANCH   1  26
ATOM     21  C   UNL     1      -3.603  13.521  22.782  0.00  0.00    +0.000 A 
ATOM     22  C   UNL     1      -4.288  14.649  23.254  0.00  0.00    +0.000 A 
ATOM     23  C   UNL     1      -3.608  15.713  23.854  0.00  0.00    +0.000 A 
ATOM     24  C   UNL     1      -2.228  15.604  24.046  0.00  0.00    +0.000 A 
ATOM     25  C   UNL     1      -1.541  14.468  23.607  0.00  0.00    +0.000 A 
ATOM     26  C   UNL     1      -2.204  13.407  22.958  0.00  0.00    +0.000 A 
BRANCH  23  27
ATOM     27  C   UNL     1      -4.348  16.965  24.253  0.00  0.00    +0.000 C 
ATOM     28  F   UNL     1      -5.092  17.496  23.244  0.00  0.00    +0.000 F 
ATOM     29  F   UNL     1      -5.206  16.766  25.289  0.00  0.00    +0.000 F 
ATOM     30  F   UNL     1      -3.501  17.957  24.648  0.00  0.00    +0.000 F 
ENDBRANCH  23  27
BRANCH  21  32
ATOM     31  C   UNL     1      -4.951  12.803  20.974  0.00  0.00    +0.000 C 
ATOM     32  O   UNL     1      -4.285  12.480  22.194  0.00  0.00    +0.000 OA
ENDBRANCH  21  32
ENDBRANCH   1  26
TORSDOF 5
ENDMDL
