MODEL 1
REMARK VINA RESULT:      -8.2      0.000      0.000
REMARK  Name = 
REMARK  7 active torsions:
REMARK  status: ('A' for Active; 'I' for Inactive)
REMARK    1  A    between atoms: C_1  and  N_2
REMARK    2  A    between atoms: C_3  and  C_5
REMARK    3  A    between atoms: C_7  and  C_8
REMARK    4  A    between atoms: C_10  and  C_11
REMARK    5  A    between atoms: C_20  and  C_21
REMARK    6  A    between atoms: C_23  and  N_24
REMARK    7  A    between atoms: N_25  and  C_26
REMARK                            x       y       z     vdW  Elec       q    Type
REMARK                         _______ _______ _______ _____ _____    ______ ____
ROOT
ATOM      1  C   UNL     1       2.404   5.634  19.240  0.00  0.00    +0.000 A 
ATOM      2  N   UNL     1       3.592   5.592  18.555  0.00  0.00    +0.000 NA
ATOM      3  C   UNL     1       4.145   4.337  18.282  0.00  0.00    +0.000 A 
ATOM      4  C   UNL     1       3.445   3.174  18.623  0.00  0.00    +0.000 A 
ATOM      5  C   UNL     1       3.915   1.762  18.501  0.00  0.00    +0.000 C 
ATOM      6  N   UNL     1       2.232   3.240  19.248  0.00  0.00    +0.000 NA
ATOM      7  C   UNL     1       1.743   4.447  19.589  0.00  0.00    +0.000 A 
ENDROOT
BRANCH   3   8
ATOM      8  C   UNL     1       5.603   4.437  17.923  0.00  0.00    +0.000 A 
ATOM      9  C   UNL     1       5.983   4.184  16.602  0.00  0.00    +0.000 A 
ATOM     10  N   UNL     1       6.449   5.337  16.019  0.00  0.00    +0.000 NA
ATOM     11  C   UNL     1       6.659   6.161  17.023  0.00  0.00    +0.000 A 
ATOM     12  C   UNL     1       7.269   7.445  17.087  0.00  0.00    +0.000 A 
ATOM     13  C   UNL     1       8.113   7.703  18.100  0.00  0.00    +0.000 A 
ATOM     14  C   UNL     1       8.366   6.692  19.124  0.00  0.00    +0.000 A 
ATOM     15  C   UNL     1       7.528   5.632  19.217  0.00  0.00    +0.000 A 
ATOM     16  N   UNL     1       6.546   5.446  18.215  0.00  0.00    +0.000 N 
ENDBRANCH   3   8
BRANCH   1  19
ATOM     17  C   UNL     1       1.113   8.553  20.938  0.00  0.00    +0.000 A 
ATOM     18  N   UNL     1       1.340   7.189  20.885  0.00  0.00    +0.000 NA
ATOM     19  C   UNL     1       1.801   6.936  19.657  0.00  0.00    +0.000 A 
ATOM     20  N   UNL     1       1.770   8.132  18.978  0.00  0.00    +0.000 N 
ATOM     21  C   UNL     1       2.290   8.486  17.684  0.00  0.00    +0.000 C 
ATOM     22  N   UNL     1       1.319   9.155  19.753  0.00  0.00    +0.000 NA
BRANCH  17  25
ATOM     23  C   UNL     1      -1.004  10.723  23.218  0.00  0.00    +0.000 C 
ATOM     24  N   UNL     1      -0.517   9.858  22.170  0.00  0.00    +0.000 N 
ATOM     25  C   UNL     1       0.757   9.304  22.180  0.00  0.00    +0.000 C 
ATOM     26  O   UNL     1       1.531   9.453  23.123  0.00  0.00    +0.000 OA
ATOM     27  H   UNL     1      -1.046   9.745  21.311  0.00  0.00    +0.000 HD
ENDBRANCH  17  25
ENDBRANCH   1  19
BRANCH   7  28
ATOM     28  N   UNL     1       0.650   4.406  20.454  0.00  0.00    +0.000 N 
ATOM     29  H   UNL     1      -0.208   4.366  19.917  0.00  0.00    +0.000 HD
ATOM     30  H   UNL     1       0.684   5.153  21.149  0.00  0.00    +0.000 HD
ENDBRANCH   7  28
TORSDOF 4
ENDMDL
MODEL 2
REMARK VINA RESULT:      -7.6      2.755      4.964
REMARK  Name = 
REMARK  7 active torsions:
REMARK  status: ('A' for Active; 'I' for Inactive)
REMARK    1  A    between atoms: C_1  and  N_2
REMARK    2  A    between atoms: C_3  and  C_5
REMARK    3  A    between atoms: C_7  and  C_8
REMARK    4  A    between atoms: C_10  and  C_11
REMARK    5  A    between atoms: C_20  and  C_21
REMARK    6  A    between atoms: C_23  and  N_24
REMARK    7  A    between atoms: N_25  and  C_26
REMARK                            x       y       z     vdW  Elec       q    Type
REMARK                         _______ _______ _______ _____ _____    ______ ____
ROOT
ATOM      1  C   UNL     1       1.616   8.741  19.538  0.00  0.00    +0.000 A 
ATOM      2  N   UNL     1       1.885   7.559  20.179  0.00  0.00    +0.000 NA
ATOM      3  C   UNL     1       2.669   6.615  19.510  0.00  0.00    +0.000 A 
ATOM      4  C   UNL     1       3.230   6.927  18.265  0.00  0.00    +0.000 A 
ATOM      5  C   UNL     1       4.005   6.022  17.365  0.00  0.00    +0.000 C 
ATOM      6  N   UNL     1       3.002   8.137  17.674  0.00  0.00    +0.000 NA
ATOM      7  C   UNL     1       2.174   9.009  18.280  0.00  0.00    +0.000 A 
ENDROOT
BRANCH   3   8
ATOM      8  C   UNL     1       2.533   5.245  20.117  0.00  0.00    +0.000 A 
ATOM      9  C   UNL     1       1.275   4.838  20.569  0.00  0.00    +0.000 A 
ATOM     10  N   UNL     1       0.807   3.807  19.790  0.00  0.00    +0.000 NA
ATOM     11  C   UNL     1       1.859   3.387  19.122  0.00  0.00    +0.000 A 
ATOM     12  C   UNL     1       2.057   2.263  18.269  0.00  0.00    +0.000 A 
ATOM     13  C   UNL     1       3.192   1.556  18.396  0.00  0.00    +0.000 A 
ATOM     14  C   UNL     1       4.206   1.958  19.368  0.00  0.00    +0.000 A 
ATOM     15  C   UNL     1       4.138   3.198  19.910  0.00  0.00    +0.000 A 
ATOM     16  N   UNL     1       2.996   3.994  19.654  0.00  0.00    +0.000 N 
ENDBRANCH   3   8
BRANCH   1  19
ATOM     17  C   UNL     1      -0.963  11.136  20.364  0.00  0.00    +0.000 A 
ATOM     18  N   UNL     1      -0.121  10.539  19.442  0.00  0.00    +0.000 NA
ATOM     19  C   UNL     1       0.704   9.757  20.145  0.00  0.00    +0.000 A 
ATOM     20  N   UNL     1       0.392   9.957  21.470  0.00  0.00    +0.000 N 
ATOM     21  C   UNL     1       0.844   9.271  22.651  0.00  0.00    +0.000 C 
ATOM     22  N   UNL     1      -0.633  10.837  21.632  0.00  0.00    +0.000 NA
BRANCH  17  25
ATOM     23  C   UNL     1      -3.928  13.425  20.962  0.00  0.00    +0.000 C 
ATOM     24  N   UNL     1      -2.702  12.671  21.070  0.00  0.00    +0.000 N 
ATOM     25  C   UNL     1      -2.158  11.960  20.007  0.00  0.00    +0.000 C 
ATOM     26  O   UNL     1      -2.646  11.988  18.880  0.00  0.00    +0.000 OA
ATOM     27  H   UNL     1      -2.272  12.516  21.976  0.00  0.00    +0.000 HD
ENDBRANCH  17  25
ENDBRANCH   1  19
BRANCH   7  28
ATOM     28  N   UNL     1       1.788  10.088  17.486  0.00  0.00    +0.000 N 
ATOM     29  H   UNL     1       2.347  10.900  17.719  0.00  0.00    +0.000 HD
ATOM     30  H   UNL     1       0.779  10.241  17.513  0.00  0.00    +0.000 HD
ENDBRANCH   7  28
TORSDOF 4
ENDMDL
MODEL 3
REMARK VINA RESULT:      -7.5      2.654      4.827
REMARK  Name = 
REMARK  7 active torsions:
REMARK  status: ('A' for Active; 'I' for Inactive)
REMARK    1  A    between atoms: C_1  and  N_2
REMARK    2  A    between atoms: C_3  and  C_5
REMARK    3  A    between atoms: C_7  and  C_8
REMARK    4  A    between atoms: C_10  and  C_11
REMARK    5  A    between atoms: C_20  and  C_21
REMARK    6  A    between atoms: C_23  and  N_24
REMARK    7  A    between atoms: N_25  and  C_26
REMARK                            x       y       z     vdW  Elec       q    Type
REMARK                         _______ _______ _______ _____ _____    ______ ____
ROOT
ATOM      1  C   UNL     1       1.536   8.887  19.546  0.00  0.00    +0.000 A 
ATOM      2  N   UNL     1       1.825   7.708  20.185  0.00  0.00    +0.000 NA
ATOM      3  C   UNL     1       2.629   6.781  19.514  0.00  0.00    +0.000 A 
ATOM      4  C   UNL     1       3.186   7.108  18.271  0.00  0.00    +0.000 A 
ATOM      5  C   UNL     1       3.981   6.221  17.370  0.00  0.00    +0.000 C 
ATOM      6  N   UNL     1       2.936   8.315  17.683  0.00  0.00    +0.000 NA
ATOM      7  C   UNL     1       2.090   9.170  18.290  0.00  0.00    +0.000 A 
ENDROOT
BRANCH   3   8
ATOM      8  C   UNL     1       2.519   5.407  20.116  0.00  0.00    +0.000 A 
ATOM      9  C   UNL     1       1.300   5.024  20.682  0.00  0.00    +0.000 A 
ATOM     10  N   UNL     1       0.734   4.014  19.941  0.00  0.00    +0.000 NA
ATOM     11  C   UNL     1       1.707   3.578  19.170  0.00  0.00    +0.000 A 
ATOM     12  C   UNL     1       1.795   2.462  18.291  0.00  0.00    +0.000 A 
ATOM     13  C   UNL     1       2.919   1.727  18.301  0.00  0.00    +0.000 A 
ATOM     14  C   UNL     1       4.032   2.092  19.175  0.00  0.00    +0.000 A 
ATOM     15  C   UNL     1       4.046   3.326  19.734  0.00  0.00    +0.000 A 
ATOM     16  N   UNL     1       2.904   4.151  19.598  0.00  0.00    +0.000 N 
ENDBRANCH   3   8
BRANCH   1  19
ATOM     17  C   UNL     1      -0.096  11.647  21.217  0.00  0.00    +0.000 A 
ATOM     18  N   UNL     1       0.948  10.743  21.117  0.00  0.00    +0.000 NA
ATOM     19  C   UNL     1       0.603   9.883  20.155  0.00  0.00    +0.000 A 
ATOM     20  N   UNL     1      -0.664  10.239  19.753  0.00  0.00    +0.000 N 
ATOM     21  C   UNL     1      -1.464   9.768  18.653  0.00  0.00    +0.000 C 
ATOM     22  N   UNL     1      -1.132  11.326  20.422  0.00  0.00    +0.000 NA
BRANCH  17  25
ATOM     23  C   UNL     1      -1.335  14.185  23.749  0.00  0.00    +0.000 C 
ATOM     24  N   UNL     1      -1.117  13.005  22.946  0.00  0.00    +0.000 N 
ATOM     25  C   UNL     1      -0.063  12.888  22.049  0.00  0.00    +0.000 C 
ATOM     26  O   UNL     1       0.802  13.753  21.934  0.00  0.00    +0.000 OA
ATOM     27  H   UNL     1      -1.821  12.275  22.905  0.00  0.00    +0.000 HD
ENDBRANCH  17  25
ENDBRANCH   1  19
BRANCH   7  28
ATOM     28  N   UNL     1       1.685  10.243  17.499  0.00  0.00    +0.000 N 
ATOM     29  H   UNL     1       1.239   9.897  16.658  0.00  0.00    +0.000 HD
ATOM     30  H   UNL     1       2.444  10.907  17.338  0.00  0.00    +0.000 HD
ENDBRANCH   7  28
TORSDOF 4
ENDMDL
MODEL 4
REMARK VINA RESULT:      -7.4      3.303      7.678
REMARK  Name = 
REMARK  7 active torsions:
REMARK  status: ('A' for Active; 'I' for Inactive)
REMARK    1  A    between atoms: C_1  and  N_2
REMARK    2  A    between atoms: C_3  and  C_5
REMARK    3  A    between atoms: C_7  and  C_8
REMARK    4  A    between atoms: C_10  and  C_11
REMARK    5  A    between atoms: C_20  and  C_21
REMARK    6  A    between atoms: C_23  and  N_24
REMARK    7  A    between atoms: N_25  and  C_26
REMARK                            x       y       z     vdW  Elec       q    Type
REMARK                         _______ _______ _______ _____ _____    ______ ____
ROOT
ATOM      1  C   UNL     1       4.255   6.271  18.125  0.00  0.00    +0.000 A 
ATOM      2  N   UNL     1       3.774   7.516  17.811  0.00  0.00    +0.000 NA
ATOM      3  C   UNL     1       2.720   8.023  18.577  0.00  0.00    +0.000 A 
ATOM      4  C   UNL     1       2.251   7.305  19.684  0.00  0.00    +0.000 A 
ATOM      5  C   UNL     1       1.083   7.636  20.554  0.00  0.00    +0.000 C 
ATOM      6  N   UNL     1       2.789   6.095  20.018  0.00  0.00    +0.000 NA
ATOM      7  C   UNL     1       3.743   5.568  19.225  0.00  0.00    +0.000 A 
ENDROOT
BRANCH   3   8
ATOM      8  C   UNL     1       2.025   9.164  17.886  0.00  0.00    +0.000 A 
ATOM      9  C   UNL     1       0.711   8.976  17.447  0.00  0.00    +0.000 A 
ATOM     10  N   UNL     1      -0.143   9.773  18.170  0.00  0.00    +0.000 NA
ATOM     11  C   UNL     1       0.638  10.641  18.776  0.00  0.00    +0.000 A 
ATOM     12  C   UNL     1       0.350  11.804  19.544  0.00  0.00    +0.000 A 
ATOM     13  C   UNL     1       1.087  12.908  19.335  0.00  0.00    +0.000 A 
ATOM     14  C   UNL     1       2.176  12.894  18.361  0.00  0.00    +0.000 A 
ATOM     15  C   UNL     1       2.630  11.702  17.905  0.00  0.00    +0.000 A 
ATOM     16  N   UNL     1       1.924  10.524  18.249  0.00  0.00    +0.000 N 
ENDBRANCH   3   8
BRANCH   1  19
ATOM     17  C   UNL     1       6.422   4.980  15.536  0.00  0.00    +0.000 A 
ATOM     18  N   UNL     1       5.163   5.319  15.997  0.00  0.00    +0.000 NA
ATOM     19  C   UNL     1       5.309   5.619  17.291  0.00  0.00    +0.000 A 
ATOM     20  N   UNL     1       6.630   5.383  17.595  0.00  0.00    +0.000 N 
ATOM     21  C   UNL     1       7.383   5.678  18.786  0.00  0.00    +0.000 C 
ATOM     22  N   UNL     1       7.341   4.958  16.517  0.00  0.00    +0.000 NA
BRANCH  17  25
ATOM     23  C   UNL     1       6.373   3.192  12.191  0.00  0.00    +0.000 C 
ATOM     24  N   UNL     1       6.094   3.664  13.526  0.00  0.00    +0.000 N 
ATOM     25  C   UNL     1       6.760   4.740  14.100  0.00  0.00    +0.000 C 
ATOM     26  O   UNL     1       7.581   5.412  13.479  0.00  0.00    +0.000 OA
ATOM     27  H   UNL     1       5.499   3.126  14.147  0.00  0.00    +0.000 HD
ENDBRANCH  17  25
ENDBRANCH   1  19
BRANCH   7  28
ATOM     28  N   UNL     1       4.034   4.229  19.482  0.00  0.00    +0.000 N 
ATOM     29  H   UNL     1       4.945   4.000  19.102  0.00  0.00    +0.000 HD
ATOM     30  H   UNL     1       3.279   3.610  19.184  0.00  0.00    +0.000 HD
ENDBRANCH   7  28
TORSDOF 4
ENDMDL
MODEL 5
REMARK VINA RESULT:      -7.2      2.792      5.042
REMARK  Name = 
REMARK  7 active torsions:
REMARK  status: ('A' for Active; 'I' for Inactive)
REMARK    1  A    between atoms: C_1  and  N_2
REMARK    2  A    between atoms: C_3  and  C_5
REMARK    3  A    between atoms: C_7  and  C_8
REMARK    4  A    between atoms: C_10  and  C_11
REMARK    5  A    between atoms: C_20  and  C_21
REMARK    6  A    between atoms: C_23  and  N_24
REMARK    7  A    between atoms: N_25  and  C_26
REMARK                            x       y       z     vdW  Elec       q    Type
REMARK                         _______ _______ _______ _____ _____    ______ ____
ROOT
ATOM      1  C   UNL     1       1.621   8.803  19.591  0.00  0.00    +0.000 A 
ATOM      2  N   UNL     1       1.939   7.627  20.222  0.00  0.00    +0.000 NA
ATOM      3  C   UNL     1       2.667   6.675  19.504  0.00  0.00    +0.000 A 
ATOM      4  C   UNL     1       3.129   6.972  18.216  0.00  0.00    +0.000 A 
ATOM      5  C   UNL     1       3.831   6.056  17.268  0.00  0.00    +0.000 C 
ATOM      6  N   UNL     1       2.856   8.175  17.630  0.00  0.00    +0.000 NA
ATOM      7  C   UNL     1       2.078   9.056  18.289  0.00  0.00    +0.000 A 
ENDROOT
BRANCH   3   8
ATOM      8  C   UNL     1       2.579   5.312  20.136  0.00  0.00    +0.000 A 
ATOM      9  C   UNL     1       1.363   4.917  20.699  0.00  0.00    +0.000 A 
ATOM     10  N   UNL     1       0.825   3.880  19.975  0.00  0.00    +0.000 NA
ATOM     11  C   UNL     1       1.814   3.447  19.223  0.00  0.00    +0.000 A 
ATOM     12  C   UNL     1       1.933   2.314  18.370  0.00  0.00    +0.000 A 
ATOM     13  C   UNL     1       3.071   1.602  18.405  0.00  0.00    +0.000 A 
ATOM     14  C   UNL     1       4.168   2.010  19.280  0.00  0.00    +0.000 A 
ATOM     15  C   UNL     1       4.152   3.255  19.813  0.00  0.00    +0.000 A 
ATOM     16  N   UNL     1       2.995   4.054  19.649  0.00  0.00    +0.000 N 
ENDBRANCH   3   8
BRANCH   1  19
ATOM     17  C   UNL     1      -0.454  11.610  20.532  0.00  0.00    +0.000 A 
ATOM     18  N   UNL     1       0.597  11.075  19.808  0.00  0.00    +0.000 NA
ATOM     19  C   UNL     1       0.760   9.827  20.256  0.00  0.00    +0.000 A 
ATOM     20  N   UNL     1      -0.141   9.664  21.283  0.00  0.00    +0.000 N 
ATOM     21  C   UNL     1      -0.515   8.486  22.021  0.00  0.00    +0.000 C 
ATOM     22  N   UNL     1      -0.895  10.777  21.491  0.00  0.00    +0.000 NA
BRANCH  17  25
ATOM     23  C   UNL     1      -0.616  15.346  19.900  0.00  0.00    +0.000 C 
ATOM     24  N   UNL     1      -0.197  13.974  20.062  0.00  0.00    +0.000 N 
ATOM     25  C   UNL     1      -1.094  12.929  20.245  0.00  0.00    +0.000 C 
ATOM     26  O   UNL     1      -2.312  13.093  20.203  0.00  0.00    +0.000 OA
ATOM     27  H   UNL     1       0.783  13.749  20.198  0.00  0.00    +0.000 HD
ENDBRANCH  17  25
ENDBRANCH   1  19
BRANCH   7  28
ATOM     28  N   UNL     1       1.631  10.126  17.516  0.00  0.00    +0.000 N 
ATOM     29  H   UNL     1       1.598  10.965  18.082  0.00  0.00    +0.000 HD
ATOM     30  H   UNL     1       0.763   9.906  17.024  0.00  0.00    +0.000 HD
ENDBRANCH   7  28
TORSDOF 4
ENDMDL
MODEL 6
REMARK VINA RESULT:      -7.2      5.184     10.966
REMARK  Name = 
REMARK  7 active torsions:
REMARK  status: ('A' for Active; 'I' for Inactive)
REMARK    1  A    between atoms: C_1  and  N_2
REMARK    2  A    between atoms: C_3  and  C_5
REMARK    3  A    between atoms: C_7  and  C_8
REMARK    4  A    between atoms: C_10  and  C_11
REMARK    5  A    between atoms: C_20  and  C_21
REMARK    6  A    between atoms: C_23  and  N_24
REMARK    7  A    between atoms: N_25  and  C_26
REMARK                            x       y       z     vdW  Elec       q    Type
REMARK                         _______ _______ _______ _____ _____    ______ ____
ROOT
ATOM      1  C   UNL     1      -2.795  11.571  18.386  0.00  0.00    +0.000 A 
ATOM      2  N   UNL     1      -3.601  11.954  19.428  0.00  0.00    +0.000 NA
ATOM      3  C   UNL     1      -4.925  12.297  19.140  0.00  0.00    +0.000 A 
ATOM      4  C   UNL     1      -5.417  12.155  17.837  0.00  0.00    +0.000 A 
ATOM      5  C   UNL     1      -6.760  12.559  17.323  0.00  0.00    +0.000 C 
ATOM      6  N   UNL     1      -4.614  11.710  16.825  0.00  0.00    +0.000 NA
ATOM      7  C   UNL     1      -3.315  11.466  17.088  0.00  0.00    +0.000 A 
ENDROOT
BRANCH   3   8
ATOM      8  C   UNL     1      -5.554  13.083  20.258  0.00  0.00    +0.000 A 
ATOM      9  C   UNL     1      -6.632  12.517  20.946  0.00  0.00    +0.000 A 
ATOM     10  N   UNL     1      -6.268  12.241  22.242  0.00  0.00    +0.000 NA
ATOM     11  C   UNL     1      -5.150  12.909  22.427  0.00  0.00    +0.000 A 
ATOM     12  C   UNL     1      -4.366  13.146  23.591  0.00  0.00    +0.000 A 
ATOM     13  C   UNL     1      -3.879  14.380  23.794  0.00  0.00    +0.000 A 
ATOM     14  C   UNL     1      -4.128  15.441  22.821  0.00  0.00    +0.000 A 
ATOM     15  C   UNL     1      -4.577  15.104  21.588  0.00  0.00    +0.000 A 
ATOM     16  N   UNL     1      -4.957  13.763  21.342  0.00  0.00    +0.000 N 
ENDBRANCH   3   8
BRANCH   1  19
ATOM     17  C   UNL     1       0.568  10.253  18.535  0.00  0.00    +0.000 A 
ATOM     18  N   UNL     1      -0.803  10.066  18.548  0.00  0.00    +0.000 NA
ATOM     19  C   UNL     1      -1.344  11.287  18.598  0.00  0.00    +0.000 A 
ATOM     20  N   UNL     1      -0.294  12.172  18.689  0.00  0.00    +0.000 N 
ATOM     21  C   UNL     1      -0.273  13.609  18.616  0.00  0.00    +0.000 C 
ATOM     22  N   UNL     1       0.913  11.545  18.676  0.00  0.00    +0.000 NA
BRANCH  17  25
ATOM     23  C   UNL     1       2.630   7.181  19.369  0.00  0.00    +0.000 C 
ATOM     24  N   UNL     1       1.644   8.234  19.337  0.00  0.00    +0.000 N 
ATOM     25  C   UNL     1       1.567   9.165  18.309  0.00  0.00    +0.000 C 
ATOM     26  O   UNL     1       2.288   9.107  17.315  0.00  0.00    +0.000 OA
ATOM     27  H   UNL     1       1.063   8.418  20.149  0.00  0.00    +0.000 HD
ENDBRANCH  17  25
ENDBRANCH   1  19
BRANCH   7  28
ATOM     28  N   UNL     1      -2.520  11.284  15.958  0.00  0.00    +0.000 N 
ATOM     29  H   UNL     1      -2.768  10.413  15.503  0.00  0.00    +0.000 HD
ATOM     30  H   UNL     1      -1.527  11.388  16.168  0.00  0.00    +0.000 HD
ENDBRANCH   7  28
TORSDOF 4
ENDMDL
MODEL 7
REMARK VINA RESULT:      -7.1      3.172      7.976
REMARK  Name = 
REMARK  7 active torsions:
REMARK  status: ('A' for Active; 'I' for Inactive)
REMARK    1  A    between atoms: C_1  and  N_2
REMARK    2  A    between atoms: C_3  and  C_5
REMARK    3  A    between atoms: C_7  and  C_8
REMARK    4  A    between atoms: C_10  and  C_11
REMARK    5  A    between atoms: C_20  and  C_21
REMARK    6  A    between atoms: C_23  and  N_24
REMARK    7  A    between atoms: N_25  and  C_26
REMARK                            x       y       z     vdW  Elec       q    Type
REMARK                         _______ _______ _______ _____ _____    ______ ____
ROOT
ATOM      1  C   UNL     1       2.294   7.321  18.948  0.00  0.00    +0.000 A 
ATOM      2  N   UNL     1       1.846   8.518  18.449  0.00  0.00    +0.000 NA
ATOM      3  C   UNL     1       1.139   9.363  19.311  0.00  0.00    +0.000 A 
ATOM      4  C   UNL     1       0.988   9.018  20.660  0.00  0.00    +0.000 A 
ATOM      5  C   UNL     1       0.191   9.738  21.698  0.00  0.00    +0.000 C 
ATOM      6  N   UNL     1       1.499   7.850  21.150  0.00  0.00    +0.000 NA
ATOM      7  C   UNL     1       2.101   6.998  20.299  0.00  0.00    +0.000 A 
ENDROOT
BRANCH   3   8
ATOM      8  C   UNL     1       0.360  10.405  18.556  0.00  0.00    +0.000 A 
ATOM      9  C   UNL     1      -0.882  10.051  18.022  0.00  0.00    +0.000 A 
ATOM     10  N   UNL     1      -1.883  10.734  18.670  0.00  0.00    +0.000 NA
ATOM     11  C   UNL     1      -1.267  11.695  19.323  0.00  0.00    +0.000 A 
ATOM     12  C   UNL     1      -1.757  12.812  20.056  0.00  0.00    +0.000 A 
ATOM     13  C   UNL     1      -1.153  14.000  19.891  0.00  0.00    +0.000 A 
ATOM     14  C   UNL     1       0.000  14.124  19.002  0.00  0.00    +0.000 A 
ATOM     15  C   UNL     1       0.635  12.999  18.595  0.00  0.00    +0.000 A 
ATOM     16  N   UNL     1       0.060  11.742  18.897  0.00  0.00    +0.000 N 
ENDBRANCH   3   8
BRANCH   1  19
ATOM     17  C   UNL     1       4.547   5.252  17.021  0.00  0.00    +0.000 A 
ATOM     18  N   UNL     1       4.191   6.480  17.551  0.00  0.00    +0.000 NA
ATOM     19  C   UNL     1       2.967   6.323  18.064  0.00  0.00    +0.000 A 
ATOM     20  N   UNL     1       2.586   5.034  17.767  0.00  0.00    +0.000 N 
ATOM     21  C   UNL     1       1.444   4.273  18.201  0.00  0.00    +0.000 C 
ATOM     22  N   UNL     1       3.550   4.353  17.092  0.00  0.00    +0.000 NA
BRANCH  17  25
ATOM     23  C   UNL     1       7.264   4.780  14.417  0.00  0.00    +0.000 C 
ATOM     24  N   UNL     1       6.070   5.152  15.138  0.00  0.00    +0.000 N 
ATOM     25  C   UNL     1       5.906   4.919  16.497  0.00  0.00    +0.000 C 
ATOM     26  O   UNL     1       6.801   4.449  17.196  0.00  0.00    +0.000 OA
ATOM     27  H   UNL     1       5.245   5.466  14.636  0.00  0.00    +0.000 HD
ENDBRANCH  17  25
ENDBRANCH   1  19
BRANCH   7  28
ATOM     28  N   UNL     1       2.344   5.730  20.824  0.00  0.00    +0.000 N 
ATOM     29  H   UNL     1       2.721   5.815  21.760  0.00  0.00    +0.000 HD
ATOM     30  H   UNL     1       2.899   5.153  20.190  0.00  0.00    +0.000 HD
ENDBRANCH   7  28
TORSDOF 4
ENDMDL
MODEL 8
REMARK VINA RESULT:      -7.0      3.072      7.609
REMARK  Name = 
REMARK  7 active torsions:
REMARK  status: ('A' for Active; 'I' for Inactive)
REMARK    1  A    between atoms: C_1  and  N_2
REMARK    2  A    between atoms: C_3  and  C_5
REMARK    3  A    between atoms: C_7  and  C_8
REMARK    4  A    between atoms: C_10  and  C_11
REMARK    5  A    between atoms: C_20  and  C_21
REMARK    6  A    between atoms: C_23  and  N_24
REMARK    7  A    between atoms: N_25  and  C_26
REMARK                            x       y       z     vdW  Elec       q    Type
REMARK                         _______ _______ _______ _____ _____    ______ ____
ROOT
ATOM      1  C   UNL     1       4.264   5.191  18.019  0.00  0.00    +0.000 A 
ATOM      2  N   UNL     1       4.042   6.496  18.380  0.00  0.00    +0.000 NA
ATOM      3  C   UNL     1       2.918   6.776  19.163  0.00  0.00    +0.000 A 
ATOM      4  C   UNL     1       2.112   5.731  19.630  0.00  0.00    +0.000 A 
ATOM      5  C   UNL     1       0.830   5.840  20.388  0.00  0.00    +0.000 C 
ATOM      6  N   UNL     1       2.389   4.432  19.312  0.00  0.00    +0.000 NA
ATOM      7  C   UNL     1       3.420   4.172  18.484  0.00  0.00    +0.000 A 
ENDROOT
BRANCH   3   8
ATOM      8  C   UNL     1       2.563   8.238  19.127  0.00  0.00    +0.000 A 
ATOM      9  C   UNL     1       2.990   9.001  18.037  0.00  0.00    +0.000 A 
ATOM     10  N   UNL     1       1.907   9.406  17.294  0.00  0.00    +0.000 NA
ATOM     11  C   UNL     1       0.867   9.192  18.072  0.00  0.00    +0.000 A 
ATOM     12  C   UNL     1      -0.507   9.535  17.936  0.00  0.00    +0.000 A 
ATOM     13  C   UNL     1      -1.156  10.013  19.010  0.00  0.00    +0.000 A 
ATOM     14  C   UNL     1      -0.466  10.145  20.291  0.00  0.00    +0.000 A 
ATOM     15  C   UNL     1       0.716   9.505  20.465  0.00  0.00    +0.000 A 
ATOM     16  N   UNL     1       1.326   8.881  19.351  0.00  0.00    +0.000 N 
ENDBRANCH   3   8
BRANCH   1  19
ATOM     17  C   UNL     1       6.508   4.530  15.263  0.00  0.00    +0.000 A 
ATOM     18  N   UNL     1       5.233   4.565  15.800  0.00  0.00    +0.000 NA
ATOM     19  C   UNL     1       5.385   4.826  17.101  0.00  0.00    +0.000 A 
ATOM     20  N   UNL     1       6.740   4.869  17.332  0.00  0.00    +0.000 N 
ATOM     21  C   UNL     1       7.478   5.262  18.503  0.00  0.00    +0.000 C 
ATOM     22  N   UNL     1       7.464   4.661  16.199  0.00  0.00    +0.000 NA
BRANCH  17  25
ATOM     23  C   UNL     1       6.497   3.015  11.786  0.00  0.00    +0.000 C 
ATOM     24  N   UNL     1       6.229   3.350  13.164  0.00  0.00    +0.000 N 
ATOM     25  C   UNL     1       6.808   4.440  13.802  0.00  0.00    +0.000 C 
ATOM     26  O   UNL     1       7.531   5.239  13.211  0.00  0.00    +0.000 OA
ATOM     27  H   UNL     1       5.716   2.706  13.758  0.00  0.00    +0.000 HD
ENDBRANCH  17  25
ENDBRANCH   1  19
BRANCH   7  28
ATOM     28  N   UNL     1       3.460   2.866  18.001  0.00  0.00    +0.000 N 
ATOM     29  H   UNL     1       4.299   2.405  18.334  0.00  0.00    +0.000 HD
ATOM     30  H   UNL     1       3.324   2.828  16.990  0.00  0.00    +0.000 HD
ENDBRANCH   7  28
TORSDOF 4
ENDMDL
MODEL 9
REMARK VINA RESULT:      -7.0      3.610      8.809
REMARK  Name = 
REMARK  7 active torsions:
REMARK  status: ('A' for Active; 'I' for Inactive)
REMARK    1  A    between atoms: C_1  and  N_2
REMARK    2  A    between atoms: C_3  and  C_5
REMARK    3  A    between atoms: C_7  and  C_8
REMARK    4  A    between atoms: C_10  and  C_11
REMARK    5  A    between atoms: C_20  and  C_21
REMARK    6  A    between atoms: C_23  and  N_24
REMARK    7  A    between atoms: N_25  and  C_26
REMARK                            x       y       z     vdW  Elec       q    Type
REMARK                         _______ _______ _______ _____ _____    ______ ____
ROOT
ATOM      1  C   UNL     1       0.700   9.764  20.674  0.00  0.00    +0.000 A 
ATOM      2  N   UNL     1       0.049  10.646  19.850  0.00  0.00    +0.000 NA
ATOM      3  C   UNL     1      -0.724  11.648  20.445  0.00  0.00    +0.000 A 
ATOM      4  C   UNL     1      -0.741  11.784  21.838  0.00  0.00    +0.000 A 
ATOM      5  C   UNL     1      -1.573  12.722  22.650  0.00  0.00    +0.000 C 
ATOM      6  N   UNL     1      -0.032  10.933  22.638  0.00  0.00    +0.000 NA
ATOM      7  C   UNL     1       0.639   9.915  22.066  0.00  0.00    +0.000 A 
ENDROOT
BRANCH   3   8
ATOM      8  C   UNL     1      -1.695  12.257  19.470  0.00  0.00    +0.000 A 
ATOM      9  C   UNL     1      -1.299  12.400  18.137  0.00  0.00    +0.000 A 
ATOM     10  N   UNL     1      -2.046  11.571  17.335  0.00  0.00    +0.000 NA
ATOM     11  C   UNL     1      -3.061  11.202  18.086  0.00  0.00    +0.000 A 
ATOM     12  C   UNL     1      -4.247  10.472  17.789  0.00  0.00    +0.000 A 
ATOM     13  C   UNL     1      -5.410  10.904  18.303  0.00  0.00    +0.000 A 
ATOM     14  C   UNL     1      -5.442  12.079  19.170  0.00  0.00    +0.000 A 
ATOM     15  C   UNL     1      -4.279  12.537  19.694  0.00  0.00    +0.000 A 
ATOM     16  N   UNL     1      -3.060  11.975  19.247  0.00  0.00    +0.000 N 
ENDBRANCH   3   8
BRANCH   1  19
ATOM     17  C   UNL     1       2.101   6.558  19.761  0.00  0.00    +0.000 A 
ATOM     18  N   UNL     1       1.540   7.408  20.699  0.00  0.00    +0.000 NA
ATOM     19  C   UNL     1       1.462   8.607  20.114  0.00  0.00    +0.000 A 
ATOM     20  N   UNL     1       2.042   8.471  18.874  0.00  0.00    +0.000 N 
ATOM     21  C   UNL     1       2.098   9.384  17.763  0.00  0.00    +0.000 C 
ATOM     22  N   UNL     1       2.472   7.202  18.640  0.00  0.00    +0.000 NA
BRANCH  17  25
ATOM     23  C   UNL     1       2.256   3.253  21.615  0.00  0.00    +0.000 C 
ATOM     24  N   UNL     1       2.057   4.629  21.229  0.00  0.00    +0.000 N 
ATOM     25  C   UNL     1       2.216   5.077  19.923  0.00  0.00    +0.000 C 
ATOM     26  O   UNL     1       2.462   4.314  18.992  0.00  0.00    +0.000 OA
ATOM     27  H   UNL     1       1.938   5.348  21.935  0.00  0.00    +0.000 HD
ENDBRANCH  17  25
ENDBRANCH   1  19
BRANCH   7  28
ATOM     28  N   UNL     1       1.100   8.951  22.962  0.00  0.00    +0.000 N 
ATOM     29  H   UNL     1       1.451   9.402  23.798  0.00  0.00    +0.000 HD
ATOM     30  H   UNL     1       1.753   8.301  22.521  0.00  0.00    +0.000 HD
ENDBRANCH   7  28
TORSDOF 4
ENDMDL
