MODEL 1
REMARK VINA RESULT:      -8.0      0.000      0.000
REMARK  Name = 
REMARK  4 active torsions:
REMARK  status: ('A' for Active; 'I' for Inactive)
REMARK    1  A    between atoms: C_2  and  O_3
REMARK    2  A    between atoms: C_2  and  C_4
REMARK    3  A    between atoms: C_7  and  C_8
REMARK    4  A    between atoms: C_12  and  C_13
REMARK                            x       y       z     vdW  Elec       q    Type
REMARK                         _______ _______ _______ _____ _____    ______ ____
ROOT
ATOM      1  C   UNL     1       6.135   5.006  14.948  0.00  0.00    +0.000 A 
ATOM      2  C   UNL     1       5.714   3.841  15.591  0.00  0.00    +0.000 A 
ATOM      3  C   UNL     1       4.823   3.918  16.668  0.00  0.00    +0.000 A 
ATOM      4  C   UNL     1       4.336   5.154  17.137  0.00  0.00    +0.000 A 
ATOM      5  C   UNL     1       4.773   6.312  16.467  0.00  0.00    +0.000 A 
ATOM      6  C   UNL     1       5.645   6.242  15.375  0.00  0.00    +0.000 A 
ENDROOT
BRANCH   4   7
ATOM      7  C   UNL     1       3.383   5.225  18.271  0.00  0.00    +0.000 A 
ATOM      8  C   UNL     1       3.107   6.442  18.918  0.00  0.00    +0.000 A 
ATOM      9  C   UNL     1       2.243   6.507  20.015  0.00  0.00    +0.000 A 
ATOM     10  C   UNL     1       1.618   5.356  20.484  0.00  0.00    +0.000 A 
ATOM     11  C   UNL     1       1.849   4.127  19.857  0.00  0.00    +0.000 A 
ATOM     12  C   UNL     1       2.730   4.077  18.759  0.00  0.00    +0.000 A 
BRANCH  11  13
ATOM     13  C   UNL     1       1.180   2.866  20.344  0.00  0.00    +0.000 C 
ATOM     14  F   UNL     1       0.915   2.869  21.680  0.00  0.00    +0.000 F 
ATOM     15  F   UNL     1      -0.015   2.643  19.728  0.00  0.00    +0.000 F 
ATOM     16  F   UNL     1       1.929   1.755  20.113  0.00  0.00    +0.000 F 
ENDBRANCH  11  13
ENDBRANCH   4   7
BRANCH   1  18
ATOM     17  O   UNL     1       8.049   5.584  13.660  0.00  0.00    +0.000 OA
ATOM     18  C   UNL     1       7.063   4.882  13.797  0.00  0.00    +0.000 C 
BRANCH  18  19
ATOM     19  O   UNL     1       6.687   3.951  12.895  0.00  0.00    +0.000 OA
ATOM     20  H   UNL     1       6.849   4.191  11.964  0.00  0.00    +0.000 HD
ENDBRANCH  18  19
ENDBRANCH   1  18
TORSDOF 4
ENDMDL
MODEL 2
REMARK VINA RESULT:      -7.9      0.073      1.106
REMARK  Name = 
REMARK  4 active torsions:
REMARK  status: ('A' for Active; 'I' for Inactive)
REMARK    1  A    between atoms: C_2  and  O_3
REMARK    2  A    between atoms: C_2  and  C_4
REMARK    3  A    between atoms: C_7  and  C_8
REMARK    4  A    between atoms: C_12  and  C_13
REMARK                            x       y       z     vdW  Elec       q    Type
REMARK                         _______ _______ _______ _____ _____    ______ ____
ROOT
ATOM      1  C   UNL     1       6.125   4.952  14.898  0.00  0.00    +0.000 A 
ATOM      2  C   UNL     1       5.704   6.198  15.365  0.00  0.00    +0.000 A 
ATOM      3  C   UNL     1       4.815   6.279  16.444  0.00  0.00    +0.000 A 
ATOM      4  C   UNL     1       4.316   5.124  17.078  0.00  0.00    +0.000 A 
ATOM      5  C   UNL     1       4.760   3.881  16.589  0.00  0.00    +0.000 A 
ATOM      6  C   UNL     1       5.667   3.792  15.527  0.00  0.00    +0.000 A 
ENDROOT
BRANCH   4   7
ATOM      7  C   UNL     1       3.384   5.219  18.227  0.00  0.00    +0.000 A 
ATOM      8  C   UNL     1       3.136   6.445  18.868  0.00  0.00    +0.000 A 
ATOM      9  C   UNL     1       2.293   6.533  19.979  0.00  0.00    +0.000 A 
ATOM     10  C   UNL     1       1.659   5.395  20.469  0.00  0.00    +0.000 A 
ATOM     11  C   UNL     1       1.862   4.157  19.849  0.00  0.00    +0.000 A 
ATOM     12  C   UNL     1       2.723   4.084  18.737  0.00  0.00    +0.000 A 
BRANCH  11  13
ATOM     13  C   UNL     1       1.183   2.910  20.359  0.00  0.00    +0.000 C 
ATOM     14  F   UNL     1       0.864   2.964  21.683  0.00  0.00    +0.000 F 
ATOM     15  F   UNL     1       0.015   2.652  19.705  0.00  0.00    +0.000 F 
ATOM     16  F   UNL     1       1.949   1.798  20.203  0.00  0.00    +0.000 F 
ENDBRANCH  11  13
ENDBRANCH   4   7
BRANCH   1  18
ATOM     17  O   UNL     1       8.051   5.643  13.687  0.00  0.00    +0.000 OA
ATOM     18  C   UNL     1       7.083   4.908  13.768  0.00  0.00    +0.000 C 
BRANCH  18  19
ATOM     19  O   UNL     1       6.757   4.008  12.815  0.00  0.00    +0.000 OA
ATOM     20  H   UNL     1       5.903   4.167  12.374  0.00  0.00    +0.000 HD
ENDBRANCH  18  19
ENDBRANCH   1  18
TORSDOF 4
ENDMDL
MODEL 3
REMARK VINA RESULT:      -7.9      0.087      1.121
REMARK  Name = 
REMARK  4 active torsions:
REMARK  status: ('A' for Active; 'I' for Inactive)
REMARK    1  A    between atoms: C_2  and  O_3
REMARK    2  A    between atoms: C_2  and  C_4
REMARK    3  A    between atoms: C_7  and  C_8
REMARK    4  A    between atoms: C_12  and  C_13
REMARK                            x       y       z     vdW  Elec       q    Type
REMARK                         _______ _______ _______ _____ _____    ______ ____
ROOT
ATOM      1  C   UNL     1       6.122   4.991  14.890  0.00  0.00    +0.000 A 
ATOM      2  C   UNL     1       5.696   3.829  15.535  0.00  0.00    +0.000 A 
ATOM      3  C   UNL     1       4.817   3.911  16.621  0.00  0.00    +0.000 A 
ATOM      4  C   UNL     1       4.348   5.151  17.099  0.00  0.00    +0.000 A 
ATOM      5  C   UNL     1       4.789   6.306  16.428  0.00  0.00    +0.000 A 
ATOM      6  C   UNL     1       5.649   6.232  15.326  0.00  0.00    +0.000 A 
ENDROOT
BRANCH   4   7
ATOM      7  C   UNL     1       3.408   5.229  18.243  0.00  0.00    +0.000 A 
ATOM      8  C   UNL     1       3.161   6.444  18.906  0.00  0.00    +0.000 A 
ATOM      9  C   UNL     1       2.310   6.514  20.012  0.00  0.00    +0.000 A 
ATOM     10  C   UNL     1       1.668   5.371  20.475  0.00  0.00    +0.000 A 
ATOM     11  C   UNL     1       1.869   4.144  19.833  0.00  0.00    +0.000 A 
ATOM     12  C   UNL     1       2.738   4.088  18.726  0.00  0.00    +0.000 A 
BRANCH  11  13
ATOM     13  C   UNL     1       1.180   2.890  20.314  0.00  0.00    +0.000 C 
ATOM     14  F   UNL     1       1.938   1.766  20.181  0.00  0.00    +0.000 F 
ATOM     15  F   UNL     1       0.843   2.958  21.633  0.00  0.00    +0.000 F 
ATOM     16  F   UNL     1       0.022   2.642  19.647  0.00  0.00    +0.000 F 
ENDBRANCH  11  13
ENDBRANCH   4   7
BRANCH   1  18
ATOM     17  O   UNL     1       6.841   4.083  12.813  0.00  0.00    +0.000 OA
ATOM     18  C   UNL     1       7.036   4.862  13.730  0.00  0.00    +0.000 C 
BRANCH  18  19
ATOM     19  O   UNL     1       8.127   5.653  13.808  0.00  0.00    +0.000 OA
ATOM     20  H   UNL     1       8.434   5.842  14.714  0.00  0.00    +0.000 HD
ENDBRANCH  18  19
ENDBRANCH   1  18
TORSDOF 4
ENDMDL
MODEL 4
REMARK VINA RESULT:      -7.9      0.123      1.581
REMARK  Name = 
REMARK  4 active torsions:
REMARK  status: ('A' for Active; 'I' for Inactive)
REMARK    1  A    between atoms: C_2  and  O_3
REMARK    2  A    between atoms: C_2  and  C_4
REMARK    3  A    between atoms: C_7  and  C_8
REMARK    4  A    between atoms: C_12  and  C_13
REMARK                            x       y       z     vdW  Elec       q    Type
REMARK                         _______ _______ _______ _____ _____    ______ ____
ROOT
ATOM      1  C   UNL     1       6.115   4.906  14.867  0.00  0.00    +0.000 A 
ATOM      2  C   UNL     1       5.636   6.148  15.285  0.00  0.00    +0.000 A 
ATOM      3  C   UNL     1       4.756   6.231  16.371  0.00  0.00    +0.000 A 
ATOM      4  C   UNL     1       4.325   5.080  17.062  0.00  0.00    +0.000 A 
ATOM      5  C   UNL     1       4.828   3.842  16.621  0.00  0.00    +0.000 A 
ATOM      6  C   UNL     1       5.726   3.752  15.552  0.00  0.00    +0.000 A 
ENDROOT
BRANCH   4   7
ATOM      7  C   UNL     1       3.403   5.178  18.218  0.00  0.00    +0.000 A 
ATOM      8  C   UNL     1       3.184   6.400  18.878  0.00  0.00    +0.000 A 
ATOM      9  C   UNL     1       2.350   6.489  19.996  0.00  0.00    +0.000 A 
ATOM     10  C   UNL     1       1.697   5.357  20.474  0.00  0.00    +0.000 A 
ATOM     11  C   UNL     1       1.869   4.124  19.835  0.00  0.00    +0.000 A 
ATOM     12  C   UNL     1       2.722   4.050  18.717  0.00  0.00    +0.000 A 
BRANCH  11  13
ATOM     13  C   UNL     1       1.168   2.884  20.332  0.00  0.00    +0.000 C 
ATOM     14  F   UNL     1      -0.047   2.674  19.752  0.00  0.00    +0.000 F 
ATOM     15  F   UNL     1       1.892   1.753  20.100  0.00  0.00    +0.000 F 
ATOM     16  F   UNL     1       0.944   2.913  21.672  0.00  0.00    +0.000 F 
ENDBRANCH  11  13
ENDBRANCH   4   7
BRANCH   1  18
ATOM     17  O   UNL     1       6.907   4.133  12.762  0.00  0.00    +0.000 OA
ATOM     18  C   UNL     1       7.062   4.861  13.726  0.00  0.00    +0.000 C 
BRANCH  18  19
ATOM     19  O   UNL     1       8.133   5.669  13.878  0.00  0.00    +0.000 OA
ATOM     20  H   UNL     1       7.923   6.587  14.132  0.00  0.00    +0.000 HD
ENDBRANCH  18  19
ENDBRANCH   1  18
TORSDOF 4
ENDMDL
MODEL 5
REMARK VINA RESULT:      -7.8      0.640      1.050
REMARK  Name = 
REMARK  4 active torsions:
REMARK  status: ('A' for Active; 'I' for Inactive)
REMARK    1  A    between atoms: C_2  and  O_3
REMARK    2  A    between atoms: C_2  and  C_4
REMARK    3  A    between atoms: C_7  and  C_8
REMARK    4  A    between atoms: C_12  and  C_13
REMARK                            x       y       z     vdW  Elec       q    Type
REMARK                         _______ _______ _______ _____ _____    ______ ____
ROOT
ATOM      1  C   UNL     1       6.094   4.921  15.007  0.00  0.00    +0.000 A 
ATOM      2  C   UNL     1       5.695   3.815  15.760  0.00  0.00    +0.000 A 
ATOM      3  C   UNL     1       4.843   3.985  16.858  0.00  0.00    +0.000 A 
ATOM      4  C   UNL     1       4.376   5.259  17.240  0.00  0.00    +0.000 A 
ATOM      5  C   UNL     1       4.791   6.355  16.461  0.00  0.00    +0.000 A 
ATOM      6  C   UNL     1       5.623   6.191  15.347  0.00  0.00    +0.000 A 
ENDROOT
BRANCH   4   7
ATOM      7  C   UNL     1       3.465   5.429  18.398  0.00  0.00    +0.000 A 
ATOM      8  C   UNL     1       2.932   6.686  18.730  0.00  0.00    +0.000 A 
ATOM      9  C   UNL     1       2.108   6.860  19.846  0.00  0.00    +0.000 A 
ATOM     10  C   UNL     1       1.781   5.774  20.651  0.00  0.00    +0.000 A 
ATOM     11  C   UNL     1       2.274   4.500  20.345  0.00  0.00    +0.000 A 
ATOM     12  C   UNL     1       3.112   4.344  19.224  0.00  0.00    +0.000 A 
BRANCH  11  13
ATOM     13  C   UNL     1       1.931   3.305  21.201  0.00  0.00    +0.000 C 
ATOM     14  F   UNL     1       0.610   2.974  21.171  0.00  0.00    +0.000 F 
ATOM     15  F   UNL     1       2.605   2.184  20.818  0.00  0.00    +0.000 F 
ATOM     16  F   UNL     1       2.240   3.495  22.510  0.00  0.00    +0.000 F 
ENDBRANCH  11  13
ENDBRANCH   4   7
BRANCH   1  18
ATOM     17  O   UNL     1       7.898   5.443  13.549  0.00  0.00    +0.000 OA
ATOM     18  C   UNL     1       6.979   4.697  13.839  0.00  0.00    +0.000 C 
BRANCH  18  19
ATOM     19  O   UNL     1       6.642   3.617  13.101  0.00  0.00    +0.000 OA
ATOM     20  H   UNL     1       5.821   3.170  13.378  0.00  0.00    +0.000 HD
ENDBRANCH  18  19
ENDBRANCH   1  18
TORSDOF 4
ENDMDL
MODEL 6
REMARK VINA RESULT:      -7.7      5.196      7.188
REMARK  Name = 
REMARK  4 active torsions:
REMARK  status: ('A' for Active; 'I' for Inactive)
REMARK    1  A    between atoms: C_2  and  O_3
REMARK    2  A    between atoms: C_2  and  C_4
REMARK    3  A    between atoms: C_7  and  C_8
REMARK    4  A    between atoms: C_12  and  C_13
REMARK                            x       y       z     vdW  Elec       q    Type
REMARK                         _______ _______ _______ _____ _____    ______ ____
ROOT
ATOM      1  C   UNL     1       2.537   3.169  19.533  0.00  0.00    +0.000 A 
ATOM      2  C   UNL     1       3.871   3.443  19.838  0.00  0.00    +0.000 A 
ATOM      3  C   UNL     1       4.777   3.743  18.813  0.00  0.00    +0.000 A 
ATOM      4  C   UNL     1       4.381   3.770  17.461  0.00  0.00    +0.000 A 
ATOM      5  C   UNL     1       3.029   3.495  17.183  0.00  0.00    +0.000 A 
ATOM      6  C   UNL     1       2.112   3.217  18.203  0.00  0.00    +0.000 A 
ENDROOT
BRANCH   4   7
ATOM      7  C   UNL     1       5.344   4.101  16.384  0.00  0.00    +0.000 A 
ATOM      8  C   UNL     1       6.490   4.874  16.640  0.00  0.00    +0.000 A 
ATOM      9  C   UNL     1       7.378   5.226  15.619  0.00  0.00    +0.000 A 
ATOM     10  C   UNL     1       7.152   4.797  14.315  0.00  0.00    +0.000 A 
ATOM     11  C   UNL     1       6.034   4.009  14.019  0.00  0.00    +0.000 A 
ATOM     12  C   UNL     1       5.143   3.672  15.057  0.00  0.00    +0.000 A 
BRANCH  11  13
ATOM     13  C   UNL     1       5.769   3.528  12.614  0.00  0.00    +0.000 C 
ATOM     14  F   UNL     1       4.507   3.795  12.174  0.00  0.00    +0.000 F 
ATOM     15  F   UNL     1       6.608   4.100  11.705  0.00  0.00    +0.000 F 
ATOM     16  F   UNL     1       5.936   2.187  12.481  0.00  0.00    +0.000 F 
ENDBRANCH  11  13
ENDBRANCH   4   7
BRANCH   1  18
ATOM     17  O   UNL     1       1.974   2.484  21.739  0.00  0.00    +0.000 OA
ATOM     18  C   UNL     1       1.603   2.876  20.647  0.00  0.00    +0.000 C 
BRANCH  18  19
ATOM     19  O   UNL     1       0.303   3.040  20.322  0.00  0.00    +0.000 OA
ATOM     20  H   UNL     1      -0.261   3.380  21.041  0.00  0.00    +0.000 HD
ENDBRANCH  18  19
ENDBRANCH   1  18
TORSDOF 4
ENDMDL
MODEL 7
REMARK VINA RESULT:      -7.7      5.172      7.207
REMARK  Name = 
REMARK  4 active torsions:
REMARK  status: ('A' for Active; 'I' for Inactive)
REMARK    1  A    between atoms: C_2  and  O_3
REMARK    2  A    between atoms: C_2  and  C_4
REMARK    3  A    between atoms: C_7  and  C_8
REMARK    4  A    between atoms: C_12  and  C_13
REMARK                            x       y       z     vdW  Elec       q    Type
REMARK                         _______ _______ _______ _____ _____    ______ ____
ROOT
ATOM      1  C   UNL     1       2.438   3.195  19.480  0.00  0.00    +0.000 A 
ATOM      2  C   UNL     1       2.029   3.327  18.153  0.00  0.00    +0.000 A 
ATOM      3  C   UNL     1       2.966   3.631  17.157  0.00  0.00    +0.000 A 
ATOM      4  C   UNL     1       4.329   3.820  17.459  0.00  0.00    +0.000 A 
ATOM      5  C   UNL     1       4.714   3.677  18.805  0.00  0.00    +0.000 A 
ATOM      6  C   UNL     1       3.788   3.350  19.803  0.00  0.00    +0.000 A 
ENDROOT
BRANCH   4   7
ATOM      7  C   UNL     1       5.316   4.130  16.397  0.00  0.00    +0.000 A 
ATOM      8  C   UNL     1       6.475   4.878  16.672  0.00  0.00    +0.000 A 
ATOM      9  C   UNL     1       7.386   5.211  15.665  0.00  0.00    +0.000 A 
ATOM     10  C   UNL     1       7.171   4.787  14.358  0.00  0.00    +0.000 A 
ATOM     11  C   UNL     1       6.041   4.023  14.044  0.00  0.00    +0.000 A 
ATOM     12  C   UNL     1       5.127   3.706  15.068  0.00  0.00    +0.000 A 
BRANCH  11  13
ATOM     13  C   UNL     1       5.788   3.549  12.634  0.00  0.00    +0.000 C 
ATOM     14  F   UNL     1       6.605   4.125  11.709  0.00  0.00    +0.000 F 
ATOM     15  F   UNL     1       5.965   2.204  12.501  0.00  0.00    +0.000 F 
ATOM     16  F   UNL     1       4.518   3.798  12.220  0.00  0.00    +0.000 F 
ENDBRANCH  11  13
ENDBRANCH   4   7
BRANCH   1  18
ATOM     17  O   UNL     1       1.704   2.404  21.600  0.00  0.00    +0.000 OA
ATOM     18  C   UNL     1       1.420   2.852  20.503  0.00  0.00    +0.000 C 
BRANCH  18  19
ATOM     19  O   UNL     1       0.149   3.039  20.087  0.00  0.00    +0.000 OA
ATOM     20  H   UNL     1      -0.074   3.957  19.846  0.00  0.00    +0.000 HD
ENDBRANCH  18  19
ENDBRANCH   1  18
TORSDOF 4
ENDMDL
MODEL 8
REMARK VINA RESULT:      -7.5      5.052      7.107
REMARK  Name = 
REMARK  4 active torsions:
REMARK  status: ('A' for Active; 'I' for Inactive)
REMARK    1  A    between atoms: C_2  and  O_3
REMARK    2  A    between atoms: C_2  and  C_4
REMARK    3  A    between atoms: C_7  and  C_8
REMARK    4  A    between atoms: C_12  and  C_13
REMARK                            x       y       z     vdW  Elec       q    Type
REMARK                         _______ _______ _______ _____ _____    ______ ____
ROOT
ATOM      1  C   UNL     1       2.562   3.341  19.670  0.00  0.00    +0.000 A 
ATOM      2  C   UNL     1       2.892   2.355  18.739  0.00  0.00    +0.000 A 
ATOM      3  C   UNL     1       3.794   2.639  17.707  0.00  0.00    +0.000 A 
ATOM      4  C   UNL     1       4.381   3.913  17.569  0.00  0.00    +0.000 A 
ATOM      5  C   UNL     1       4.033   4.886  18.524  0.00  0.00    +0.000 A 
ATOM      6  C   UNL     1       3.151   4.603  19.573  0.00  0.00    +0.000 A 
ENDROOT
BRANCH   4   7
ATOM      7  C   UNL     1       5.344   4.202  16.479  0.00  0.00    +0.000 A 
ATOM      8  C   UNL     1       6.507   4.957  16.712  0.00  0.00    +0.000 A 
ATOM      9  C   UNL     1       7.395   5.270  15.680  0.00  0.00    +0.000 A 
ATOM     10  C   UNL     1       7.153   4.819  14.386  0.00  0.00    +0.000 A 
ATOM     11  C   UNL     1       6.018   4.047  14.114  0.00  0.00    +0.000 A 
ATOM     12  C   UNL     1       5.127   3.750  15.163  0.00  0.00    +0.000 A 
BRANCH  11  13
ATOM     13  C   UNL     1       5.734   3.543  12.720  0.00  0.00    +0.000 C 
ATOM     14  F   UNL     1       5.924   2.202  12.575  0.00  0.00    +0.000 F 
ATOM     15  F   UNL     1       4.449   3.781  12.335  0.00  0.00    +0.000 F 
ATOM     16  F   UNL     1       6.518   4.136  11.781  0.00  0.00    +0.000 F 
ENDBRANCH  11  13
ENDBRANCH   4   7
BRANCH   1  18
ATOM     17  O   UNL     1       1.985   2.619  21.861  0.00  0.00    +0.000 OA
ATOM     18  C   UNL     1       1.619   2.995  20.761  0.00  0.00    +0.000 C 
BRANCH  18  19
ATOM     19  O   UNL     1       0.320   3.093  20.407  0.00  0.00    +0.000 OA
ATOM     20  H   UNL     1      -0.228   3.638  21.001  0.00  0.00    +0.000 HD
ENDBRANCH  18  19
ENDBRANCH   1  18
TORSDOF 4
ENDMDL
MODEL 9
REMARK VINA RESULT:      -7.4      5.056      7.226
REMARK  Name = 
REMARK  4 active torsions:
REMARK  status: ('A' for Active; 'I' for Inactive)
REMARK    1  A    between atoms: C_2  and  O_3
REMARK    2  A    between atoms: C_2  and  C_4
REMARK    3  A    between atoms: C_7  and  C_8
REMARK    4  A    between atoms: C_12  and  C_13
REMARK                            x       y       z     vdW  Elec       q    Type
REMARK                         _______ _______ _______ _____ _____    ______ ____
ROOT
ATOM      1  C   UNL     1       2.186   4.112  18.995  0.00  0.00    +0.000 A 
ATOM      2  C   UNL     1       2.606   5.359  18.530  0.00  0.00    +0.000 A 
ATOM      3  C   UNL     1       3.608   5.443  17.556  0.00  0.00    +0.000 A 
ATOM      4  C   UNL     1       4.223   4.291  17.028  0.00  0.00    +0.000 A 
ATOM      5  C   UNL     1       3.777   3.047  17.511  0.00  0.00    +0.000 A 
ATOM      6  C   UNL     1       2.760   2.953  18.467  0.00  0.00    +0.000 A 
ENDROOT
BRANCH   4   7
ATOM      7  C   UNL     1       5.275   4.389  15.988  0.00  0.00    +0.000 A 
ATOM      8  C   UNL     1       6.513   5.001  16.255  0.00  0.00    +0.000 A 
ATOM      9  C   UNL     1       7.491   5.135  15.265  0.00  0.00    +0.000 A 
ATOM     10  C   UNL     1       7.263   4.643  13.984  0.00  0.00    +0.000 A 
ATOM     11  C   UNL     1       6.054   4.009  13.680  0.00  0.00    +0.000 A 
ATOM     12  C   UNL     1       5.074   3.891  14.685  0.00  0.00    +0.000 A 
BRANCH  11  13
ATOM     13  C   UNL     1       5.785   3.464  12.299  0.00  0.00    +0.000 C 
ATOM     14  F   UNL     1       5.943   2.114  12.204  0.00  0.00    +0.000 F 
ATOM     15  F   UNL     1       4.513   3.720  11.880  0.00  0.00    +0.000 F 
ATOM     16  F   UNL     1       6.602   4.004  11.357  0.00  0.00    +0.000 F 
ENDBRANCH  11  13
ENDBRANCH   4   7
BRANCH   1  18
ATOM     17  O   UNL     1       0.908   4.959  20.813  0.00  0.00    +0.000 OA
ATOM     18  C   UNL     1       1.108   4.063  20.011  0.00  0.00    +0.000 C 
BRANCH  18  19
ATOM     19  O   UNL     1       0.398   2.914  19.995  0.00  0.00    +0.000 OA
ATOM     20  H   UNL     1      -0.466   2.971  19.547  0.00  0.00    +0.000 HD
ENDBRANCH  18  19
ENDBRANCH   1  18
TORSDOF 4
ENDMDL
