MODEL 1
REMARK VINA RESULT:      -8.1      0.000      0.000
REMARK  Name = 
REMARK  10 active torsions:
REMARK  status: ('A' for Active; 'I' for Inactive)
REMARK    1  A    between atoms: C_1  and  C_2
REMARK    2  A    between atoms: C_2  and  C_3
REMARK    3  A    between atoms: C_2  and  C_4
REMARK    4  A    between atoms: C_2  and  N_5
REMARK    5  A    between atoms: C_6  and  C_8
REMARK    6  A    between atoms: N_11  and  C_12
REMARK    7  A    between atoms: C_12  and  C_13
REMARK    8  A    between atoms: C_17  and  N_18
REMARK    9  A    between atoms: C_19  and  C_21
REMARK   10  A    between atoms: C_21  and  C_22
REMARK                            x       y       z     vdW  Elec       q    Type
REMARK                         _______ _______ _______ _____ _____    ______ ____
ROOT
ATOM      1  C   UNL     1       2.873   7.137  18.413  0.00  0.00    +0.000 A 
ATOM      2  C   UNL     1       2.752   6.084  19.330  0.00  0.00    +0.000 A 
ATOM      3  C   UNL     1       2.002   6.249  20.491  0.00  0.00    +0.000 A 
ATOM      4  C   UNL     1       1.372   7.467  20.753  0.00  0.00    +0.000 A 
ATOM      5  C   UNL     1       1.469   8.527  19.850  0.00  0.00    +0.000 A 
ATOM      6  C   UNL     1       2.206   8.348  18.672  0.00  0.00    +0.000 A 
ENDROOT
BRANCH   5   7
ATOM      7  N   UNL     1       0.906   9.799  20.083  0.00  0.00    +0.000 N 
ATOM      8  C   UNL     1       0.853  10.481  21.288  0.00  0.00    +0.000 C 
ATOM      9  O   UNL     1       1.184  10.047  22.388  0.00  0.00    +0.000 OA
ATOM     10  H   UNL     1       0.462  10.240  19.283  0.00  0.00    +0.000 HD
BRANCH   8  11
ATOM     11  C   UNL     1       0.289  11.888  21.161  0.00  0.00    +0.000 C 
BRANCH  11  12
ATOM     12  C   UNL     1       1.102  12.719  20.197  0.00  0.00    +0.000 A 
ATOM     13  C   UNL     1       2.342  13.225  20.628  0.00  0.00    +0.000 A 
ATOM     14  C   UNL     1       3.076  14.089  19.817  0.00  0.00    +0.000 A 
ATOM     15  C   UNL     1       2.580  14.458  18.571  0.00  0.00    +0.000 A 
ATOM     16 CL   UNL     1       3.461  15.566  17.593  0.00  0.00    +0.000 Cl
ATOM     17  C   UNL     1       1.365  13.953  18.116  0.00  0.00    +0.000 A 
ATOM     18  C   UNL     1       0.629  13.087  18.927  0.00  0.00    +0.000 A 
ATOM     19 CL   UNL     1      -0.884  12.513  18.318  0.00  0.00    +0.000 Cl
ENDBRANCH  11  12
ENDBRANCH   8  11
ENDBRANCH   5   7
BRANCH   1  20
ATOM     20  C   UNL     1       3.761   6.989  17.193  0.00  0.00    +0.000 C 
BRANCH  20  24
ATOM     21  C   UNL     1       6.749   4.083  16.096  0.00  0.00    +0.000 C 
ATOM     22  C   UNL     1       5.383   3.608  16.596  0.00  0.00    +0.000 C 
ATOM     23  C   UNL     1       4.353   4.734  16.510  0.00  0.00    +0.000 C 
ATOM     24  N   UNL     1       4.753   5.895  17.321  0.00  0.00    +0.000 NA
ATOM     25  C   UNL     1       6.079   6.404  16.923  0.00  0.00    +0.000 C 
ATOM     26  C   UNL     1       7.162   5.315  16.911  0.00  0.00    +0.000 C 
BRANCH  21  28
ATOM     27  N   UNL     1       6.443   3.307  13.780  0.00  0.00    +0.000 N 
ATOM     28  C   UNL     1       6.727   4.388  14.596  0.00  0.00    +0.000 C 
ATOM     29  O   UNL     1       6.936   5.516  14.159  0.00  0.00    +0.000 OA
ATOM     30  H   UNL     1       6.432   2.383  14.197  0.00  0.00    +0.000 HD
BRANCH  27  32
ATOM     31  C   UNL     1       4.776   3.762  11.996  0.00  0.00    +0.000 C 
ATOM     32  C   UNL     1       6.236   3.414  12.325  0.00  0.00    +0.000 C 
ATOM     33  C   UNL     1       6.647   2.101  11.632  0.00  0.00    +0.000 C 
ATOM     34  C   UNL     1       7.129   4.540  11.770  0.00  0.00    +0.000 C 
ENDBRANCH  27  32
ENDBRANCH  21  28
ENDBRANCH  20  24
ENDBRANCH   1  20
TORSDOF 7
ENDMDL
MODEL 2
REMARK VINA RESULT:      -8.1      2.450      3.384
REMARK  Name = 
REMARK  10 active torsions:
REMARK  status: ('A' for Active; 'I' for Inactive)
REMARK    1  A    between atoms: C_1  and  C_2
REMARK    2  A    between atoms: C_2  and  C_3
REMARK    3  A    between atoms: C_2  and  C_4
REMARK    4  A    between atoms: C_2  and  N_5
REMARK    5  A    between atoms: C_6  and  C_8
REMARK    6  A    between atoms: N_11  and  C_12
REMARK    7  A    between atoms: C_12  and  C_13
REMARK    8  A    between atoms: C_17  and  N_18
REMARK    9  A    between atoms: C_19  and  C_21
REMARK   10  A    between atoms: C_21  and  C_22
REMARK                            x       y       z     vdW  Elec       q    Type
REMARK                         _______ _______ _______ _____ _____    ______ ____
ROOT
ATOM      1  C   UNL     1       2.555   6.557  18.521  0.00  0.00    +0.000 A 
ATOM      2  C   UNL     1       2.271   5.481  19.374  0.00  0.00    +0.000 A 
ATOM      3  C   UNL     1       1.702   5.711  20.624  0.00  0.00    +0.000 A 
ATOM      4  C   UNL     1       1.415   7.013  21.037  0.00  0.00    +0.000 A 
ATOM      5  C   UNL     1       1.678   8.099  20.201  0.00  0.00    +0.000 A 
ATOM      6  C   UNL     1       2.230   7.861  18.935  0.00  0.00    +0.000 A 
ENDROOT
BRANCH   5   7
ATOM      7  N   UNL     1       1.468   9.441  20.581  0.00  0.00    +0.000 N 
ATOM      8  C   UNL     1       0.424  10.264  20.191  0.00  0.00    +0.000 C 
ATOM      9  O   UNL     1      -0.439  10.006  19.356  0.00  0.00    +0.000 OA
ATOM     10  H   UNL     1       2.183   9.851  21.173  0.00  0.00    +0.000 HD
BRANCH   8  11
ATOM     11  C   UNL     1       0.430  11.617  20.886  0.00  0.00    +0.000 C 
BRANCH  11  12
ATOM     12  C   UNL     1      -0.902  11.906  21.536  0.00  0.00    +0.000 A 
ATOM     13  C   UNL     1      -1.702  12.932  21.000  0.00  0.00    +0.000 A 
ATOM     14  C   UNL     1      -2.886  13.312  21.630  0.00  0.00    +0.000 A 
ATOM     15  C   UNL     1      -3.282  12.674  22.801  0.00  0.00    +0.000 A 
ATOM     16 CL   UNL     1      -4.715  13.179  23.608  0.00  0.00    +0.000 Cl
ATOM     17  C   UNL     1      -2.516  11.642  23.338  0.00  0.00    +0.000 A 
ATOM     18  C   UNL     1      -1.331  11.261  22.707  0.00  0.00    +0.000 A 
ATOM     19 CL   UNL     1      -0.411   9.990  23.436  0.00  0.00    +0.000 Cl
ENDBRANCH  11  12
ENDBRANCH   8  11
ENDBRANCH   5   7
BRANCH   1  20
ATOM     20  C   UNL     1       3.255   6.317  17.199  0.00  0.00    +0.000 C 
BRANCH  20  24
ATOM     21  C   UNL     1       6.876   4.249  16.106  0.00  0.00    +0.000 C 
ATOM     22  C   UNL     1       5.683   3.452  16.637  0.00  0.00    +0.000 C 
ATOM     23  C   UNL     1       4.398   4.274  16.547  0.00  0.00    +0.000 C 
ATOM     24  N   UNL     1       4.496   5.517  17.330  0.00  0.00    +0.000 NA
ATOM     25  C   UNL     1       5.643   6.339  16.901  0.00  0.00    +0.000 C 
ATOM     26  C   UNL     1       6.969   5.563  16.891  0.00  0.00    +0.000 C 
BRANCH  21  28
ATOM     27  N   UNL     1       6.512   3.383  13.831  0.00  0.00    +0.000 N 
ATOM     28  C   UNL     1       6.760   4.505  14.602  0.00  0.00    +0.000 C 
ATOM     29  O   UNL     1       6.868   5.631  14.124  0.00  0.00    +0.000 OA
ATOM     30  H   UNL     1       6.586   2.474  14.273  0.00  0.00    +0.000 HD
BRANCH  27  32
ATOM     31  C   UNL     1       7.170   4.411  11.668  0.00  0.00    +0.000 C 
ATOM     32  C   UNL     1       6.229   3.430  12.386  0.00  0.00    +0.000 C 
ATOM     33  C   UNL     1       4.759   3.820  12.144  0.00  0.00    +0.000 C 
ATOM     34  C   UNL     1       6.451   2.031  11.782  0.00  0.00    +0.000 C 
ENDBRANCH  27  32
ENDBRANCH  21  28
ENDBRANCH  20  24
ENDBRANCH   1  20
TORSDOF 7
ENDMDL
MODEL 3
REMARK VINA RESULT:      -8.0      1.130      1.419
REMARK  Name = 
REMARK  10 active torsions:
REMARK  status: ('A' for Active; 'I' for Inactive)
REMARK    1  A    between atoms: C_1  and  C_2
REMARK    2  A    between atoms: C_2  and  C_3
REMARK    3  A    between atoms: C_2  and  C_4
REMARK    4  A    between atoms: C_2  and  N_5
REMARK    5  A    between atoms: C_6  and  C_8
REMARK    6  A    between atoms: N_11  and  C_12
REMARK    7  A    between atoms: C_12  and  C_13
REMARK    8  A    between atoms: C_17  and  N_18
REMARK    9  A    between atoms: C_19  and  C_21
REMARK   10  A    between atoms: C_21  and  C_22
REMARK                            x       y       z     vdW  Elec       q    Type
REMARK                         _______ _______ _______ _____ _____    ______ ____
ROOT
ATOM      1  C   UNL     1       2.762   7.073  18.468  0.00  0.00    +0.000 A 
ATOM      2  C   UNL     1       2.566   5.985  19.329  0.00  0.00    +0.000 A 
ATOM      3  C   UNL     1       1.846   6.148  20.510  0.00  0.00    +0.000 A 
ATOM      4  C   UNL     1       1.322   7.397  20.846  0.00  0.00    +0.000 A 
ATOM      5  C   UNL     1       1.495   8.493  19.999  0.00  0.00    +0.000 A 
ATOM      6  C   UNL     1       2.200   8.318  18.801  0.00  0.00    +0.000 A 
ENDROOT
BRANCH   5   7
ATOM      7  N   UNL     1       1.043   9.793  20.308  0.00  0.00    +0.000 N 
ATOM      8  C   UNL     1       0.016  10.488  19.689  0.00  0.00    +0.000 C 
ATOM      9  O   UNL     1      -0.603  10.139  18.688  0.00  0.00    +0.000 OA
ATOM     10  H   UNL     1       1.554  10.277  21.039  0.00  0.00    +0.000 HD
BRANCH   8  11
ATOM     11  C   UNL     1      -0.296  11.820  20.352  0.00  0.00    +0.000 C 
BRANCH  11  12
ATOM     12  C   UNL     1       0.401  12.960  19.649  0.00  0.00    +0.000 A 
ATOM     13  C   UNL     1       1.657  12.717  19.062  0.00  0.00    +0.000 A 
ATOM     14  C   UNL     1       2.392  13.761  18.500  0.00  0.00    +0.000 A 
ATOM     15  C   UNL     1       1.881  15.056  18.520  0.00  0.00    +0.000 A 
ATOM     16 CL   UNL     1       2.811  16.351  17.874  0.00  0.00    +0.000 Cl
ATOM     17  C   UNL     1       0.632  15.314  19.077  0.00  0.00    +0.000 A 
ATOM     18  C   UNL     1      -0.105  14.270  19.639  0.00  0.00    +0.000 A 
ATOM     19 CL   UNL     1      -1.638  14.659  20.338  0.00  0.00    +0.000 Cl
ENDBRANCH  11  12
ENDBRANCH   8  11
ENDBRANCH   5   7
BRANCH   1  20
ATOM     20  C   UNL     1       3.619   6.919  17.227  0.00  0.00    +0.000 C 
BRANCH  20  24
ATOM     21  C   UNL     1       6.743   4.149  16.151  0.00  0.00    +0.000 C 
ATOM     22  C   UNL     1       5.402   3.614  16.655  0.00  0.00    +0.000 C 
ATOM     23  C   UNL     1       4.319   4.689  16.561  0.00  0.00    +0.000 C 
ATOM     24  N   UNL     1       4.663   5.874  17.363  0.00  0.00    +0.000 NA
ATOM     25  C   UNL     1       5.963   6.442  16.961  0.00  0.00    +0.000 C 
ATOM     26  C   UNL     1       7.097   5.406  16.956  0.00  0.00    +0.000 C 
BRANCH  21  28
ATOM     27  N   UNL     1       6.420   3.353  13.845  0.00  0.00    +0.000 N 
ATOM     28  C   UNL     1       6.707   4.442  14.649  0.00  0.00    +0.000 C 
ATOM     29  O   UNL     1       6.907   5.567  14.201  0.00  0.00    +0.000 OA
ATOM     30  H   UNL     1       6.417   2.433  14.269  0.00  0.00    +0.000 HD
BRANCH  27  32
ATOM     31  C   UNL     1       7.167   4.455  11.748  0.00  0.00    +0.000 C 
ATOM     32  C   UNL     1       6.201   3.447  12.391  0.00  0.00    +0.000 C 
ATOM     33  C   UNL     1       4.741   3.838  12.096  0.00  0.00    +0.000 C 
ATOM     34  C   UNL     1       6.459   2.070  11.752  0.00  0.00    +0.000 C 
ENDBRANCH  27  32
ENDBRANCH  21  28
ENDBRANCH  20  24
ENDBRANCH   1  20
TORSDOF 7
ENDMDL
MODEL 4
REMARK VINA RESULT:      -8.0      1.725      3.037
REMARK  Name = 
REMARK  10 active torsions:
REMARK  status: ('A' for Active; 'I' for Inactive)
REMARK    1  A    between atoms: C_1  and  C_2
REMARK    2  A    between atoms: C_2  and  C_3
REMARK    3  A    between atoms: C_2  and  C_4
REMARK    4  A    between atoms: C_2  and  N_5
REMARK    5  A    between atoms: C_6  and  C_8
REMARK    6  A    between atoms: N_11  and  C_12
REMARK    7  A    between atoms: C_12  and  C_13
REMARK    8  A    between atoms: C_17  and  N_18
REMARK    9  A    between atoms: C_19  and  C_21
REMARK   10  A    between atoms: C_21  and  C_22
REMARK                            x       y       z     vdW  Elec       q    Type
REMARK                         _______ _______ _______ _____ _____    ______ ____
ROOT
ATOM      1  C   UNL     1       2.617   7.099  18.466  0.00  0.00    +0.000 A 
ATOM      2  C   UNL     1       2.456   6.097  19.433  0.00  0.00    +0.000 A 
ATOM      3  C   UNL     1       1.804   6.377  20.631  0.00  0.00    +0.000 A 
ATOM      4  C   UNL     1       1.312   7.660  20.879  0.00  0.00    +0.000 A 
ATOM      5  C   UNL     1       1.449   8.671  19.927  0.00  0.00    +0.000 A 
ATOM      6  C   UNL     1       2.086   8.378  18.714  0.00  0.00    +0.000 A 
ENDROOT
BRANCH   5   7
ATOM      7  N   UNL     1       1.027  10.000  20.139  0.00  0.00    +0.000 N 
ATOM      8  C   UNL     1       0.762  10.607  21.355  0.00  0.00    +0.000 C 
ATOM      9  O   UNL     1       0.737  10.062  22.454  0.00  0.00    +0.000 OA
ATOM     10  H   UNL     1       0.868  10.553  19.302  0.00  0.00    +0.000 HD
BRANCH   8  11
ATOM     11  C   UNL     1       0.449  12.091  21.234  0.00  0.00    +0.000 C 
BRANCH  11  12
ATOM     12  C   UNL     1      -1.034  12.350  21.357  0.00  0.00    +0.000 A 
ATOM     13  C   UNL     1      -1.618  12.309  22.637  0.00  0.00    +0.000 A 
ATOM     14  C   UNL     1      -2.998  12.429  22.791  0.00  0.00    +0.000 A 
ATOM     15  C   UNL     1      -3.809  12.590  21.671  0.00  0.00    +0.000 A 
ATOM     16 CL   UNL     1      -5.516  12.685  21.858  0.00  0.00    +0.000 Cl
ATOM     17  C   UNL     1      -3.250  12.654  20.398  0.00  0.00    +0.000 A 
ATOM     18  C   UNL     1      -1.868  12.534  20.242  0.00  0.00    +0.000 A 
ATOM     19 CL   UNL     1      -1.236  12.597  18.633  0.00  0.00    +0.000 Cl
ENDBRANCH  11  12
ENDBRANCH   8  11
ENDBRANCH   5   7
BRANCH   1  20
ATOM     20  C   UNL     1       3.403   6.819  17.201  0.00  0.00    +0.000 C 
BRANCH  20  24
ATOM     21  C   UNL     1       6.774   4.283  16.318  0.00  0.00    +0.000 C 
ATOM     22  C   UNL     1       5.462   3.655  16.791  0.00  0.00    +0.000 C 
ATOM     23  C   UNL     1       4.301   4.636  16.627  0.00  0.00    +0.000 C 
ATOM     24  N   UNL     1       4.520   5.867  17.404  0.00  0.00    +0.000 NA
ATOM     25  C   UNL     1       5.785   6.526  17.031  0.00  0.00    +0.000 C 
ATOM     26  C   UNL     1       6.997   5.585  17.097  0.00  0.00    +0.000 C 
BRANCH  21  28
ATOM     27  N   UNL     1       6.372   3.453  14.036  0.00  0.00    +0.000 N 
ATOM     28  C   UNL     1       6.771   4.530  14.808  0.00  0.00    +0.000 C 
ATOM     29  O   UNL     1       7.088   5.614  14.326  0.00  0.00    +0.000 OA
ATOM     30  H   UNL     1       6.272   2.552  14.489  0.00  0.00    +0.000 HD
BRANCH  27  32
ATOM     31  C   UNL     1       7.209   4.436  11.915  0.00  0.00    +0.000 C 
ATOM     32  C   UNL     1       6.166   3.523  12.579  0.00  0.00    +0.000 C 
ATOM     33  C   UNL     1       4.741   4.017  12.266  0.00  0.00    +0.000 C 
ATOM     34  C   UNL     1       6.319   2.113  11.979  0.00  0.00    +0.000 C 
ENDBRANCH  27  32
ENDBRANCH  21  28
ENDBRANCH  20  24
ENDBRANCH   1  20
TORSDOF 7
ENDMDL
MODEL 5
REMARK VINA RESULT:      -8.0      2.978      4.605
REMARK  Name = 
REMARK  10 active torsions:
REMARK  status: ('A' for Active; 'I' for Inactive)
REMARK    1  A    between atoms: C_1  and  C_2
REMARK    2  A    between atoms: C_2  and  C_3
REMARK    3  A    between atoms: C_2  and  C_4
REMARK    4  A    between atoms: C_2  and  N_5
REMARK    5  A    between atoms: C_6  and  C_8
REMARK    6  A    between atoms: N_11  and  C_12
REMARK    7  A    between atoms: C_12  and  C_13
REMARK    8  A    between atoms: C_17  and  N_18
REMARK    9  A    between atoms: C_19  and  C_21
REMARK   10  A    between atoms: C_21  and  C_22
REMARK                            x       y       z     vdW  Elec       q    Type
REMARK                         _______ _______ _______ _____ _____    ______ ____
ROOT
ATOM      1  C   UNL     1       1.833   6.230  20.047  0.00  0.00    +0.000 A 
ATOM      2  C   UNL     1       2.241   5.996  18.726  0.00  0.00    +0.000 A 
ATOM      3  C   UNL     1       2.400   7.061  17.844  0.00  0.00    +0.000 A 
ATOM      4  C   UNL     1       2.149   8.368  18.267  0.00  0.00    +0.000 A 
ATOM      5  C   UNL     1       1.753   8.627  19.580  0.00  0.00    +0.000 A 
ATOM      6  C   UNL     1       1.616   7.554  20.470  0.00  0.00    +0.000 A 
ENDROOT
BRANCH   5   7
ATOM      7  N   UNL     1       1.427   9.915  20.053  0.00  0.00    +0.000 N 
ATOM      8  C   UNL     1       0.195  10.545  19.977  0.00  0.00    +0.000 C 
ATOM      9  O   UNL     1      -0.798  10.139  19.381  0.00  0.00    +0.000 OA
ATOM     10  H   UNL     1       2.192  10.444  20.459  0.00  0.00    +0.000 HD
BRANCH   8  11
ATOM     11  C   UNL     1       0.156  11.883  20.700  0.00  0.00    +0.000 C 
BRANCH  11  12
ATOM     12  C   UNL     1      -1.140  12.059  21.455  0.00  0.00    +0.000 A 
ATOM     13  C   UNL     1      -2.062  13.015  20.991  0.00  0.00    +0.000 A 
ATOM     14  C   UNL     1      -3.220  13.296  21.715  0.00  0.00    +0.000 A 
ATOM     15  C   UNL     1      -3.468  12.626  22.910  0.00  0.00    +0.000 A 
ATOM     16 CL   UNL     1      -4.870  13.010  23.830  0.00  0.00    +0.000 Cl
ATOM     17  C   UNL     1      -2.579  11.661  23.376  0.00  0.00    +0.000 A 
ATOM     18  C   UNL     1      -1.420  11.379  22.652  0.00  0.00    +0.000 A 
ATOM     19 CL   UNL     1      -0.343  10.190  23.296  0.00  0.00    +0.000 Cl
ENDBRANCH  11  12
ENDBRANCH   8  11
ENDBRANCH   5   7
BRANCH   1  20
ATOM     20  C   UNL     1       1.574   5.066  20.983  0.00  0.00    +0.000 C 
BRANCH  20  24
ATOM     21  C   UNL     1       3.491   2.207  18.388  0.00  0.00    +0.000 C 
ATOM     22  C   UNL     1       1.964   2.237  18.480  0.00  0.00    +0.000 C 
ATOM     23  C   UNL     1       1.483   3.558  19.080  0.00  0.00    +0.000 C 
ATOM     24  N   UNL     1       2.021   3.764  20.434  0.00  0.00    +0.000 NA
ATOM     25  C   UNL     1       3.495   3.721  20.444  0.00  0.00    +0.000 C 
ATOM     26  C   UNL     1       4.065   2.455  19.789  0.00  0.00    +0.000 C 
BRANCH  21  28
ATOM     27  N   UNL     1       5.334   3.613  17.562  0.00  0.00    +0.000 N 
ATOM     28  C   UNL     1       4.017   3.232  17.381  0.00  0.00    +0.000 C 
ATOM     29  O   UNL     1       3.316   3.669  16.473  0.00  0.00    +0.000 OA
ATOM     30  H   UNL     1       5.801   3.328  18.416  0.00  0.00    +0.000 HD
BRANCH  27  32
ATOM     31  C   UNL     1       5.466   5.889  16.580  0.00  0.00    +0.000 C 
ATOM     32  C   UNL     1       6.072   4.478  16.625  0.00  0.00    +0.000 C 
ATOM     33  C   UNL     1       6.082   3.851  15.218  0.00  0.00    +0.000 C 
ATOM     34  C   UNL     1       7.533   4.603  17.096  0.00  0.00    +0.000 C 
ENDBRANCH  27  32
ENDBRANCH  21  28
ENDBRANCH  20  24
ENDBRANCH   1  20
TORSDOF 7
ENDMDL
MODEL 6
REMARK VINA RESULT:      -8.0      1.300      1.465
REMARK  Name = 
REMARK  10 active torsions:
REMARK  status: ('A' for Active; 'I' for Inactive)
REMARK    1  A    between atoms: C_1  and  C_2
REMARK    2  A    between atoms: C_2  and  C_3
REMARK    3  A    between atoms: C_2  and  C_4
REMARK    4  A    between atoms: C_2  and  N_5
REMARK    5  A    between atoms: C_6  and  C_8
REMARK    6  A    between atoms: N_11  and  C_12
REMARK    7  A    between atoms: C_12  and  C_13
REMARK    8  A    between atoms: C_17  and  N_18
REMARK    9  A    between atoms: C_19  and  C_21
REMARK   10  A    between atoms: C_21  and  C_22
REMARK                            x       y       z     vdW  Elec       q    Type
REMARK                         _______ _______ _______ _____ _____    ______ ____
ROOT
ATOM      1  C   UNL     1       2.794   7.235  18.330  0.00  0.00    +0.000 A 
ATOM      2  C   UNL     1       2.660   6.213  19.280  0.00  0.00    +0.000 A 
ATOM      3  C   UNL     1       1.932   6.433  20.447  0.00  0.00    +0.000 A 
ATOM      4  C   UNL     1       1.338   7.674  20.681  0.00  0.00    +0.000 A 
ATOM      5  C   UNL     1       1.449   8.704  19.745  0.00  0.00    +0.000 A 
ATOM      6  C   UNL     1       2.162   8.470  18.562  0.00  0.00    +0.000 A 
ENDROOT
BRANCH   5   7
ATOM      7  N   UNL     1       0.924   9.997  19.946  0.00  0.00    +0.000 N 
ATOM      8  C   UNL     1      -0.178  10.557  19.320  0.00  0.00    +0.000 C 
ATOM      9  O   UNL     1      -0.822  10.067  18.397  0.00  0.00    +0.000 OA
ATOM     10  H   UNL     1       1.436  10.587  20.594  0.00  0.00    +0.000 HD
BRANCH   8  11
ATOM     11  C   UNL     1      -0.549  11.929  19.863  0.00  0.00    +0.000 C 
BRANCH  11  12
ATOM     12  C   UNL     1       0.572  12.921  19.657  0.00  0.00    +0.000 A 
ATOM     13  C   UNL     1       1.295  12.874  18.452  0.00  0.00    +0.000 A 
ATOM     14  C   UNL     1       2.409  13.691  18.260  0.00  0.00    +0.000 A 
ATOM     15  C   UNL     1       2.811  14.561  19.269  0.00  0.00    +0.000 A 
ATOM     16 CL   UNL     1       4.215  15.531  19.052  0.00  0.00    +0.000 Cl
ATOM     17  C   UNL     1       2.096  14.638  20.462  0.00  0.00    +0.000 A 
ATOM     18  C   UNL     1       0.982  13.821  20.655  0.00  0.00    +0.000 A 
ATOM     19 CL   UNL     1       0.151  13.944  22.167  0.00  0.00    +0.000 Cl
ENDBRANCH  11  12
ENDBRANCH   8  11
ENDBRANCH   5   7
BRANCH   1  20
ATOM     20  C   UNL     1       3.658   7.026  17.102  0.00  0.00    +0.000 C 
BRANCH  20  24
ATOM     21  C   UNL     1       6.734   4.164  16.136  0.00  0.00    +0.000 C 
ATOM     22  C   UNL     1       5.376   3.671  16.641  0.00  0.00    +0.000 C 
ATOM     23  C   UNL     1       4.317   4.765  16.505  0.00  0.00    +0.000 C 
ATOM     24  N   UNL     1       4.678   5.965  17.278  0.00  0.00    +0.000 NA
ATOM     25  C   UNL     1       5.994   6.495  16.874  0.00  0.00    +0.000 C 
ATOM     26  C   UNL     1       7.106   5.436  16.910  0.00  0.00    +0.000 C 
BRANCH  21  28
ATOM     27  N   UNL     1       6.357   3.327  13.853  0.00  0.00    +0.000 N 
ATOM     28  C   UNL     1       6.718   4.415  14.627  0.00  0.00    +0.000 C 
ATOM     29  O   UNL     1       6.996   5.511  14.147  0.00  0.00    +0.000 OA
ATOM     30  H   UNL     1       6.290   2.421  14.304  0.00  0.00    +0.000 HD
BRANCH  27  32
ATOM     31  C   UNL     1       4.715   3.847  12.064  0.00  0.00    +0.000 C 
ATOM     32  C   UNL     1       6.145   3.393  12.396  0.00  0.00    +0.000 C 
ATOM     33  C   UNL     1       6.439   2.025  11.753  0.00  0.00    +0.000 C 
ATOM     34  C   UNL     1       7.121   4.419  11.791  0.00  0.00    +0.000 C 
ENDBRANCH  27  32
ENDBRANCH  21  28
ENDBRANCH  20  24
ENDBRANCH   1  20
TORSDOF 7
ENDMDL
MODEL 7
REMARK VINA RESULT:      -8.0      1.993      3.259
REMARK  Name = 
REMARK  10 active torsions:
REMARK  status: ('A' for Active; 'I' for Inactive)
REMARK    1  A    between atoms: C_1  and  C_2
REMARK    2  A    between atoms: C_2  and  C_3
REMARK    3  A    between atoms: C_2  and  C_4
REMARK    4  A    between atoms: C_2  and  N_5
REMARK    5  A    between atoms: C_6  and  C_8
REMARK    6  A    between atoms: N_11  and  C_12
REMARK    7  A    between atoms: C_12  and  C_13
REMARK    8  A    between atoms: C_17  and  N_18
REMARK    9  A    between atoms: C_19  and  C_21
REMARK   10  A    between atoms: C_21  and  C_22
REMARK                            x       y       z     vdW  Elec       q    Type
REMARK                         _______ _______ _______ _____ _____    ______ ____
ROOT
ATOM      1  C   UNL     1       1.968   6.239  20.217  0.00  0.00    +0.000 A 
ATOM      2  C   UNL     1       2.676   6.264  19.007  0.00  0.00    +0.000 A 
ATOM      3  C   UNL     1       2.692   7.419  18.230  0.00  0.00    +0.000 A 
ATOM      4  C   UNL     1       1.999   8.557  18.647  0.00  0.00    +0.000 A 
ATOM      5  C   UNL     1       1.297   8.559  19.853  0.00  0.00    +0.000 A 
ATOM      6  C   UNL     1       1.302   7.402  20.643  0.00  0.00    +0.000 A 
ENDROOT
BRANCH   5   7
ATOM      7  N   UNL     1       0.529   9.654  20.303  0.00  0.00    +0.000 N 
ATOM      8  C   UNL     1       0.654  10.321  21.510  0.00  0.00    +0.000 C 
ATOM      9  O   UNL     1       1.379  10.003  22.449  0.00  0.00    +0.000 OA
ATOM     10  H   UNL     1      -0.218   9.955  19.684  0.00  0.00    +0.000 HD
BRANCH   8  11
ATOM     11  C   UNL     1      -0.250  11.539  21.624  0.00  0.00    +0.000 C 
BRANCH  11  12
ATOM     12  C   UNL     1       0.200  12.643  20.697  0.00  0.00    +0.000 A 
ATOM     13  C   UNL     1       1.421  13.288  20.966  0.00  0.00    +0.000 A 
ATOM     14  C   UNL     1       1.825  14.387  20.208  0.00  0.00    +0.000 A 
ATOM     15  C   UNL     1       1.015  14.852  19.177  0.00  0.00    +0.000 A 
ATOM     16 CL   UNL     1       1.489  16.239  18.276  0.00  0.00    +0.000 Cl
ATOM     17  C   UNL     1      -0.187  14.215  18.880  0.00  0.00    +0.000 A 
ATOM     18  C   UNL     1      -0.593  13.115  19.638  0.00  0.00    +0.000 A 
ATOM     19 CL   UNL     1      -2.108  12.383  19.238  0.00  0.00    +0.000 Cl
ENDBRANCH  11  12
ENDBRANCH   8  11
ENDBRANCH   5   7
BRANCH   1  20
ATOM     20  C   UNL     1       1.876   4.957  21.020  0.00  0.00    +0.000 C 
BRANCH  20  24
ATOM     21  C   UNL     1       3.396   2.400  17.901  0.00  0.00    +0.000 C 
ATOM     22  C   UNL     1       1.898   2.702  17.965  0.00  0.00    +0.000 C 
ATOM     23  C   UNL     1       1.629   3.932  18.831  0.00  0.00    +0.000 C 
ATOM     24  N   UNL     1       2.111   3.739  20.208  0.00  0.00    +0.000 NA
ATOM     25  C   UNL     1       3.550   3.415  20.239  0.00  0.00    +0.000 C 
ATOM     26  C   UNL     1       3.919   2.231  19.333  0.00  0.00    +0.000 C 
BRANCH  21  28
ATOM     27  N   UNL     1       5.441   3.740  17.618  0.00  0.00    +0.000 N 
ATOM     28  C   UNL     1       4.161   3.495  17.154  0.00  0.00    +0.000 C 
ATOM     29  O   UNL     1       3.670   4.099  16.205  0.00  0.00    +0.000 OA
ATOM     30  H   UNL     1       5.721   3.313  18.494  0.00  0.00    +0.000 HD
BRANCH  27  32
ATOM     31  C   UNL     1       5.857   6.092  16.939  0.00  0.00    +0.000 C 
ATOM     32  C   UNL     1       6.391   4.651  16.956  0.00  0.00    +0.000 C 
ATOM     33  C   UNL     1       6.680   4.167  15.522  0.00  0.00    +0.000 C 
ATOM     34  C   UNL     1       7.720   4.646  17.733  0.00  0.00    +0.000 C 
ENDBRANCH  27  32
ENDBRANCH  21  28
ENDBRANCH  20  24
ENDBRANCH   1  20
TORSDOF 7
ENDMDL
MODEL 8
REMARK VINA RESULT:      -7.9      4.472     11.294
REMARK  Name = 
REMARK  10 active torsions:
REMARK  status: ('A' for Active; 'I' for Inactive)
REMARK    1  A    between atoms: C_1  and  C_2
REMARK    2  A    between atoms: C_2  and  C_3
REMARK    3  A    between atoms: C_2  and  C_4
REMARK    4  A    between atoms: C_2  and  N_5
REMARK    5  A    between atoms: C_6  and  C_8
REMARK    6  A    between atoms: N_11  and  C_12
REMARK    7  A    between atoms: C_12  and  C_13
REMARK    8  A    between atoms: C_17  and  N_18
REMARK    9  A    between atoms: C_19  and  C_21
REMARK   10  A    between atoms: C_21  and  C_22
REMARK                            x       y       z     vdW  Elec       q    Type
REMARK                         _______ _______ _______ _____ _____    ______ ____
ROOT
ATOM      1  C   UNL     1       0.553   9.273  20.342  0.00  0.00    +0.000 A 
ATOM      2  C   UNL     1       0.650   9.996  19.145  0.00  0.00    +0.000 A 
ATOM      3  C   UNL     1       1.488   9.553  18.126  0.00  0.00    +0.000 A 
ATOM      4  C   UNL     1       2.240   8.388  18.290  0.00  0.00    +0.000 A 
ATOM      5  C   UNL     1       2.152   7.645  19.468  0.00  0.00    +0.000 A 
ATOM      6  C   UNL     1       1.290   8.083  20.483  0.00  0.00    +0.000 A 
ENDROOT
BRANCH   5   7
ATOM      7  N   UNL     1       2.928   6.495  19.722  0.00  0.00    +0.000 N 
ATOM      8  C   UNL     1       2.470   5.196  19.871  0.00  0.00    +0.000 C 
ATOM      9  O   UNL     1       1.298   4.835  19.922  0.00  0.00    +0.000 OA
ATOM     10  H   UNL     1       3.924   6.651  19.843  0.00  0.00    +0.000 HD
BRANCH   8  11
ATOM     11  C   UNL     1       3.588   4.174  20.009  0.00  0.00    +0.000 C 
BRANCH  11  12
ATOM     12  C   UNL     1       4.498   4.190  18.803  0.00  0.00    +0.000 A 
ATOM     13  C   UNL     1       5.774   4.767  18.934  0.00  0.00    +0.000 A 
ATOM     14  C   UNL     1       6.607   4.908  17.825  0.00  0.00    +0.000 A 
ATOM     15  C   UNL     1       6.173   4.476  16.575  0.00  0.00    +0.000 A 
ATOM     16 CL   UNL     1       7.179   4.698  15.197  0.00  0.00    +0.000 Cl
ATOM     17  C   UNL     1       4.921   3.884  16.427  0.00  0.00    +0.000 A 
ATOM     18  C   UNL     1       4.088   3.742  17.537  0.00  0.00    +0.000 A 
ATOM     19 CL   UNL     1       2.535   3.022  17.285  0.00  0.00    +0.000 Cl
ENDBRANCH  11  12
ENDBRANCH   8  11
ENDBRANCH   5   7
BRANCH   1  20
ATOM     20  C   UNL     1      -0.290   9.800  21.486  0.00  0.00    +0.000 C 
BRANCH  20  24
ATOM     21  C   UNL     1      -2.210  13.649  21.779  0.00  0.00    +0.000 C 
ATOM     22  C   UNL     1      -1.732  13.146  20.416  0.00  0.00    +0.000 C 
ATOM     23  C   UNL     1      -1.494  11.637  20.446  0.00  0.00    +0.000 C 
ATOM     24  N   UNL     1      -0.477  11.270  21.446  0.00  0.00    +0.000 NA
ATOM     25  C   UNL     1      -0.846  11.743  22.793  0.00  0.00    +0.000 C 
ATOM     26  C   UNL     1      -1.174  13.243  22.836  0.00  0.00    +0.000 C 
BRANCH  21  28
ATOM     27  N   UNL     1      -4.652  13.744  21.490  0.00  0.00    +0.000 N 
ATOM     28  C   UNL     1      -3.600  13.109  22.125  0.00  0.00    +0.000 C 
ATOM     29  O   UNL     1      -3.758  12.171  22.901  0.00  0.00    +0.000 OA
ATOM     30  H   UNL     1      -4.458  14.601  20.985  0.00  0.00    +0.000 HD
BRANCH  27  32
ATOM     31  C   UNL     1      -7.007  14.324  20.957  0.00  0.00    +0.000 C 
ATOM     32  C   UNL     1      -6.051  13.291  21.575  0.00  0.00    +0.000 C 
ATOM     33  C   UNL     1      -6.433  13.014  23.041  0.00  0.00    +0.000 C 
ATOM     34  C   UNL     1      -6.205  11.975  20.791  0.00  0.00    +0.000 C 
ENDBRANCH  27  32
ENDBRANCH  21  28
ENDBRANCH  20  24
ENDBRANCH   1  20
TORSDOF 7
ENDMDL
MODEL 9
REMARK VINA RESULT:      -7.9      2.375      3.559
REMARK  Name = 
REMARK  10 active torsions:
REMARK  status: ('A' for Active; 'I' for Inactive)
REMARK    1  A    between atoms: C_1  and  C_2
REMARK    2  A    between atoms: C_2  and  C_3
REMARK    3  A    between atoms: C_2  and  C_4
REMARK    4  A    between atoms: C_2  and  N_5
REMARK    5  A    between atoms: C_6  and  C_8
REMARK    6  A    between atoms: N_11  and  C_12
REMARK    7  A    between atoms: C_12  and  C_13
REMARK    8  A    between atoms: C_17  and  N_18
REMARK    9  A    between atoms: C_19  and  C_21
REMARK   10  A    between atoms: C_21  and  C_22
REMARK                            x       y       z     vdW  Elec       q    Type
REMARK                         _______ _______ _______ _____ _____    ______ ____
ROOT
ATOM      1  C   UNL     1       2.131   6.816  19.792  0.00  0.00    +0.000 A 
ATOM      2  C   UNL     1       2.963   6.758  18.665  0.00  0.00    +0.000 A 
ATOM      3  C   UNL     1       3.021   7.833  17.783  0.00  0.00    +0.000 A 
ATOM      4  C   UNL     1       2.248   8.973  18.011  0.00  0.00    +0.000 A 
ATOM      5  C   UNL     1       1.420   9.058  19.132  0.00  0.00    +0.000 A 
ATOM      6  C   UNL     1       1.382   7.982  20.029  0.00  0.00    +0.000 A 
ENDROOT
BRANCH   5   7
ATOM      7  N   UNL     1       0.570  10.154  19.389  0.00  0.00    +0.000 N 
ATOM      8  C   UNL     1      -0.588  10.489  18.707  0.00  0.00    +0.000 C 
ATOM      9  O   UNL     1      -1.015   9.958  17.686  0.00  0.00    +0.000 OA
ATOM     10  H   UNL     1       0.867  10.779  20.132  0.00  0.00    +0.000 HD
BRANCH   8  11
ATOM     11  C   UNL     1      -1.334  11.663  19.324  0.00  0.00    +0.000 C 
BRANCH  11  12
ATOM     12  C   UNL     1      -0.391  12.792  19.667  0.00  0.00    +0.000 A 
ATOM     13  C   UNL     1       0.167  13.542  18.615  0.00  0.00    +0.000 A 
ATOM     14  C   UNL     1       1.128  14.519  18.872  0.00  0.00    +0.000 A 
ATOM     15  C   UNL     1       1.541  14.757  20.179  0.00  0.00    +0.000 A 
ATOM     16 CL   UNL     1       2.764  15.926  20.491  0.00  0.00    +0.000 Cl
ATOM     17  C   UNL     1       0.986  14.040  21.237  0.00  0.00    +0.000 A 
ATOM     18  C   UNL     1       0.024  13.062  20.981  0.00  0.00    +0.000 A 
ATOM     19 CL   UNL     1      -0.608  12.188  22.333  0.00  0.00    +0.000 Cl
ENDBRANCH  11  12
ENDBRANCH   8  11
ENDBRANCH   5   7
BRANCH   1  20
ATOM     20  C   UNL     1       1.999   5.613  20.705  0.00  0.00    +0.000 C 
BRANCH  20  24
ATOM     21  C   UNL     1       3.400   2.701  17.852  0.00  0.00    +0.000 C 
ATOM     22  C   UNL     1       1.933   3.134  17.828  0.00  0.00    +0.000 C 
ATOM     23  C   UNL     1       1.743   4.446  18.589  0.00  0.00    +0.000 C 
ATOM     24  N   UNL     1       2.155   4.320  19.996  0.00  0.00    +0.000 NA
ATOM     25  C   UNL     1       3.556   3.877  20.113  0.00  0.00    +0.000 C 
ATOM     26  C   UNL     1       3.852   2.599  19.314  0.00  0.00    +0.000 C 
BRANCH  21  28
ATOM     27  N   UNL     1       5.533   3.904  17.610  0.00  0.00    +0.000 N 
ATOM     28  C   UNL     1       4.286   3.665  17.060  0.00  0.00    +0.000 C 
ATOM     29  O   UNL     1       3.913   4.176  16.008  0.00  0.00    +0.000 OA
ATOM     30  H   UNL     1       5.713   3.571  18.550  0.00  0.00    +0.000 HD
BRANCH  27  32
ATOM     31  C   UNL     1       6.180   6.164  16.808  0.00  0.00    +0.000 C 
ATOM     32  C   UNL     1       6.586   4.687  16.939  0.00  0.00    +0.000 C 
ATOM     33  C   UNL     1       6.894   4.089  15.555  0.00  0.00    +0.000 C 
ATOM     34  C   UNL     1       7.875   4.623  17.779  0.00  0.00    +0.000 C 
ENDBRANCH  27  32
ENDBRANCH  21  28
ENDBRANCH  20  24
ENDBRANCH   1  20
TORSDOF 7
ENDMDL
