MODEL 1
REMARK VINA RESULT:      -7.4      0.000      0.000
REMARK  Name = 
REMARK  5 active torsions:
REMARK  status: ('A' for Active; 'I' for Inactive)
REMARK    1  A    between atoms: C_1  and  C_2
REMARK    2  A    between atoms: C_2  and  C_3
REMARK    3  A    between atoms: C_3  and  C_4
REMARK    4  A    between atoms: C_7  and  C_8
REMARK    5  A    between atoms: C_21  and  C_23
REMARK                            x       y       z     vdW  Elec       q    Type
REMARK                         _______ _______ _______ _____ _____    ______ ____
ROOT
ATOM      1  C   UNL     1      -0.709  12.053  20.388  0.00  0.00    +0.000 C 
ATOM      2  C   UNL     1       0.178  10.824  20.322  0.00  0.00    +0.000 A 
ATOM      3  C   UNL     1       1.085  10.409  19.360  0.00  0.00    +0.000 A 
ATOM      4  C   UNL     1       1.578   9.108  19.455  0.00  0.00    +0.000 A 
ATOM      5  C   UNL     1       1.137   8.240  20.473  0.00  0.00    +0.000 A 
ATOM      6  C   UNL     1       0.285   8.693  21.483  0.00  0.00    +0.000 A 
ATOM      7  C   UNL     1      -0.135  10.003  21.405  0.00  0.00    +0.000 A 
ATOM      8  C   UNL     1      -0.838  10.833  22.393  0.00  0.00    +0.000 C 
ATOM      9  O   UNL     1      -1.059  10.500  23.541  0.00  0.00    +0.000 OA
ATOM     10  N   UNL     1      -0.975  12.099  21.829  0.00  0.00    +0.000 N 
ATOM     11  C   UNL     1      -0.288  13.218  22.456  0.00  0.00    +0.000 C 
ATOM     12  C   UNL     1       0.598  13.788  21.350  0.00  0.00    +0.000 C 
ATOM     13  N   UNL     1       0.028  13.276  20.104  0.00  0.00    +0.000 N 
ATOM     14  C   UNL     1       0.322  13.651  18.801  0.00  0.00    +0.000 C 
ATOM     15  O   UNL     1      -0.261  13.192  17.819  0.00  0.00    +0.000 OA
ENDROOT
BRANCH  14  16
ATOM     16  C   UNL     1       1.433  14.594  18.517  0.00  0.00    +0.000 A 
ATOM     17  C   UNL     1       1.300  15.972  18.738  0.00  0.00    +0.000 A 
ATOM     18  C   UNL     1       2.393  16.825  18.573  0.00  0.00    +0.000 A 
ATOM     19  C   UNL     1       3.636  16.298  18.247  0.00  0.00    +0.000 A 
ATOM     20  F   UNL     1       4.687  17.119  18.133  0.00  0.00    +0.000 F 
ATOM     21  C   UNL     1       3.805  14.930  18.068  0.00  0.00    +0.000 A 
ATOM     22  C   UNL     1       2.708  14.074  18.203  0.00  0.00    +0.000 A 
ENDBRANCH  14  16
BRANCH   1  26
ATOM     23  C   UNL     1      -4.582  11.550  18.369  0.00  0.00    +0.000 A 
ATOM     24  C   UNL     1      -4.438  12.437  19.431  0.00  0.00    +0.000 A 
ATOM     25  C   UNL     1      -3.210  12.577  20.068  0.00  0.00    +0.000 A 
ATOM     26  C   UNL     1      -2.068  11.841  19.679  0.00  0.00    +0.000 A 
ATOM     27  C   UNL     1      -2.211  10.986  18.575  0.00  0.00    +0.000 A 
ATOM     28  C   UNL     1      -3.455  10.837  17.936  0.00  0.00    +0.000 A 
BRANCH  23  29
ATOM     29  C   UNL     1      -5.951  11.311  17.785  0.00  0.00    +0.000 C 
BRANCH  29  31
ATOM     30  C   UNL     1      -6.987   9.639  19.352  0.00  0.00    +0.000 C 
ATOM     31  C   UNL     1      -7.042  11.068  18.833  0.00  0.00    +0.000 C 
ENDBRANCH  29  31
ENDBRANCH  23  29
ENDBRANCH   1  26
TORSDOF 4
ENDMDL
MODEL 2
REMARK VINA RESULT:      -7.3      3.225      7.168
REMARK  Name = 
REMARK  5 active torsions:
REMARK  status: ('A' for Active; 'I' for Inactive)
REMARK    1  A    between atoms: C_1  and  C_2
REMARK    2  A    between atoms: C_2  and  C_3
REMARK    3  A    between atoms: C_3  and  C_4
REMARK    4  A    between atoms: C_7  and  C_8
REMARK    5  A    between atoms: C_21  and  C_23
REMARK                            x       y       z     vdW  Elec       q    Type
REMARK                         _______ _______ _______ _____ _____    ______ ____
ROOT
ATOM      1  C   UNL     1       0.310  10.788  19.991  0.00  0.00    +0.000 C 
ATOM      2  C   UNL     1      -0.876  10.677  19.053  0.00  0.00    +0.000 A 
ATOM      3  C   UNL     1      -1.022  10.009  17.848  0.00  0.00    +0.000 A 
ATOM      4  C   UNL     1      -2.157  10.288  17.087  0.00  0.00    +0.000 A 
ATOM      5  C   UNL     1      -3.099  11.243  17.518  0.00  0.00    +0.000 A 
ATOM      6  C   UNL     1      -2.984  11.851  18.770  0.00  0.00    +0.000 A 
ATOM      7  C   UNL     1      -1.889  11.508  19.532  0.00  0.00    +0.000 A 
ATOM      8  C   UNL     1      -1.591  11.789  20.944  0.00  0.00    +0.000 C 
ATOM      9  O   UNL     1      -2.373  12.294  21.726  0.00  0.00    +0.000 OA
ATOM     10  N   UNL     1      -0.377  11.169  21.229  0.00  0.00    +0.000 N 
ATOM     11  C   UNL     1      -0.360  10.083  22.197  0.00  0.00    +0.000 C 
ATOM     12  C   UNL     1       0.223   8.899  21.430  0.00  0.00    +0.000 C 
ATOM     13  N   UNL     1       0.905   9.490  20.278  0.00  0.00    +0.000 N 
ATOM     14  C   UNL     1       1.769   8.881  19.379  0.00  0.00    +0.000 C 
ATOM     15  O   UNL     1       2.336   9.489  18.471  0.00  0.00    +0.000 OA
ENDROOT
BRANCH  14  16
ATOM     16  C   UNL     1       2.000   7.415  19.425  0.00  0.00    +0.000 A 
ATOM     17  C   UNL     1       1.703   6.661  20.568  0.00  0.00    +0.000 A 
ATOM     18  C   UNL     1       1.821   5.270  20.550  0.00  0.00    +0.000 A 
ATOM     19  C   UNL     1       2.174   4.623  19.373  0.00  0.00    +0.000 A 
ATOM     20  F   UNL     1       2.242   3.286  19.354  0.00  0.00    +0.000 F 
ATOM     21  C   UNL     1       2.428   5.344  18.212  0.00  0.00    +0.000 A 
ATOM     22  C   UNL     1       2.340   6.740  18.232  0.00  0.00    +0.000 A 
ENDBRANCH  14  16
BRANCH   1  26
ATOM     23  C   UNL     1       2.923  14.139  18.866  0.00  0.00    +0.000 A 
ATOM     24  C   UNL     1       2.204  13.438  17.904  0.00  0.00    +0.000 A 
ATOM     25  C   UNL     1       1.392  12.372  18.272  0.00  0.00    +0.000 A 
ATOM     26  C   UNL     1       1.256  11.954  19.616  0.00  0.00    +0.000 A 
ATOM     27  C   UNL     1       1.945  12.700  20.584  0.00  0.00    +0.000 A 
ATOM     28  C   UNL     1       2.775  13.772  20.211  0.00  0.00    +0.000 A 
BRANCH  23  29
ATOM     29  C   UNL     1       3.904  15.199  18.431  0.00  0.00    +0.000 C 
BRANCH  29  31
ATOM     30  C   UNL     1       2.183  17.025  18.265  0.00  0.00    +0.000 C 
ATOM     31  C   UNL     1       3.294  16.283  17.537  0.00  0.00    +0.000 C 
ENDBRANCH  29  31
ENDBRANCH  23  29
ENDBRANCH   1  26
TORSDOF 4
ENDMDL
MODEL 3
REMARK VINA RESULT:      -7.2      3.448      7.052
REMARK  Name = 
REMARK  5 active torsions:
REMARK  status: ('A' for Active; 'I' for Inactive)
REMARK    1  A    between atoms: C_1  and  C_2
REMARK    2  A    between atoms: C_2  and  C_3
REMARK    3  A    between atoms: C_3  and  C_4
REMARK    4  A    between atoms: C_7  and  C_8
REMARK    5  A    between atoms: C_21  and  C_23
REMARK                            x       y       z     vdW  Elec       q    Type
REMARK                         _______ _______ _______ _____ _____    ______ ____
ROOT
ATOM      1  C   UNL     1      -1.270  12.418  20.278  0.00  0.00    +0.000 C 
ATOM      2  C   UNL     1      -0.818  11.194  21.050  0.00  0.00    +0.000 A 
ATOM      3  C   UNL     1      -0.759  10.950  22.413  0.00  0.00    +0.000 A 
ATOM      4  C   UNL     1      -0.068   9.816  22.838  0.00  0.00    +0.000 A 
ATOM      5  C   UNL     1       0.577   8.972  21.911  0.00  0.00    +0.000 A 
ATOM      6  C   UNL     1       0.444   9.182  20.537  0.00  0.00    +0.000 A 
ATOM      7  C   UNL     1      -0.301  10.271  20.140  0.00  0.00    +0.000 A 
ATOM      8  C   UNL     1      -0.804  10.642  18.810  0.00  0.00    +0.000 C 
ATOM      9  O   UNL     1      -0.734   9.933  17.825  0.00  0.00    +0.000 OA
ATOM     10  N   UNL     1      -1.546  11.810  18.972  0.00  0.00    +0.000 N 
ATOM     11  C   UNL     1      -2.974  11.770  18.701  0.00  0.00    +0.000 C 
ATOM     12  C   UNL     1      -3.622  12.225  20.007  0.00  0.00    +0.000 C 
ATOM     13  N   UNL     1      -2.559  12.912  20.740  0.00  0.00    +0.000 N 
ATOM     14  C   UNL     1      -2.661  13.690  21.884  0.00  0.00    +0.000 C 
ATOM     15  O   UNL     1      -1.704  14.272  22.393  0.00  0.00    +0.000 OA
ENDROOT
BRANCH  14  16
ATOM     16  C   UNL     1      -3.951  13.800  22.613  0.00  0.00    +0.000 A 
ATOM     17  C   UNL     1      -4.931  14.727  22.233  0.00  0.00    +0.000 A 
ATOM     18  C   UNL     1      -6.179  14.735  22.858  0.00  0.00    +0.000 A 
ATOM     19  C   UNL     1      -6.475  13.778  23.820  0.00  0.00    +0.000 A 
ATOM     20  F   UNL     1      -7.689  13.766  24.383  0.00  0.00    +0.000 F 
ATOM     21  C   UNL     1      -5.537  12.817  24.181  0.00  0.00    +0.000 A 
ATOM     22  C   UNL     1      -4.275  12.822  23.580  0.00  0.00    +0.000 A 
ENDBRANCH  14  16
BRANCH   1  26
ATOM     23  C   UNL     1       2.037  15.254  19.685  0.00  0.00    +0.000 A 
ATOM     24  C   UNL     1       2.152  14.198  20.583  0.00  0.00    +0.000 A 
ATOM     25  C   UNL     1       1.094  13.315  20.770  0.00  0.00    +0.000 A 
ATOM     26  C   UNL     1      -0.129  13.443  20.072  0.00  0.00    +0.000 A 
ATOM     27  C   UNL     1      -0.217  14.482  19.132  0.00  0.00    +0.000 A 
ATOM     28  C   UNL     1       0.850  15.380  18.949  0.00  0.00    +0.000 A 
BRANCH  23  29
ATOM     29  C   UNL     1       3.141  16.278  19.601  0.00  0.00    +0.000 C 
BRANCH  29  31
ATOM     30  C   UNL     1       4.452  15.167  17.765  0.00  0.00    +0.000 C 
ATOM     31  C   UNL     1       3.736  16.437  18.199  0.00  0.00    +0.000 C 
ENDBRANCH  29  31
ENDBRANCH  23  29
ENDBRANCH   1  26
TORSDOF 4
ENDMDL
MODEL 4
REMARK VINA RESULT:      -7.2      3.154      7.206
REMARK  Name = 
REMARK  5 active torsions:
REMARK  status: ('A' for Active; 'I' for Inactive)
REMARK    1  A    between atoms: C_1  and  C_2
REMARK    2  A    between atoms: C_2  and  C_3
REMARK    3  A    between atoms: C_3  and  C_4
REMARK    4  A    between atoms: C_7  and  C_8
REMARK    5  A    between atoms: C_21  and  C_23
REMARK                            x       y       z     vdW  Elec       q    Type
REMARK                         _______ _______ _______ _____ _____    ______ ____
ROOT
ATOM      1  C   UNL     1       0.200  10.989  20.013  0.00  0.00    +0.000 C 
ATOM      2  C   UNL     1      -0.996  10.846  19.091  0.00  0.00    +0.000 A 
ATOM      3  C   UNL     1      -1.134  10.193  17.877  0.00  0.00    +0.000 A 
ATOM      4  C   UNL     1      -2.291  10.439  17.138  0.00  0.00    +0.000 A 
ATOM      5  C   UNL     1      -3.263  11.349  17.599  0.00  0.00    +0.000 A 
ATOM      6  C   UNL     1      -3.152  11.941  18.859  0.00  0.00    +0.000 A 
ATOM      7  C   UNL     1      -2.033  11.629  19.599  0.00  0.00    +0.000 A 
ATOM      8  C   UNL     1      -1.724  11.900  21.010  0.00  0.00    +0.000 C 
ATOM      9  O   UNL     1      -2.513  12.361  21.812  0.00  0.00    +0.000 OA
ATOM     10  N   UNL     1      -0.483  11.324  21.268  0.00  0.00    +0.000 N 
ATOM     11  C   UNL     1      -0.409  10.223  22.217  0.00  0.00    +0.000 C 
ATOM     12  C   UNL     1       0.208   9.075  21.422  0.00  0.00    +0.000 C 
ATOM     13  N   UNL     1       0.848   9.711  20.270  0.00  0.00    +0.000 N 
ATOM     14  C   UNL     1       1.722   9.151  19.349  0.00  0.00    +0.000 C 
ATOM     15  O   UNL     1       2.250   9.795  18.442  0.00  0.00    +0.000 OA
ENDROOT
BRANCH  14  16
ATOM     16  C   UNL     1       2.011   7.695  19.367  0.00  0.00    +0.000 A 
ATOM     17  C   UNL     1       1.776   6.915  20.507  0.00  0.00    +0.000 A 
ATOM     18  C   UNL     1       1.947   5.529  20.466  0.00  0.00    +0.000 A 
ATOM     19  C   UNL     1       2.291   4.913  19.270  0.00  0.00    +0.000 A 
ATOM     20  F   UNL     1       2.410   3.580  19.230  0.00  0.00    +0.000 F 
ATOM     21  C   UNL     1       2.483   5.658  18.113  0.00  0.00    +0.000 A 
ATOM     22  C   UNL     1       2.343   7.049  18.156  0.00  0.00    +0.000 A 
ENDBRANCH  14  16
BRANCH   1  26
ATOM     23  C   UNL     1       2.815  14.375  19.004  0.00  0.00    +0.000 A 
ATOM     24  C   UNL     1       2.823  13.820  20.279  0.00  0.00    +0.000 A 
ATOM     25  C   UNL     1       1.982  12.757  20.589  0.00  0.00    +0.000 A 
ATOM     26  C   UNL     1       1.092  12.197  19.643  0.00  0.00    +0.000 A 
ATOM     27  C   UNL     1       1.127  12.732  18.346  0.00  0.00    +0.000 A 
ATOM     28  C   UNL     1       1.972  13.813  18.035  0.00  0.00    +0.000 A 
BRANCH  23  29
ATOM     29  C   UNL     1       3.631  15.614  18.731  0.00  0.00    +0.000 C 
BRANCH  29  31
ATOM     30  C   UNL     1       5.737  14.578  17.827  0.00  0.00    +0.000 C 
ATOM     31  C   UNL     1       5.136  15.426  18.939  0.00  0.00    +0.000 C 
ENDBRANCH  29  31
ENDBRANCH  23  29
ENDBRANCH   1  26
TORSDOF 4
ENDMDL
MODEL 5
REMARK VINA RESULT:      -7.2      0.578      1.232
REMARK  Name = 
REMARK  5 active torsions:
REMARK  status: ('A' for Active; 'I' for Inactive)
REMARK    1  A    between atoms: C_1  and  C_2
REMARK    2  A    between atoms: C_2  and  C_3
REMARK    3  A    between atoms: C_3  and  C_4
REMARK    4  A    between atoms: C_7  and  C_8
REMARK    5  A    between atoms: C_21  and  C_23
REMARK                            x       y       z     vdW  Elec       q    Type
REMARK                         _______ _______ _______ _____ _____    ______ ____
ROOT
ATOM      1  C   UNL     1      -0.763  12.159  20.404  0.00  0.00    +0.000 C 
ATOM      2  C   UNL     1       0.095  10.911  20.340  0.00  0.00    +0.000 A 
ATOM      3  C   UNL     1       0.994  10.475  19.380  0.00  0.00    +0.000 A 
ATOM      4  C   UNL     1       1.457   9.163  19.476  0.00  0.00    +0.000 A 
ATOM      5  C   UNL     1       0.994   8.306  20.494  0.00  0.00    +0.000 A 
ATOM      6  C   UNL     1       0.151   8.778  21.502  0.00  0.00    +0.000 A 
ATOM      7  C   UNL     1      -0.239  10.097  21.423  0.00  0.00    +0.000 A 
ATOM      8  C   UNL     1      -0.925  10.944  22.409  0.00  0.00    +0.000 C 
ATOM      9  O   UNL     1      -1.154  10.616  23.558  0.00  0.00    +0.000 OA
ATOM     10  N   UNL     1      -1.032  12.212  21.845  0.00  0.00    +0.000 N 
ATOM     11  C   UNL     1      -0.320  13.315  22.473  0.00  0.00    +0.000 C 
ATOM     12  C   UNL     1       0.581  13.864  21.369  0.00  0.00    +0.000 C 
ATOM     13  N   UNL     1       0.002  13.365  20.122  0.00  0.00    +0.000 N 
ATOM     14  C   UNL     1       0.306  13.733  18.819  0.00  0.00    +0.000 C 
ATOM     15  O   UNL     1      -0.285  13.288  17.836  0.00  0.00    +0.000 OA
ENDROOT
BRANCH  14  16
ATOM     16  C   UNL     1       1.439  14.651  18.537  0.00  0.00    +0.000 A 
ATOM     17  C   UNL     1       1.320  16.037  18.705  0.00  0.00    +0.000 A 
ATOM     18  C   UNL     1       2.429  16.869  18.544  0.00  0.00    +0.000 A 
ATOM     19  C   UNL     1       3.674  16.314  18.276  0.00  0.00    +0.000 A 
ATOM     20  F   UNL     1       4.740  17.117  18.167  0.00  0.00    +0.000 F 
ATOM     21  C   UNL     1       3.829  14.939  18.152  0.00  0.00    +0.000 A 
ATOM     22  C   UNL     1       2.716  14.103  18.283  0.00  0.00    +0.000 A 
ENDBRANCH  14  16
BRANCH   1  26
ATOM     23  C   UNL     1      -4.622  11.546  18.389  0.00  0.00    +0.000 A 
ATOM     24  C   UNL     1      -3.488  10.846  17.991  0.00  0.00    +0.000 A 
ATOM     25  C   UNL     1      -2.271  11.059  18.629  0.00  0.00    +0.000 A 
ATOM     26  C   UNL     1      -2.126  11.978  19.693  0.00  0.00    +0.000 A 
ATOM     27  C   UNL     1      -3.287  12.642  20.121  0.00  0.00    +0.000 A 
ATOM     28  C   UNL     1      -4.516  12.433  19.470  0.00  0.00    +0.000 A 
BRANCH  23  29
ATOM     29  C   UNL     1      -5.896  11.404  17.595  0.00  0.00    +0.000 C 
BRANCH  29  31
ATOM     30  C   UNL     1      -7.053  13.536  16.931  0.00  0.00    +0.000 C 
ATOM     31  C   UNL     1      -6.978  12.423  17.966  0.00  0.00    +0.000 C 
ENDBRANCH  29  31
ENDBRANCH  23  29
ENDBRANCH   1  26
TORSDOF 4
ENDMDL
MODEL 6
REMARK VINA RESULT:      -7.1      3.190      7.116
REMARK  Name = 
REMARK  5 active torsions:
REMARK  status: ('A' for Active; 'I' for Inactive)
REMARK    1  A    between atoms: C_1  and  C_2
REMARK    2  A    between atoms: C_2  and  C_3
REMARK    3  A    between atoms: C_3  and  C_4
REMARK    4  A    between atoms: C_7  and  C_8
REMARK    5  A    between atoms: C_21  and  C_23
REMARK                            x       y       z     vdW  Elec       q    Type
REMARK                         _______ _______ _______ _____ _____    ______ ____
ROOT
ATOM      1  C   UNL     1       0.301  10.824  19.925  0.00  0.00    +0.000 C 
ATOM      2  C   UNL     1      -0.902  10.733  19.007  0.00  0.00    +0.000 A 
ATOM      3  C   UNL     1      -1.071  10.088  17.792  0.00  0.00    +0.000 A 
ATOM      4  C   UNL     1      -2.219  10.383  17.057  0.00  0.00    +0.000 A 
ATOM      5  C   UNL     1      -3.152  11.331  17.523  0.00  0.00    +0.000 A 
ATOM      6  C   UNL     1      -3.013  11.915  18.784  0.00  0.00    +0.000 A 
ATOM      7  C   UNL     1      -1.905  11.556  19.520  0.00  0.00    +0.000 A 
ATOM      8  C   UNL     1      -1.581  11.810  20.931  0.00  0.00    +0.000 C 
ATOM      9  O   UNL     1      -2.348  12.302  21.736  0.00  0.00    +0.000 OA
ATOM     10  N   UNL     1      -0.363  11.184  21.183  0.00  0.00    +0.000 N 
ATOM     11  C   UNL     1      -0.330  10.079  22.129  0.00  0.00    +0.000 C 
ATOM     12  C   UNL     1       0.237   8.909  21.329  0.00  0.00    +0.000 C 
ATOM     13  N   UNL     1       0.898   9.521  20.176  0.00  0.00    +0.000 N 
ATOM     14  C   UNL     1       1.745   8.928  19.251  0.00  0.00    +0.000 C 
ATOM     15  O   UNL     1       2.296   9.552  18.344  0.00  0.00    +0.000 OA
ENDROOT
BRANCH  14  16
ATOM     16  C   UNL     1       1.975   7.461  19.265  0.00  0.00    +0.000 A 
ATOM     17  C   UNL     1       2.544   6.797  18.170  0.00  0.00    +0.000 A 
ATOM     18  C   UNL     1       2.856   5.439  18.248  0.00  0.00    +0.000 A 
ATOM     19  C   UNL     1       2.659   4.754  19.440  0.00  0.00    +0.000 A 
ATOM     20  F   UNL     1       3.002   3.462  19.518  0.00  0.00    +0.000 F 
ATOM     21  C   UNL     1       2.140   5.400  20.556  0.00  0.00    +0.000 A 
ATOM     22  C   UNL     1       1.798   6.753  20.474  0.00  0.00    +0.000 A 
ENDBRANCH  14  16
BRANCH   1  26
ATOM     23  C   UNL     1       3.042  14.116  18.934  0.00  0.00    +0.000 A 
ATOM     24  C   UNL     1       2.829  13.735  20.254  0.00  0.00    +0.000 A 
ATOM     25  C   UNL     1       1.950  12.700  20.555  0.00  0.00    +0.000 A 
ATOM     26  C   UNL     1       1.241  11.996  19.554  0.00  0.00    +0.000 A 
ATOM     27  C   UNL     1       1.501  12.355  18.222  0.00  0.00    +0.000 A 
ATOM     28  C   UNL     1       2.383  13.407  17.919  0.00  0.00    +0.000 A 
BRANCH  23  29
ATOM     29  C   UNL     1       3.889  15.329  18.640  0.00  0.00    +0.000 C 
BRANCH  29  31
ATOM     30  C   UNL     1       2.048  17.022  18.377  0.00  0.00    +0.000 C 
ATOM     31  C   UNL     1       3.225  16.338  17.698  0.00  0.00    +0.000 C 
ENDBRANCH  29  31
ENDBRANCH  23  29
ENDBRANCH   1  26
TORSDOF 4
ENDMDL
MODEL 7
REMARK VINA RESULT:      -7.1      3.404      7.028
REMARK  Name = 
REMARK  5 active torsions:
REMARK  status: ('A' for Active; 'I' for Inactive)
REMARK    1  A    between atoms: C_1  and  C_2
REMARK    2  A    between atoms: C_2  and  C_3
REMARK    3  A    between atoms: C_3  and  C_4
REMARK    4  A    between atoms: C_7  and  C_8
REMARK    5  A    between atoms: C_21  and  C_23
REMARK                            x       y       z     vdW  Elec       q    Type
REMARK                         _______ _______ _______ _____ _____    ______ ____
ROOT
ATOM      1  C   UNL     1      -1.253  12.446  20.156  0.00  0.00    +0.000 C 
ATOM      2  C   UNL     1      -0.824  11.256  20.993  0.00  0.00    +0.000 A 
ATOM      3  C   UNL     1      -0.852  11.052  22.363  0.00  0.00    +0.000 A 
ATOM      4  C   UNL     1      -0.163   9.949  22.867  0.00  0.00    +0.000 A 
ATOM      5  C   UNL     1       0.563   9.098  22.011  0.00  0.00    +0.000 A 
ATOM      6  C   UNL     1       0.519   9.265  20.626  0.00  0.00    +0.000 A 
ATOM      7  C   UNL     1      -0.224  10.323  20.147  0.00  0.00    +0.000 A 
ATOM      8  C   UNL     1      -0.645  10.642  18.776  0.00  0.00    +0.000 C 
ATOM      9  O   UNL     1      -0.491   9.908  17.819  0.00  0.00    +0.000 OA
ATOM     10  N   UNL     1      -1.425  11.794  18.853  0.00  0.00    +0.000 N 
ATOM     11  C   UNL     1      -2.831  11.708  18.489  0.00  0.00    +0.000 C 
ATOM     12  C   UNL     1      -3.577  12.182  19.734  0.00  0.00    +0.000 C 
ATOM     13  N   UNL     1      -2.583  12.917  20.516  0.00  0.00    +0.000 N 
ATOM     14  C   UNL     1      -2.782  13.724  21.627  0.00  0.00    +0.000 C 
ATOM     15  O   UNL     1      -1.875  14.346  22.181  0.00  0.00    +0.000 OA
ENDROOT
BRANCH  14  16
ATOM     16  C   UNL     1      -4.120  13.820  22.264  0.00  0.00    +0.000 A 
ATOM     17  C   UNL     1      -4.500  12.962  23.304  0.00  0.00    +0.000 A 
ATOM     18  C   UNL     1      -5.717  13.144  23.965  0.00  0.00    +0.000 A 
ATOM     19  C   UNL     1      -6.529  14.220  23.630  0.00  0.00    +0.000 A 
ATOM     20  F   UNL     1      -7.673  14.411  24.298  0.00  0.00    +0.000 F 
ATOM     21  C   UNL     1      -6.153  15.113  22.634  0.00  0.00    +0.000 A 
ATOM     22  C   UNL     1      -4.949  14.919  21.949  0.00  0.00    +0.000 A 
ENDBRANCH  14  16
BRANCH   1  26
ATOM     23  C   UNL     1       1.877  15.499  19.706  0.00  0.00    +0.000 A 
ATOM     24  C   UNL     1       0.718  15.544  18.938  0.00  0.00    +0.000 A 
ATOM     25  C   UNL     1      -0.258  14.565  19.082  0.00  0.00    +0.000 A 
ATOM     26  C   UNL     1      -0.127  13.495  19.996  0.00  0.00    +0.000 A 
ATOM     27  C   UNL     1       1.023  13.486  20.802  0.00  0.00    +0.000 A 
ATOM     28  C   UNL     1       2.015  14.472  20.650  0.00  0.00    +0.000 A 
BRANCH  23  29
ATOM     29  C   UNL     1       2.983  16.488  19.435  0.00  0.00    +0.000 C 
BRANCH  29  31
ATOM     30  C   UNL     1       4.249  15.199  17.685  0.00  0.00    +0.000 C 
ATOM     31  C   UNL     1       3.486  16.480  17.988  0.00  0.00    +0.000 C 
ENDBRANCH  29  31
ENDBRANCH  23  29
ENDBRANCH   1  26
TORSDOF 4
ENDMDL
MODEL 8
REMARK VINA RESULT:      -7.1      1.678      2.504
REMARK  Name = 
REMARK  5 active torsions:
REMARK  status: ('A' for Active; 'I' for Inactive)
REMARK    1  A    between atoms: C_1  and  C_2
REMARK    2  A    between atoms: C_2  and  C_3
REMARK    3  A    between atoms: C_3  and  C_4
REMARK    4  A    between atoms: C_7  and  C_8
REMARK    5  A    between atoms: C_21  and  C_23
REMARK                            x       y       z     vdW  Elec       q    Type
REMARK                         _______ _______ _______ _____ _____    ______ ____
ROOT
ATOM      1  C   UNL     1      -0.941  12.428  20.565  0.00  0.00    +0.000 C 
ATOM      2  C   UNL     1      -0.194  11.413  21.408  0.00  0.00    +0.000 A 
ATOM      3  C   UNL     1       1.081  10.886  21.280  0.00  0.00    +0.000 A 
ATOM      4  C   UNL     1       1.409   9.785  22.069  0.00  0.00    +0.000 A 
ATOM      5  C   UNL     1       0.460   9.210  22.938  0.00  0.00    +0.000 A 
ATOM      6  C   UNL     1      -0.794   9.796  23.120  0.00  0.00    +0.000 A 
ATOM      7  C   UNL     1      -1.070  10.924  22.378  0.00  0.00    +0.000 A 
ATOM      8  C   UNL     1      -2.179  11.883  22.487  0.00  0.00    +0.000 C 
ATOM      9  O   UNL     1      -3.000  11.887  23.383  0.00  0.00    +0.000 OA
ATOM     10  N   UNL     1      -1.953  12.869  21.531  0.00  0.00    +0.000 N 
ATOM     11  C   UNL     1      -1.693  14.229  21.980  0.00  0.00    +0.000 C 
ATOM     12  C   UNL     1      -0.333  14.575  21.380  0.00  0.00    +0.000 C 
ATOM     13  N   UNL     1      -0.138  13.612  20.296  0.00  0.00    +0.000 N 
ATOM     14  C   UNL     1       0.830  13.613  19.303  0.00  0.00    +0.000 C 
ATOM     15  O   UNL     1       0.870  12.779  18.398  0.00  0.00    +0.000 OA
ENDROOT
BRANCH  14  16
ATOM     16  C   UNL     1       1.938  14.601  19.326  0.00  0.00    +0.000 A 
ATOM     17  C   UNL     1       3.179  14.298  19.902  0.00  0.00    +0.000 A 
ATOM     18  C   UNL     1       4.243  15.198  19.812  0.00  0.00    +0.000 A 
ATOM     19  C   UNL     1       4.088  16.376  19.092  0.00  0.00    +0.000 A 
ATOM     20  F   UNL     1       5.126  17.214  18.975  0.00  0.00    +0.000 F 
ATOM     21  C   UNL     1       2.882  16.680  18.471  0.00  0.00    +0.000 A 
ATOM     22  C   UNL     1       1.805  15.795  18.583  0.00  0.00    +0.000 A 
ENDBRANCH  14  16
BRANCH   1  26
ATOM     23  C   UNL     1      -3.065  10.481  17.244  0.00  0.00    +0.000 A 
ATOM     24  C   UNL     1      -1.833  10.006  17.683  0.00  0.00    +0.000 A 
ATOM     25  C   UNL     1      -1.167  10.638  18.726  0.00  0.00    +0.000 A 
ATOM     26  C   UNL     1      -1.694  11.774  19.381  0.00  0.00    +0.000 A 
ATOM     27  C   UNL     1      -2.960  12.216  18.965  0.00  0.00    +0.000 A 
ATOM     28  C   UNL     1      -3.631  11.581  17.904  0.00  0.00    +0.000 A 
BRANCH  23  29
ATOM     29  C   UNL     1      -3.703   9.868  16.023  0.00  0.00    +0.000 C 
BRANCH  29  31
ATOM     30  C   UNL     1      -3.820   9.965  13.513  0.00  0.00    +0.000 C 
ATOM     31  C   UNL     1      -2.915  10.094  14.729  0.00  0.00    +0.000 C 
ENDBRANCH  29  31
ENDBRANCH  23  29
ENDBRANCH   1  26
TORSDOF 4
ENDMDL
MODEL 9
REMARK VINA RESULT:      -6.9      2.827      6.752
REMARK  Name = 
REMARK  5 active torsions:
REMARK  status: ('A' for Active; 'I' for Inactive)
REMARK    1  A    between atoms: C_1  and  C_2
REMARK    2  A    between atoms: C_2  and  C_3
REMARK    3  A    between atoms: C_3  and  C_4
REMARK    4  A    between atoms: C_7  and  C_8
REMARK    5  A    between atoms: C_21  and  C_23
REMARK                            x       y       z     vdW  Elec       q    Type
REMARK                         _______ _______ _______ _____ _____    ______ ____
ROOT
ATOM      1  C   UNL     1      -0.278  11.481  20.248  0.00  0.00    +0.000 C 
ATOM      2  C   UNL     1      -1.492  11.249  19.370  0.00  0.00    +0.000 A 
ATOM      3  C   UNL     1      -1.618  10.627  18.138  0.00  0.00    +0.000 A 
ATOM      4  C   UNL     1      -2.824  10.780  17.456  0.00  0.00    +0.000 A 
ATOM      5  C   UNL     1      -3.861  11.571  17.989  0.00  0.00    +0.000 A 
ATOM      6  C   UNL     1      -3.755  12.127  19.266  0.00  0.00    +0.000 A 
ATOM      7  C   UNL     1      -2.579  11.905  19.948  0.00  0.00    +0.000 A 
ATOM      8  C   UNL     1      -2.237  12.158  21.355  0.00  0.00    +0.000 C 
ATOM      9  O   UNL     1      -3.032  12.509  22.205  0.00  0.00    +0.000 OA
ATOM     10  N   UNL     1      -0.934  11.702  21.540  0.00  0.00    +0.000 N 
ATOM     11  C   UNL     1      -0.709  10.583  22.443  0.00  0.00    +0.000 C 
ATOM     12  C   UNL     1      -0.016   9.531  21.581  0.00  0.00    +0.000 C 
ATOM     13  N   UNL     1       0.506  10.267  20.429  0.00  0.00    +0.000 N 
ATOM     14  C   UNL     1       1.390   9.831  19.453  0.00  0.00    +0.000 C 
ATOM     15  O   UNL     1       1.811  10.555  18.551  0.00  0.00    +0.000 OA
ENDROOT
BRANCH  14  16
ATOM     16  C   UNL     1       1.823   8.411  19.404  0.00  0.00    +0.000 A 
ATOM     17  C   UNL     1       1.652   7.553  20.499  0.00  0.00    +0.000 A 
ATOM     18  C   UNL     1       1.961   6.196  20.392  0.00  0.00    +0.000 A 
ATOM     19  C   UNL     1       2.383   5.679  19.173  0.00  0.00    +0.000 A 
ATOM     20  F   UNL     1       2.635   4.369  19.069  0.00  0.00    +0.000 F 
ATOM     21  C   UNL     1       2.516   6.499  18.059  0.00  0.00    +0.000 A 
ATOM     22  C   UNL     1       2.236   7.865  18.168  0.00  0.00    +0.000 A 
ENDBRANCH  14  16
BRANCH   1  26
ATOM     23  C   UNL     1       1.767  15.233  19.215  0.00  0.00    +0.000 A 
ATOM     24  C   UNL     1       0.700  14.767  18.455  0.00  0.00    +0.000 A 
ATOM     25  C   UNL     1       0.070  13.572  18.785  0.00  0.00    +0.000 A 
ATOM     26  C   UNL     1       0.473  12.785  19.888  0.00  0.00    +0.000 A 
ATOM     27  C   UNL     1       1.518  13.289  20.679  0.00  0.00    +0.000 A 
ATOM     28  C   UNL     1       2.161  14.493  20.339  0.00  0.00    +0.000 A 
BRANCH  23  29
ATOM     29  C   UNL     1       2.524  16.455  18.758  0.00  0.00    +0.000 C 
BRANCH  29  31
ATOM     30  C   UNL     1       4.512  15.312  17.726  0.00  0.00    +0.000 C 
ATOM     31  C   UNL     1       3.335  16.242  17.476  0.00  0.00    +0.000 C 
ENDBRANCH  29  31
ENDBRANCH  23  29
ENDBRANCH   1  26
TORSDOF 4
ENDMDL
