MODEL 1
REMARK VINA RESULT:      -8.2      0.000      0.000
REMARK  Name = 
REMARK  9 active torsions:
REMARK  status: ('A' for Active; 'I' for Inactive)
REMARK    1  A    between atoms: C_1  and  O_2
REMARK    2  A    between atoms: O_2  and  C_3
REMARK    3  A    between atoms: C_9  and  C_10
REMARK    4  A    between atoms: C_10  and  C_12
REMARK    5  A    between atoms: C_12  and  N_13
REMARK    6  A    between atoms: C_17  and  C_18
REMARK    7  A    between atoms: C_17  and  C_19
REMARK    8  A    between atoms: C_22  and  O_23
REMARK    9  A    between atoms: O_23  and  C_24
REMARK                            x       y       z     vdW  Elec       q    Type
REMARK                         _______ _______ _______ _____ _____    ______ ____
ROOT
ATOM      1  N   UNL     1       3.641   3.978  18.102  0.00  0.00    +0.000 N 
ATOM      2  C   UNL     1       2.321   3.704  17.923  0.00  0.00    +0.000 C 
ATOM      3  O   UNL     1       1.807   3.121  16.983  0.00  0.00    +0.000 OA
ATOM      4  N   UNL     1       1.604   4.287  18.942  0.00  0.00    +0.000 N 
ATOM      5  C   UNL     1       2.434   5.083  19.823  0.00  0.00    +0.000 C 
ATOM      6  C   UNL     1       2.386   4.491  21.232  0.00  0.00    +0.000 C 
ATOM      7  C   UNL     1       3.822   4.784  19.196  0.00  0.00    +0.000 C 
ATOM      8  O   UNL     1       4.887   5.260  19.571  0.00  0.00    +0.000 OA
ATOM      9  H   UNL     1       0.594   4.302  18.924  0.00  0.00    +0.000 HD
ENDROOT
BRANCH   5  10
ATOM     10  C   UNL     1       2.074   6.571  19.703  0.00  0.00    +0.000 A 
ATOM     11  C   UNL     1       2.293   7.303  18.525  0.00  0.00    +0.000 A 
ATOM     12  C   UNL     1       1.944   8.657  18.439  0.00  0.00    +0.000 A 
ATOM     13  C   UNL     1       1.356   9.315  19.515  0.00  0.00    +0.000 A 
ATOM     14  C   UNL     1       1.158   8.622  20.705  0.00  0.00    +0.000 A 
ATOM     15  C   UNL     1       1.511   7.267  20.794  0.00  0.00    +0.000 A 
BRANCH  13  16
ATOM     16  O   UNL     1       1.056  10.630  19.299  0.00  0.00    +0.000 OA
BRANCH  16  17
ATOM     17  C   UNL     1      -0.286  10.901  18.932  0.00  0.00    +0.000 C 
ATOM     18  F   UNL     1      -0.582  10.206  17.806  0.00  0.00    +0.000 F 
ATOM     19  F   UNL     1      -1.081  10.405  19.915  0.00  0.00    +0.000 F 
ENDBRANCH  16  17
ENDBRANCH  13  16
ENDBRANCH   5  10
BRANCH   1  20
ATOM     20  C   UNL     1       4.648   3.755  17.087  0.00  0.00    +0.000 C 
BRANCH  20  21
ATOM     21  C   UNL     1       4.883   4.923  16.133  0.00  0.00    +0.000 C 
ATOM     22  O   UNL     1       4.424   6.044  16.349  0.00  0.00    +0.000 OA
BRANCH  21  29
ATOM     23  C   UNL     1       7.003   5.144  14.652  0.00  0.00    +0.000 A 
ATOM     24  C   UNL     1       7.676   4.790  13.469  0.00  0.00    +0.000 A 
ATOM     25  C   UNL     1       7.043   4.028  12.490  0.00  0.00    +0.000 A 
ATOM     26  C   UNL     1       5.736   3.615  12.690  0.00  0.00    +0.000 A 
ATOM     27  F   UNL     1       5.125   2.893  11.744  0.00  0.00    +0.000 F 
ATOM     28  C   UNL     1       5.056   3.929  13.864  0.00  0.00    +0.000 A 
ATOM     29  C   UNL     1       5.685   4.681  14.876  0.00  0.00    +0.000 A 
BRANCH  23  31
ATOM     30  C   UNL     1       7.727   5.309  16.920  0.00  0.00    +0.000 C 
ATOM     31  O   UNL     1       7.615   5.891  15.623  0.00  0.00    +0.000 OA
ENDBRANCH  23  31
ENDBRANCH  21  29
ENDBRANCH  20  21
ENDBRANCH   1  20
TORSDOF 7
ENDMDL
MODEL 2
REMARK VINA RESULT:      -8.1      0.452      1.087
REMARK  Name = 
REMARK  9 active torsions:
REMARK  status: ('A' for Active; 'I' for Inactive)
REMARK    1  A    between atoms: C_1  and  O_2
REMARK    2  A    between atoms: O_2  and  C_3
REMARK    3  A    between atoms: C_9  and  C_10
REMARK    4  A    between atoms: C_10  and  C_12
REMARK    5  A    between atoms: C_12  and  N_13
REMARK    6  A    between atoms: C_17  and  C_18
REMARK    7  A    between atoms: C_17  and  C_19
REMARK    8  A    between atoms: C_22  and  O_23
REMARK    9  A    between atoms: O_23  and  C_24
REMARK                            x       y       z     vdW  Elec       q    Type
REMARK                         _______ _______ _______ _____ _____    ______ ____
ROOT
ATOM      1  N   UNL     1       3.623   3.926  18.155  0.00  0.00    +0.000 N 
ATOM      2  C   UNL     1       2.306   3.644  17.963  0.00  0.00    +0.000 C 
ATOM      3  O   UNL     1       1.804   3.072  17.010  0.00  0.00    +0.000 OA
ATOM      4  N   UNL     1       1.578   4.207  18.984  0.00  0.00    +0.000 N 
ATOM      5  C   UNL     1       2.395   4.997  19.883  0.00  0.00    +0.000 C 
ATOM      6  C   UNL     1       2.341   4.383  21.283  0.00  0.00    +0.000 C 
ATOM      7  C   UNL     1       3.789   4.717  19.262  0.00  0.00    +0.000 C 
ATOM      8  O   UNL     1       4.848   5.195  19.652  0.00  0.00    +0.000 OA
ATOM      9  H   UNL     1       0.568   4.214  18.959  0.00  0.00    +0.000 HD
ENDROOT
BRANCH   5  10
ATOM     10  C   UNL     1       2.024   6.483  19.782  0.00  0.00    +0.000 A 
ATOM     11  C   UNL     1       1.466   7.192  20.857  0.00  0.00    +0.000 A 
ATOM     12  C   UNL     1       1.148   8.551  20.742  0.00  0.00    +0.000 A 
ATOM     13  C   UNL     1       1.388   9.245  19.559  0.00  0.00    +0.000 A 
ATOM     14  C   UNL     1       1.910   8.559  18.467  0.00  0.00    +0.000 A 
ATOM     15  C   UNL     1       2.224   7.196  18.580  0.00  0.00    +0.000 A 
BRANCH  13  16
ATOM     16  O   UNL     1       1.041  10.565  19.579  0.00  0.00    +0.000 OA
BRANCH  16  17
ATOM     17  C   UNL     1      -0.263  10.849  20.057  0.00  0.00    +0.000 C 
ATOM     18  F   UNL     1      -0.367  12.182  20.285  0.00  0.00    +0.000 F 
ATOM     19  F   UNL     1      -1.132  10.557  19.055  0.00  0.00    +0.000 F 
ENDBRANCH  16  17
ENDBRANCH  13  16
ENDBRANCH   5  10
BRANCH   1  20
ATOM     20  C   UNL     1       4.639   3.725  17.145  0.00  0.00    +0.000 C 
BRANCH  20  21
ATOM     21  C   UNL     1       4.853   4.899  16.194  0.00  0.00    +0.000 C 
ATOM     22  O   UNL     1       4.373   6.011  16.410  0.00  0.00    +0.000 OA
BRANCH  21  29
ATOM     23  C   UNL     1       6.977   5.147  14.723  0.00  0.00    +0.000 A 
ATOM     24  C   UNL     1       7.657   4.810  13.539  0.00  0.00    +0.000 A 
ATOM     25  C   UNL     1       7.032   4.054  12.550  0.00  0.00    +0.000 A 
ATOM     26  C   UNL     1       5.727   3.631  12.741  0.00  0.00    +0.000 A 
ATOM     27  F   UNL     1       5.124   2.914  11.786  0.00  0.00    +0.000 F 
ATOM     28  C   UNL     1       5.041   3.929  13.916  0.00  0.00    +0.000 A 
ATOM     29  C   UNL     1       5.662   4.674  14.936  0.00  0.00    +0.000 A 
BRANCH  23  31
ATOM     30  C   UNL     1       7.730   5.279  16.983  0.00  0.00    +0.000 C 
ATOM     31  O   UNL     1       7.581   5.889  15.703  0.00  0.00    +0.000 OA
ENDBRANCH  23  31
ENDBRANCH  21  29
ENDBRANCH  20  21
ENDBRANCH   1  20
TORSDOF 7
ENDMDL
MODEL 3
REMARK VINA RESULT:      -8.1      0.966      1.465
REMARK  Name = 
REMARK  9 active torsions:
REMARK  status: ('A' for Active; 'I' for Inactive)
REMARK    1  A    between atoms: C_1  and  O_2
REMARK    2  A    between atoms: O_2  and  C_3
REMARK    3  A    between atoms: C_9  and  C_10
REMARK    4  A    between atoms: C_10  and  C_12
REMARK    5  A    between atoms: C_12  and  N_13
REMARK    6  A    between atoms: C_17  and  C_18
REMARK    7  A    between atoms: C_17  and  C_19
REMARK    8  A    between atoms: C_22  and  O_23
REMARK    9  A    between atoms: O_23  and  C_24
REMARK                            x       y       z     vdW  Elec       q    Type
REMARK                         _______ _______ _______ _____ _____    ______ ____
ROOT
ATOM      1  N   UNL     1       4.541   4.224  17.613  0.00  0.00    +0.000 N 
ATOM      2  C   UNL     1       3.284   3.807  17.306  0.00  0.00    +0.000 C 
ATOM      3  O   UNL     1       2.927   3.207  16.307  0.00  0.00    +0.000 OA
ATOM      4  N   UNL     1       2.416   4.265  18.271  0.00  0.00    +0.000 N 
ATOM      5  C   UNL     1       3.066   5.116  19.246  0.00  0.00    +0.000 C 
ATOM      6  C   UNL     1       2.964   4.467  20.628  0.00  0.00    +0.000 C 
ATOM      7  C   UNL     1       4.529   5.002  18.741  0.00  0.00    +0.000 C 
ATOM      8  O   UNL     1       5.494   5.582  19.226  0.00  0.00    +0.000 OA
ATOM      9  H   UNL     1       1.417   4.164  18.160  0.00  0.00    +0.000 HD
ENDROOT
BRANCH   5  10
ATOM     10  C   UNL     1       2.545   6.556  19.136  0.00  0.00    +0.000 A 
ATOM     11  C   UNL     1       1.919   7.212  20.208  0.00  0.00    +0.000 A 
ATOM     12  C   UNL     1       1.464   8.530  20.083  0.00  0.00    +0.000 A 
ATOM     13  C   UNL     1       1.631   9.237  18.895  0.00  0.00    +0.000 A 
ATOM     14  C   UNL     1       2.218   8.600  17.807  0.00  0.00    +0.000 A 
ATOM     15  C   UNL     1       2.670   7.277  17.929  0.00  0.00    +0.000 A 
BRANCH  13  16
ATOM     16  O   UNL     1       1.151  10.515  18.907  0.00  0.00    +0.000 OA
BRANCH  16  17
ATOM     17  C   UNL     1      -0.211  10.662  18.538  0.00  0.00    +0.000 C 
ATOM     18  F   UNL     1      -0.512   9.737  17.593  0.00  0.00    +0.000 F 
ATOM     19  F   UNL     1      -0.959  10.361  19.630  0.00  0.00    +0.000 F 
ENDBRANCH  16  17
ENDBRANCH  13  16
ENDBRANCH   5  10
BRANCH   1  20
ATOM     20  C   UNL     1       5.653   4.157  16.689  0.00  0.00    +0.000 C 
BRANCH  20  21
ATOM     21  C   UNL     1       5.573   5.114  15.503  0.00  0.00    +0.000 C 
ATOM     22  O   UNL     1       5.219   6.285  15.631  0.00  0.00    +0.000 OA
BRANCH  21  29
ATOM     23  C   UNL     1       7.147   4.810  13.462  0.00  0.00    +0.000 A 
ATOM     24  C   UNL     1       7.381   4.209  12.213  0.00  0.00    +0.000 A 
ATOM     25  C   UNL     1       6.398   3.437  11.598  0.00  0.00    +0.000 A 
ATOM     26  C   UNL     1       5.179   3.263  12.230  0.00  0.00    +0.000 A 
ATOM     27  F   UNL     1       4.230   2.531  11.634  0.00  0.00    +0.000 F 
ATOM     28  C   UNL     1       4.931   3.825  13.480  0.00  0.00    +0.000 A 
ATOM     29  C   UNL     1       5.919   4.591  14.127  0.00  0.00    +0.000 A 
BRANCH  23  31
ATOM     30  C   UNL     1       9.219   5.981  13.284  0.00  0.00    +0.000 C 
ATOM     31  O   UNL     1       8.107   5.570  14.077  0.00  0.00    +0.000 OA
ENDBRANCH  23  31
ENDBRANCH  21  29
ENDBRANCH  20  21
ENDBRANCH   1  20
TORSDOF 7
ENDMDL
MODEL 4
REMARK VINA RESULT:      -8.0      1.003      1.275
REMARK  Name = 
REMARK  9 active torsions:
REMARK  status: ('A' for Active; 'I' for Inactive)
REMARK    1  A    between atoms: C_1  and  O_2
REMARK    2  A    between atoms: O_2  and  C_3
REMARK    3  A    between atoms: C_9  and  C_10
REMARK    4  A    between atoms: C_10  and  C_12
REMARK    5  A    between atoms: C_12  and  N_13
REMARK    6  A    between atoms: C_17  and  C_18
REMARK    7  A    between atoms: C_17  and  C_19
REMARK    8  A    between atoms: C_22  and  O_23
REMARK    9  A    between atoms: O_23  and  C_24
REMARK                            x       y       z     vdW  Elec       q    Type
REMARK                         _______ _______ _______ _____ _____    ______ ____
ROOT
ATOM      1  N   UNL     1       4.554   4.279  17.694  0.00  0.00    +0.000 N 
ATOM      2  C   UNL     1       3.304   3.841  17.383  0.00  0.00    +0.000 C 
ATOM      3  O   UNL     1       2.965   3.215  16.393  0.00  0.00    +0.000 OA
ATOM      4  N   UNL     1       2.422   4.310  18.328  0.00  0.00    +0.000 N 
ATOM      5  C   UNL     1       3.051   5.190  19.291  0.00  0.00    +0.000 C 
ATOM      6  C   UNL     1       2.942   4.571  20.686  0.00  0.00    +0.000 C 
ATOM      7  C   UNL     1       4.521   5.082  18.804  0.00  0.00    +0.000 C 
ATOM      8  O   UNL     1       5.474   5.684  19.285  0.00  0.00    +0.000 OA
ATOM      9  H   UNL     1       1.425   4.195  18.210  0.00  0.00    +0.000 HD
ENDROOT
BRANCH   5  10
ATOM     10  C   UNL     1       2.515   6.621  19.144  0.00  0.00    +0.000 A 
ATOM     11  C   UNL     1       2.621   7.342  17.944  0.00  0.00    +0.000 A 
ATOM     12  C   UNL     1       2.113   8.642  17.833  0.00  0.00    +0.000 A 
ATOM     13  C   UNL     1       1.473   9.256  18.907  0.00  0.00    +0.000 A 
ATOM     14  C   UNL     1       1.384   8.576  20.117  0.00  0.00    +0.000 A 
ATOM     15  C   UNL     1       1.897   7.275  20.231  0.00  0.00    +0.000 A 
BRANCH  13  16
ATOM     16  O   UNL     1       1.017  10.519  18.666  0.00  0.00    +0.000 OA
BRANCH  16  17
ATOM     17  C   UNL     1      -0.378  10.711  18.839  0.00  0.00    +0.000 C 
ATOM     18  F   UNL     1      -0.626  12.037  18.977  0.00  0.00    +0.000 F 
ATOM     19  F   UNL     1      -0.984  10.319  17.690  0.00  0.00    +0.000 F 
ENDBRANCH  16  17
ENDBRANCH  13  16
ENDBRANCH   5  10
BRANCH   1  20
ATOM     20  C   UNL     1       5.676   4.206  16.783  0.00  0.00    +0.000 C 
BRANCH  20  21
ATOM     21  C   UNL     1       5.620   5.168  15.600  0.00  0.00    +0.000 C 
ATOM     22  O   UNL     1       5.306   6.350  15.735  0.00  0.00    +0.000 OA
BRANCH  21  29
ATOM     23  C   UNL     1       7.172   4.818  13.549  0.00  0.00    +0.000 A 
ATOM     24  C   UNL     1       7.378   4.214  12.296  0.00  0.00    +0.000 A 
ATOM     25  C   UNL     1       6.365   3.480  11.684  0.00  0.00    +0.000 A 
ATOM     26  C   UNL     1       5.143   3.346  12.322  0.00  0.00    +0.000 A 
ATOM     27  F   UNL     1       4.166   2.651  11.728  0.00  0.00    +0.000 F 
ATOM     28  C   UNL     1       4.922   3.912  13.575  0.00  0.00    +0.000 A 
ATOM     29  C   UNL     1       5.940   4.640  14.220  0.00  0.00    +0.000 A 
BRANCH  23  31
ATOM     30  C   UNL     1       9.228   6.010  13.341  0.00  0.00    +0.000 C 
ATOM     31  O   UNL     1       8.161   5.540  14.162  0.00  0.00    +0.000 OA
ENDBRANCH  23  31
ENDBRANCH  21  29
ENDBRANCH  20  21
ENDBRANCH   1  20
TORSDOF 7
ENDMDL
MODEL 5
REMARK VINA RESULT:      -7.9      3.599      7.766
REMARK  Name = 
REMARK  9 active torsions:
REMARK  status: ('A' for Active; 'I' for Inactive)
REMARK    1  A    between atoms: C_1  and  O_2
REMARK    2  A    between atoms: O_2  and  C_3
REMARK    3  A    between atoms: C_9  and  C_10
REMARK    4  A    between atoms: C_10  and  C_12
REMARK    5  A    between atoms: C_12  and  N_13
REMARK    6  A    between atoms: C_17  and  C_18
REMARK    7  A    between atoms: C_17  and  C_19
REMARK    8  A    between atoms: C_22  and  O_23
REMARK    9  A    between atoms: O_23  and  C_24
REMARK                            x       y       z     vdW  Elec       q    Type
REMARK                         _______ _______ _______ _____ _____    ______ ____
ROOT
ATOM      1  N   UNL     1       5.614   5.467  18.954  0.00  0.00    +0.000 N 
ATOM      2  C   UNL     1       4.702   6.294  18.376  0.00  0.00    +0.000 C 
ATOM      3  O   UNL     1       3.550   6.484  18.726  0.00  0.00    +0.000 OA
ATOM      4  N   UNL     1       5.251   6.832  17.235  0.00  0.00    +0.000 N 
ATOM      5  C   UNL     1       6.563   6.295  16.941  0.00  0.00    +0.000 C 
ATOM      6  C   UNL     1       7.592   7.427  16.983  0.00  0.00    +0.000 C 
ATOM      7  C   UNL     1       6.751   5.395  18.191  0.00  0.00    +0.000 C 
ATOM      8  O   UNL     1       7.720   4.678  18.410  0.00  0.00    +0.000 OA
ATOM      9  H   UNL     1       4.690   7.379  16.597  0.00  0.00    +0.000 HD
ENDROOT
BRANCH   5  10
ATOM     10  C   UNL     1       6.528   5.463  15.651  0.00  0.00    +0.000 A 
ATOM     11  C   UNL     1       5.527   4.510  15.400  0.00  0.00    +0.000 A 
ATOM     12  C   UNL     1       5.512   3.773  14.210  0.00  0.00    +0.000 A 
ATOM     13  C   UNL     1       6.481   3.972  13.231  0.00  0.00    +0.000 A 
ATOM     14  C   UNL     1       7.503   4.885  13.468  0.00  0.00    +0.000 A 
ATOM     15  C   UNL     1       7.523   5.622  14.663  0.00  0.00    +0.000 A 
BRANCH  13  16
ATOM     16  O   UNL     1       6.349   3.196  12.115  0.00  0.00    +0.000 OA
BRANCH  16  17
ATOM     17  C   UNL     1       5.029   2.771  11.817  0.00  0.00    +0.000 C 
ATOM     18  F   UNL     1       4.406   3.740  11.103  0.00  0.00    +0.000 F 
ATOM     19  F   UNL     1       5.128   1.690  11.003  0.00  0.00    +0.000 F 
ENDBRANCH  16  17
ENDBRANCH  13  16
ENDBRANCH   5  10
BRANCH   1  20
ATOM     20  C   UNL     1       5.289   4.532  20.010  0.00  0.00    +0.000 C 
BRANCH  20  21
ATOM     21  C   UNL     1       4.576   3.261  19.559  0.00  0.00    +0.000 C 
ATOM     22  O   UNL     1       5.177   2.328  19.028  0.00  0.00    +0.000 OA
BRANCH  21  29
ATOM     23  C   UNL     1       2.116   3.332  18.732  0.00  0.00    +0.000 A 
ATOM     24  C   UNL     1       0.753   3.142  19.020  0.00  0.00    +0.000 A 
ATOM     25  C   UNL     1       0.334   2.836  20.313  0.00  0.00    +0.000 A 
ATOM     26  C   UNL     1       1.275   2.717  21.321  0.00  0.00    +0.000 A 
ATOM     27  F   UNL     1       0.871   2.434  22.565  0.00  0.00    +0.000 F 
ATOM     28  C   UNL     1       2.634   2.873  21.057  0.00  0.00    +0.000 A 
ATOM     29  C   UNL     1       3.080   3.163  19.753  0.00  0.00    +0.000 A 
BRANCH  23  31
ATOM     30  C   UNL     1       2.808   2.537  16.591  0.00  0.00    +0.000 C 
ATOM     31  O   UNL     1       2.540   3.632  17.465  0.00  0.00    +0.000 OA
ENDBRANCH  23  31
ENDBRANCH  21  29
ENDBRANCH  20  21
ENDBRANCH   1  20
TORSDOF 7
ENDMDL
MODEL 6
REMARK VINA RESULT:      -7.7      3.205      5.432
REMARK  Name = 
REMARK  9 active torsions:
REMARK  status: ('A' for Active; 'I' for Inactive)
REMARK    1  A    between atoms: C_1  and  O_2
REMARK    2  A    between atoms: O_2  and  C_3
REMARK    3  A    between atoms: C_9  and  C_10
REMARK    4  A    between atoms: C_10  and  C_12
REMARK    5  A    between atoms: C_12  and  N_13
REMARK    6  A    between atoms: C_17  and  C_18
REMARK    7  A    between atoms: C_17  and  C_19
REMARK    8  A    between atoms: C_22  and  O_23
REMARK    9  A    between atoms: O_23  and  C_24
REMARK                            x       y       z     vdW  Elec       q    Type
REMARK                         _______ _______ _______ _____ _____    ______ ____
ROOT
ATOM      1  N   UNL     1       1.947   8.248  18.873  0.00  0.00    +0.000 N 
ATOM      2  C   UNL     1       1.341   8.042  20.073  0.00  0.00    +0.000 C 
ATOM      3  O   UNL     1       1.258   6.993  20.689  0.00  0.00    +0.000 OA
ATOM      4  N   UNL     1       0.720   9.206  20.463  0.00  0.00    +0.000 N 
ATOM      5  C   UNL     1       0.809  10.247  19.460  0.00  0.00    +0.000 C 
ATOM      6  C   UNL     1       1.584  11.434  20.035  0.00  0.00    +0.000 C 
ATOM      7  C   UNL     1       1.699   9.518  18.420  0.00  0.00    +0.000 C 
ATOM      8  O   UNL     1       2.049   9.977  17.339  0.00  0.00    +0.000 OA
ATOM      9  H   UNL     1       0.112   9.225  21.270  0.00  0.00    +0.000 HD
ENDROOT
BRANCH   5  10
ATOM     10  C   UNL     1      -0.580  10.562  18.887  0.00  0.00    +0.000 A 
ATOM     11  C   UNL     1      -1.108   9.876  17.781  0.00  0.00    +0.000 A 
ATOM     12  C   UNL     1      -2.383  10.175  17.285  0.00  0.00    +0.000 A 
ATOM     13  C   UNL     1      -3.174  11.153  17.883  0.00  0.00    +0.000 A 
ATOM     14  C   UNL     1      -2.662  11.870  18.960  0.00  0.00    +0.000 A 
ATOM     15  C   UNL     1      -1.382  11.575  19.455  0.00  0.00    +0.000 A 
BRANCH  13  16
ATOM     16  O   UNL     1      -4.398  11.342  17.309  0.00  0.00    +0.000 OA
BRANCH  16  17
ATOM     17  C   UNL     1      -5.501  11.333  18.201  0.00  0.00    +0.000 C 
ATOM     18  F   UNL     1      -6.620  11.678  17.518  0.00  0.00    +0.000 F 
ATOM     19  F   UNL     1      -5.676  10.052  18.613  0.00  0.00    +0.000 F 
ENDBRANCH  16  17
ENDBRANCH  13  16
ENDBRANCH   5  10
BRANCH   1  20
ATOM     20  C   UNL     1       2.460   7.179  18.043  0.00  0.00    +0.000 C 
BRANCH  20  21
ATOM     21  C   UNL     1       3.273   6.117  18.777  0.00  0.00    +0.000 C 
ATOM     22  O   UNL     1       4.158   6.410  19.580  0.00  0.00    +0.000 OA
BRANCH  21  29
ATOM     23  C   UNL     1       3.915   3.755  17.912  0.00  0.00    +0.000 A 
ATOM     24  C   UNL     1       3.561   2.403  17.757  0.00  0.00    +0.000 A 
ATOM     25  C   UNL     1       2.293   1.952  18.116  0.00  0.00    +0.000 A 
ATOM     26  C   UNL     1       1.375   2.850  18.633  0.00  0.00    +0.000 A 
ATOM     27  F   UNL     1       0.153   2.419  18.968  0.00  0.00    +0.000 F 
ATOM     28  C   UNL     1       1.708   4.189  18.822  0.00  0.00    +0.000 A 
ATOM     29  C   UNL     1       2.992   4.660  18.485  0.00  0.00    +0.000 A 
BRANCH  23  31
ATOM     30  C   UNL     1       5.403   4.441  16.178  0.00  0.00    +0.000 C 
ATOM     31  O   UNL     1       5.158   4.209  17.563  0.00  0.00    +0.000 OA
ENDBRANCH  23  31
ENDBRANCH  21  29
ENDBRANCH  20  21
ENDBRANCH   1  20
TORSDOF 7
ENDMDL
MODEL 7
REMARK VINA RESULT:      -7.7      4.566     10.991
REMARK  Name = 
REMARK  9 active torsions:
REMARK  status: ('A' for Active; 'I' for Inactive)
REMARK    1  A    between atoms: C_1  and  O_2
REMARK    2  A    between atoms: O_2  and  C_3
REMARK    3  A    between atoms: C_9  and  C_10
REMARK    4  A    between atoms: C_10  and  C_12
REMARK    5  A    between atoms: C_12  and  N_13
REMARK    6  A    between atoms: C_17  and  C_18
REMARK    7  A    between atoms: C_17  and  C_19
REMARK    8  A    between atoms: C_22  and  O_23
REMARK    9  A    between atoms: O_23  and  C_24
REMARK                            x       y       z     vdW  Elec       q    Type
REMARK                         _______ _______ _______ _____ _____    ______ ____
ROOT
ATOM      1  N   UNL     1      -0.653  11.232  20.144  0.00  0.00    +0.000 N 
ATOM      2  C   UNL     1      -1.124  10.949  18.900  0.00  0.00    +0.000 C 
ATOM      3  O   UNL     1      -2.289  10.883  18.548  0.00  0.00    +0.000 OA
ATOM      4  N   UNL     1      -0.062  10.636  18.084  0.00  0.00    +0.000 N 
ATOM      5  C   UNL     1       1.199  10.603  18.797  0.00  0.00    +0.000 C 
ATOM      6  C   UNL     1       2.131  11.672  18.223  0.00  0.00    +0.000 C 
ATOM      7  C   UNL     1       0.706  11.061  20.196  0.00  0.00    +0.000 C 
ATOM      8  O   UNL     1       1.408  11.168  21.195  0.00  0.00    +0.000 OA
ATOM      9  H   UNL     1      -0.212  10.280  17.151  0.00  0.00    +0.000 HD
ENDROOT
BRANCH   5  10
ATOM     10  C   UNL     1       1.755   9.173  18.839  0.00  0.00    +0.000 A 
ATOM     11  C   UNL     1       2.482   8.618  17.773  0.00  0.00    +0.000 A 
ATOM     12  C   UNL     1       2.988   7.315  17.842  0.00  0.00    +0.000 A 
ATOM     13  C   UNL     1       2.799   6.532  18.978  0.00  0.00    +0.000 A 
ATOM     14  C   UNL     1       2.054   7.045  20.036  0.00  0.00    +0.000 A 
ATOM     15  C   UNL     1       1.542   8.349  19.966  0.00  0.00    +0.000 A 
BRANCH  13  16
ATOM     16  O   UNL     1       3.349   5.284  18.922  0.00  0.00    +0.000 OA
BRANCH  16  17
ATOM     17  C   UNL     1       3.222   4.613  17.680  0.00  0.00    +0.000 C 
ATOM     18  F   UNL     1       3.962   3.477  17.716  0.00  0.00    +0.000 F 
ATOM     19  F   UNL     1       1.926   4.228  17.560  0.00  0.00    +0.000 F 
ENDBRANCH  16  17
ENDBRANCH  13  16
ENDBRANCH   5  10
BRANCH   1  20
ATOM     20  C   UNL     1      -1.499  11.337  21.314  0.00  0.00    +0.000 C 
BRANCH  20  21
ATOM     21  C   UNL     1      -2.110  12.715  21.554  0.00  0.00    +0.000 C 
ATOM     22  O   UNL     1      -1.564  13.748  21.170  0.00  0.00    +0.000 OA
BRANCH  21  29
ATOM     23  C   UNL     1      -4.677  13.064  21.720  0.00  0.00    +0.000 A 
ATOM     24  C   UNL     1      -5.835  13.050  22.517  0.00  0.00    +0.000 A 
ATOM     25  C   UNL     1      -5.754  12.830  23.890  0.00  0.00    +0.000 A 
ATOM     26  C   UNL     1      -4.514  12.623  24.471  0.00  0.00    +0.000 A 
ATOM     27  F   UNL     1      -4.434  12.424  25.792  0.00  0.00    +0.000 F 
ATOM     28  C   UNL     1      -3.354  12.606  23.701  0.00  0.00    +0.000 A 
ATOM     29  C   UNL     1      -3.417  12.805  22.308  0.00  0.00    +0.000 A 
BRANCH  23  31
ATOM     30  C   UNL     1      -5.372  12.268  19.581  0.00  0.00    +0.000 C 
ATOM     31  O   UNL     1      -4.745  13.278  20.369  0.00  0.00    +0.000 OA
ENDBRANCH  23  31
ENDBRANCH  21  29
ENDBRANCH  20  21
ENDBRANCH   1  20
TORSDOF 7
ENDMDL
MODEL 8
REMARK VINA RESULT:      -7.6      8.017     13.357
REMARK  Name = 
REMARK  9 active torsions:
REMARK  status: ('A' for Active; 'I' for Inactive)
REMARK    1  A    between atoms: C_1  and  O_2
REMARK    2  A    between atoms: O_2  and  C_3
REMARK    3  A    between atoms: C_9  and  C_10
REMARK    4  A    between atoms: C_10  and  C_12
REMARK    5  A    between atoms: C_12  and  N_13
REMARK    6  A    between atoms: C_17  and  C_18
REMARK    7  A    between atoms: C_17  and  C_19
REMARK    8  A    between atoms: C_22  and  O_23
REMARK    9  A    between atoms: O_23  and  C_24
REMARK                            x       y       z     vdW  Elec       q    Type
REMARK                         _______ _______ _______ _____ _____    ______ ____
ROOT
ATOM      1  N   UNL     1      -7.545  12.321  20.975  0.00  0.00    +0.000 N 
ATOM      2  C   UNL     1      -7.493  10.988  20.711  0.00  0.00    +0.000 C 
ATOM      3  O   UNL     1      -7.867  10.076  21.430  0.00  0.00    +0.000 OA
ATOM      4  N   UNL     1      -6.839  10.796  19.516  0.00  0.00    +0.000 N 
ATOM      5  C   UNL     1      -6.326  12.030  18.957  0.00  0.00    +0.000 C 
ATOM      6  C   UNL     1      -6.998  12.290  17.608  0.00  0.00    +0.000 C 
ATOM      7  C   UNL     1      -6.888  13.030  20.003  0.00  0.00    +0.000 C 
ATOM      8  O   UNL     1      -6.701  14.241  19.998  0.00  0.00    +0.000 OA
ATOM      9  H   UNL     1      -6.591   9.868  19.203  0.00  0.00    +0.000 HD
ENDROOT
BRANCH   5  10
ATOM     10  C   UNL     1      -4.791  12.023  18.958  0.00  0.00    +0.000 A 
ATOM     11  C   UNL     1      -4.038  12.561  20.014  0.00  0.00    +0.000 A 
ATOM     12  C   UNL     1      -2.638  12.531  19.994  0.00  0.00    +0.000 A 
ATOM     13  C   UNL     1      -1.948  11.954  18.931  0.00  0.00    +0.000 A 
ATOM     14  C   UNL     1      -2.669  11.444  17.856  0.00  0.00    +0.000 A 
ATOM     15  C   UNL     1      -4.072  11.477  17.872  0.00  0.00    +0.000 A 
BRANCH  13  16
ATOM     16  O   UNL     1      -0.588  11.982  19.037  0.00  0.00    +0.000 OA
BRANCH  16  17
ATOM     17  C   UNL     1       0.036  10.728  19.262  0.00  0.00    +0.000 C 
ATOM     18  F   UNL     1      -0.817   9.932  19.954  0.00  0.00    +0.000 F 
ATOM     19  F   UNL     1       0.216  10.144  18.051  0.00  0.00    +0.000 F 
ENDBRANCH  16  17
ENDBRANCH  13  16
ENDBRANCH   5  10
BRANCH   1  20
ATOM     20  C   UNL     1      -7.916  12.867  22.263  0.00  0.00    +0.000 C 
BRANCH  20  21
ATOM     21  C   UNL     1      -6.927  12.599  23.394  0.00  0.00    +0.000 C 
ATOM     22  O   UNL     1      -6.971  11.571  24.069  0.00  0.00    +0.000 OA
BRANCH  21  29
ATOM     23  C   UNL     1      -4.496  13.387  23.847  0.00  0.00    +0.000 A 
ATOM     24  C   UNL     1      -3.606  14.455  24.060  0.00  0.00    +0.000 A 
ATOM     25  C   UNL     1      -4.076  15.760  24.179  0.00  0.00    +0.000 A 
ATOM     26  C   UNL     1      -5.436  16.004  24.084  0.00  0.00    +0.000 A 
ATOM     27  F   UNL     1      -5.888  17.257  24.210  0.00  0.00    +0.000 F 
ATOM     28  C   UNL     1      -6.336  14.968  23.846  0.00  0.00    +0.000 A 
ATOM     29  C   UNL     1      -5.879  13.644  23.702  0.00  0.00    +0.000 A 
BRANCH  23  31
ATOM     30  C   UNL     1      -2.659  11.917  23.446  0.00  0.00    +0.000 C 
ATOM     31  O   UNL     1      -4.046  12.099  23.727  0.00  0.00    +0.000 OA
ENDBRANCH  23  31
ENDBRANCH  21  29
ENDBRANCH  20  21
ENDBRANCH   1  20
TORSDOF 7
ENDMDL
MODEL 9
REMARK VINA RESULT:      -7.6      2.465      3.187
REMARK  Name = 
REMARK  9 active torsions:
REMARK  status: ('A' for Active; 'I' for Inactive)
REMARK    1  A    between atoms: C_1  and  O_2
REMARK    2  A    between atoms: O_2  and  C_3
REMARK    3  A    between atoms: C_9  and  C_10
REMARK    4  A    between atoms: C_10  and  C_12
REMARK    5  A    between atoms: C_12  and  N_13
REMARK    6  A    between atoms: C_17  and  C_18
REMARK    7  A    between atoms: C_17  and  C_19
REMARK    8  A    between atoms: C_22  and  O_23
REMARK    9  A    between atoms: O_23  and  C_24
REMARK                            x       y       z     vdW  Elec       q    Type
REMARK                         _______ _______ _______ _____ _____    ______ ____
ROOT
ATOM      1  N   UNL     1       3.673   3.258  18.478  0.00  0.00    +0.000 N 
ATOM      2  C   UNL     1       2.450   3.114  17.900  0.00  0.00    +0.000 C 
ATOM      3  O   UNL     1       2.193   2.574  16.837  0.00  0.00    +0.000 OA
ATOM      4  N   UNL     1       1.518   3.778  18.662  0.00  0.00    +0.000 N 
ATOM      5  C   UNL     1       2.113   4.499  19.769  0.00  0.00    +0.000 C 
ATOM      6  C   UNL     1       1.579   3.931  21.085  0.00  0.00    +0.000 C 
ATOM      7  C   UNL     1       3.589   4.056  19.589  0.00  0.00    +0.000 C 
ATOM      8  O   UNL     1       4.531   4.429  20.279  0.00  0.00    +0.000 OA
ATOM      9  H   UNL     1       0.568   3.892  18.338  0.00  0.00    +0.000 HD
ENDROOT
BRANCH   5  10
ATOM     10  C   UNL     1       1.954   6.013  19.572  0.00  0.00    +0.000 A 
ATOM     11  C   UNL     1       1.544   6.866  20.609  0.00  0.00    +0.000 A 
ATOM     12  C   UNL     1       1.418   8.245  20.406  0.00  0.00    +0.000 A 
ATOM     13  C   UNL     1       1.711   8.817  19.170  0.00  0.00    +0.000 A 
ATOM     14  C   UNL     1       2.087   7.991  18.116  0.00  0.00    +0.000 A 
ATOM     15  C   UNL     1       2.209   6.608  18.317  0.00  0.00    +0.000 A 
BRANCH  13  16
ATOM     16  O   UNL     1       1.556  10.172  19.106  0.00  0.00    +0.000 OA
BRANCH  16  17
ATOM     17  C   UNL     1       0.272  10.624  18.710  0.00  0.00    +0.000 C 
ATOM     18  F   UNL     1      -0.189   9.824  17.718  0.00  0.00    +0.000 F 
ATOM     19  F   UNL     1      -0.560  10.451  19.768  0.00  0.00    +0.000 F 
ENDBRANCH  16  17
ENDBRANCH  13  16
ENDBRANCH   5  10
BRANCH   1  20
ATOM     20  C   UNL     1       4.915   2.924  17.814  0.00  0.00    +0.000 C 
BRANCH  20  21
ATOM     21  C   UNL     1       5.428   3.969  16.827  0.00  0.00    +0.000 C 
ATOM     22  O   UNL     1       5.125   3.945  15.635  0.00  0.00    +0.000 OA
BRANCH  21  29
ATOM     23  C   UNL     1       6.564   6.299  16.706  0.00  0.00    +0.000 A 
ATOM     24  C   UNL     1       7.397   7.255  17.314  0.00  0.00    +0.000 A 
ATOM     25  C   UNL     1       8.060   6.968  18.505  0.00  0.00    +0.000 A 
ATOM     26  C   UNL     1       7.891   5.726  19.093  0.00  0.00    +0.000 A 
ATOM     27  F   UNL     1       8.537   5.447  20.232  0.00  0.00    +0.000 F 
ATOM     28  C   UNL     1       7.051   4.771  18.526  0.00  0.00    +0.000 A 
ATOM     29  C   UNL     1       6.356   5.049  17.334  0.00  0.00    +0.000 A 
BRANCH  23  31
ATOM     30  C   UNL     1       4.661   7.258  15.633  0.00  0.00    +0.000 C 
ATOM     31  O   UNL     1       5.906   6.570  15.536  0.00  0.00    +0.000 OA
ENDBRANCH  23  31
ENDBRANCH  21  29
ENDBRANCH  20  21
ENDBRANCH   1  20
TORSDOF 7
ENDMDL
