MODEL 1
REMARK VINA RESULT:      -8.7      0.000      0.000
REMARK  Name = 
REMARK  6 active torsions:
REMARK  status: ('A' for Active; 'I' for Inactive)
REMARK    1  A    between atoms: C_1  and  C_2
REMARK    2  A    between atoms: C_6  and  C_7
REMARK    3  A    between atoms: C_9  and  C_10
REMARK    4  A    between atoms: N_11  and  S_12
REMARK    5  A    between atoms: S_12  and  O_15
REMARK    6  A    between atoms: O_15  and  C_16
REMARK                            x       y       z     vdW  Elec       q    Type
REMARK                         _______ _______ _______ _____ _____    ______ ____
ROOT
ATOM      1  C   UNL     1       4.319   4.647  18.656  0.00  0.00    +0.000 A 
ATOM      2  C   UNL     1       5.506   4.692  19.425  0.00  0.00    +0.000 A 
ATOM      3  C   UNL     1       6.422   5.417  18.690  0.00  0.00    +0.000 A 
ATOM      4  C   UNL     1       7.833   5.742  19.010  0.00  0.00    +0.000 C 
ATOM      5  N   UNL     1       5.767   5.749  17.514  0.00  0.00    +0.000 N 
ATOM      6  N   UNL     1       4.470   5.322  17.508  0.00  0.00    +0.000 NA
ENDROOT
BRANCH   1  12
ATOM      7  C   UNL     1       1.359   2.544  22.097  0.00  0.00    +0.000 C 
ATOM      8  C   UNL     1       1.604   2.957  20.676  0.00  0.00    +0.000 A 
ATOM      9  C   UNL     1       0.656   2.712  19.679  0.00  0.00    +0.000 A 
ATOM     10  C   UNL     1       0.895   3.106  18.361  0.00  0.00    +0.000 A 
ATOM     11  C   UNL     1       2.090   3.748  18.031  0.00  0.00    +0.000 A 
ATOM     12  C   UNL     1       3.062   3.991  19.011  0.00  0.00    +0.000 A 
ATOM     13  C   UNL     1       2.807   3.595  20.333  0.00  0.00    +0.000 A 
ENDBRANCH   1  12
BRANCH   5  14
ATOM     14  S   UNL     1       6.500   6.697  16.224  0.00  0.00    +0.000 S 
ATOM     15  O   UNL     1       5.389   7.029  15.340  0.00  0.00    +0.000 OA
ATOM     16  O   UNL     1       7.234   7.754  16.899  0.00  0.00    +0.000 OA
BRANCH  14  17
ATOM     17  O   UNL     1       7.553   5.729  15.427  0.00  0.00    +0.000 OA
BRANCH  17  18
ATOM     18  C   UNL     1       7.138   4.990  14.346  0.00  0.00    +0.000 A 
ATOM     19  C   UNL     1       7.765   5.249  13.126  0.00  0.00    +0.000 A 
ATOM     20  C   UNL     1       7.381   4.554  11.973  0.00  0.00    +0.000 A 
ATOM     21  C   UNL     1       6.384   3.583  12.040  0.00  0.00    +0.000 A 
ATOM     22  C   UNL     1       5.778   3.300  13.260  0.00  0.00    +0.000 A 
ATOM     23  C   UNL     1       6.157   3.998  14.410  0.00  0.00    +0.000 A 
ENDBRANCH  17  18
ENDBRANCH  14  17
ENDBRANCH   5  14
TORSDOF 4
ENDMDL
MODEL 2
REMARK VINA RESULT:      -8.7      2.238      7.072
REMARK  Name = 
REMARK  6 active torsions:
REMARK  status: ('A' for Active; 'I' for Inactive)
REMARK    1  A    between atoms: C_1  and  C_2
REMARK    2  A    between atoms: C_6  and  C_7
REMARK    3  A    between atoms: C_9  and  C_10
REMARK    4  A    between atoms: N_11  and  S_12
REMARK    5  A    between atoms: S_12  and  O_15
REMARK    6  A    between atoms: O_15  and  C_16
REMARK                            x       y       z     vdW  Elec       q    Type
REMARK                         _______ _______ _______ _____ _____    ______ ____
ROOT
ATOM      1  C   UNL     1       5.797   5.186  15.435  0.00  0.00    +0.000 A 
ATOM      2  C   UNL     1       5.052   6.357  15.711  0.00  0.00    +0.000 A 
ATOM      3  C   UNL     1       4.819   6.362  17.071  0.00  0.00    +0.000 A 
ATOM      4  C   UNL     1       4.061   7.339  17.889  0.00  0.00    +0.000 C 
ATOM      5  N   UNL     1       5.400   5.195  17.547  0.00  0.00    +0.000 N 
ATOM      6  N   UNL     1       6.038   4.499  16.560  0.00  0.00    +0.000 NA
ENDROOT
BRANCH   1  12
ATOM      7  C   UNL     1       5.395   2.152  11.479  0.00  0.00    +0.000 C 
ATOM      8  C   UNL     1       6.107   3.262  12.194  0.00  0.00    +0.000 A 
ATOM      9  C   UNL     1       7.241   3.865  11.643  0.00  0.00    +0.000 A 
ATOM     10  C   UNL     1       7.891   4.900  12.317  0.00  0.00    +0.000 A 
ATOM     11  C   UNL     1       7.410   5.338  13.553  0.00  0.00    +0.000 A 
ATOM     12  C   UNL     1       6.285   4.737  14.132  0.00  0.00    +0.000 A 
ATOM     13  C   UNL     1       5.637   3.701  13.442  0.00  0.00    +0.000 A 
ENDBRANCH   1  12
BRANCH   5  14
ATOM     14  S   UNL     1       5.397   4.725  19.243  0.00  0.00    +0.000 S 
ATOM     15  O   UNL     1       5.431   3.268  19.217  0.00  0.00    +0.000 OA
ATOM     16  O   UNL     1       6.491   5.469  19.846  0.00  0.00    +0.000 OA
BRANCH  14  17
ATOM     17  O   UNL     1       3.979   5.221  19.897  0.00  0.00    +0.000 OA
BRANCH  17  18
ATOM     18  C   UNL     1       2.857   4.432  19.805  0.00  0.00    +0.000 A 
ATOM     19  C   UNL     1       2.366   3.894  20.996  0.00  0.00    +0.000 A 
ATOM     20  C   UNL     1       1.240   3.061  20.982  0.00  0.00    +0.000 A 
ATOM     21  C   UNL     1       0.590   2.783  19.781  0.00  0.00    +0.000 A 
ATOM     22  C   UNL     1       1.059   3.342  18.596  0.00  0.00    +0.000 A 
ATOM     23  C   UNL     1       2.186   4.168  18.609  0.00  0.00    +0.000 A 
ENDBRANCH  17  18
ENDBRANCH  14  17
ENDBRANCH   5  14
TORSDOF 4
ENDMDL
MODEL 3
REMARK VINA RESULT:      -8.6      0.055      1.006
REMARK  Name = 
REMARK  6 active torsions:
REMARK  status: ('A' for Active; 'I' for Inactive)
REMARK    1  A    between atoms: C_1  and  C_2
REMARK    2  A    between atoms: C_6  and  C_7
REMARK    3  A    between atoms: C_9  and  C_10
REMARK    4  A    between atoms: N_11  and  S_12
REMARK    5  A    between atoms: S_12  and  O_15
REMARK    6  A    between atoms: O_15  and  C_16
REMARK                            x       y       z     vdW  Elec       q    Type
REMARK                         _______ _______ _______ _____ _____    ______ ____
ROOT
ATOM      1  C   UNL     1       4.316   4.651  18.684  0.00  0.00    +0.000 A 
ATOM      2  C   UNL     1       5.484   4.736  19.479  0.00  0.00    +0.000 A 
ATOM      3  C   UNL     1       6.410   5.445  18.740  0.00  0.00    +0.000 A 
ATOM      4  C   UNL     1       7.809   5.797  19.080  0.00  0.00    +0.000 C 
ATOM      5  N   UNL     1       5.779   5.729  17.537  0.00  0.00    +0.000 N 
ATOM      6  N   UNL     1       4.487   5.286  17.517  0.00  0.00    +0.000 NA
ENDROOT
BRANCH   1  12
ATOM      7  C   UNL     1       1.351   2.523  22.106  0.00  0.00    +0.000 C 
ATOM      8  C   UNL     1       1.598   2.948  20.688  0.00  0.00    +0.000 A 
ATOM      9  C   UNL     1       0.650   2.711  19.688  0.00  0.00    +0.000 A 
ATOM     10  C   UNL     1       0.891   3.116  18.374  0.00  0.00    +0.000 A 
ATOM     11  C   UNL     1       2.087   3.760  18.050  0.00  0.00    +0.000 A 
ATOM     12  C   UNL     1       3.058   3.993  19.033  0.00  0.00    +0.000 A 
ATOM     13  C   UNL     1       2.801   3.587  20.352  0.00  0.00    +0.000 A 
ENDBRANCH   1  12
BRANCH   5  14
ATOM     14  S   UNL     1       6.531   6.639  16.232  0.00  0.00    +0.000 S 
ATOM     15  O   UNL     1       5.432   6.958  15.330  0.00  0.00    +0.000 OA
ATOM     16  O   UNL     1       7.268   7.706  16.889  0.00  0.00    +0.000 OA
BRANCH  14  17
ATOM     17  O   UNL     1       7.584   5.643  15.469  0.00  0.00    +0.000 OA
BRANCH  17  18
ATOM     18  C   UNL     1       7.217   4.997  14.313  0.00  0.00    +0.000 A 
ATOM     19  C   UNL     1       6.198   4.049  14.418  0.00  0.00    +0.000 A 
ATOM     20  C   UNL     1       5.784   3.330  13.289  0.00  0.00    +0.000 A 
ATOM     21  C   UNL     1       6.372   3.573  12.050  0.00  0.00    +0.000 A 
ATOM     22  C   UNL     1       7.368   4.539  11.936  0.00  0.00    +0.000 A 
ATOM     23  C   UNL     1       7.786   5.251  13.063  0.00  0.00    +0.000 A 
ENDBRANCH  17  18
ENDBRANCH  14  17
ENDBRANCH   5  14
TORSDOF 4
ENDMDL
MODEL 4
REMARK VINA RESULT:      -8.6      2.245      7.042
REMARK  Name = 
REMARK  6 active torsions:
REMARK  status: ('A' for Active; 'I' for Inactive)
REMARK    1  A    between atoms: C_1  and  C_2
REMARK    2  A    between atoms: C_6  and  C_7
REMARK    3  A    between atoms: C_9  and  C_10
REMARK    4  A    between atoms: N_11  and  S_12
REMARK    5  A    between atoms: S_12  and  O_15
REMARK    6  A    between atoms: O_15  and  C_16
REMARK                            x       y       z     vdW  Elec       q    Type
REMARK                         _______ _______ _______ _____ _____    ______ ____
ROOT
ATOM      1  C   UNL     1       5.791   5.194  15.437  0.00  0.00    +0.000 A 
ATOM      2  C   UNL     1       5.056   6.371  15.714  0.00  0.00    +0.000 A 
ATOM      3  C   UNL     1       4.819   6.375  17.074  0.00  0.00    +0.000 A 
ATOM      4  C   UNL     1       4.068   7.357  17.891  0.00  0.00    +0.000 C 
ATOM      5  N   UNL     1       5.389   5.202  17.548  0.00  0.00    +0.000 N 
ATOM      6  N   UNL     1       6.023   4.502  16.562  0.00  0.00    +0.000 NA
ENDROOT
BRANCH   1  12
ATOM      7  C   UNL     1       5.388   2.154  11.485  0.00  0.00    +0.000 C 
ATOM      8  C   UNL     1       6.099   3.265  12.199  0.00  0.00    +0.000 A 
ATOM      9  C   UNL     1       7.233   3.869  11.646  0.00  0.00    +0.000 A 
ATOM     10  C   UNL     1       7.882   4.905  12.318  0.00  0.00    +0.000 A 
ATOM     11  C   UNL     1       7.403   5.344  13.554  0.00  0.00    +0.000 A 
ATOM     12  C   UNL     1       6.278   4.743  14.135  0.00  0.00    +0.000 A 
ATOM     13  C   UNL     1       5.630   3.706  13.446  0.00  0.00    +0.000 A 
ENDBRANCH   1  12
BRANCH   5  14
ATOM     14  S   UNL     1       5.377   4.729  19.243  0.00  0.00    +0.000 S 
ATOM     15  O   UNL     1       5.382   3.271  19.214  0.00  0.00    +0.000 OA
ATOM     16  O   UNL     1       6.485   5.450  19.848  0.00  0.00    +0.000 OA
BRANCH  14  17
ATOM     17  O   UNL     1       3.970   5.250  19.899  0.00  0.00    +0.000 OA
BRANCH  17  18
ATOM     18  C   UNL     1       2.865   4.432  19.917  0.00  0.00    +0.000 A 
ATOM     19  C   UNL     1       2.221   4.215  18.697  0.00  0.00    +0.000 A 
ATOM     20  C   UNL     1       1.075   3.413  18.637  0.00  0.00    +0.000 A 
ATOM     21  C   UNL     1       0.583   2.808  19.791  0.00  0.00    +0.000 A 
ATOM     22  C   UNL     1       1.239   2.997  21.003  0.00  0.00    +0.000 A 
ATOM     23  C   UNL     1       2.379   3.802  21.065  0.00  0.00    +0.000 A 
ENDBRANCH  17  18
ENDBRANCH  14  17
ENDBRANCH   5  14
TORSDOF 4
ENDMDL
MODEL 5
REMARK VINA RESULT:      -8.3      3.165      6.937
REMARK  Name = 
REMARK  6 active torsions:
REMARK  status: ('A' for Active; 'I' for Inactive)
REMARK    1  A    between atoms: C_1  and  C_2
REMARK    2  A    between atoms: C_6  and  C_7
REMARK    3  A    between atoms: C_9  and  C_10
REMARK    4  A    between atoms: N_11  and  S_12
REMARK    5  A    between atoms: S_12  and  O_15
REMARK    6  A    between atoms: O_15  and  C_16
REMARK                            x       y       z     vdW  Elec       q    Type
REMARK                         _______ _______ _______ _____ _____    ______ ____
ROOT
ATOM      1  C   UNL     1       6.131   4.519  15.912  0.00  0.00    +0.000 A 
ATOM      2  C   UNL     1       6.971   5.032  16.929  0.00  0.00    +0.000 A 
ATOM      3  C   UNL     1       6.262   4.939  18.109  0.00  0.00    +0.000 A 
ATOM      4  C   UNL     1       6.655   5.361  19.475  0.00  0.00    +0.000 C 
ATOM      5  N   UNL     1       5.030   4.408  17.754  0.00  0.00    +0.000 N 
ATOM      6  N   UNL     1       4.962   4.108  16.424  0.00  0.00    +0.000 NA
ENDROOT
BRANCH   1  12
ATOM      7  C   UNL     1       5.177   2.515  11.430  0.00  0.00    +0.000 C 
ATOM      8  C   UNL     1       5.987   3.437  12.291  0.00  0.00    +0.000 A 
ATOM      9  C   UNL     1       7.043   4.182  11.758  0.00  0.00    +0.000 A 
ATOM     10  C   UNL     1       7.786   5.040  12.570  0.00  0.00    +0.000 A 
ATOM     11  C   UNL     1       7.479   5.156  13.927  0.00  0.00    +0.000 A 
ATOM     12  C   UNL     1       6.436   4.408  14.487  0.00  0.00    +0.000 A 
ATOM     13  C   UNL     1       5.692   3.553  13.659  0.00  0.00    +0.000 A 
ENDBRANCH   1  12
BRANCH   5  14
ATOM     14  S   UNL     1       3.744   4.073  18.909  0.00  0.00    +0.000 S 
ATOM     15  O   UNL     1       2.551   3.904  18.087  0.00  0.00    +0.000 OA
ATOM     16  O   UNL     1       4.235   2.968  19.715  0.00  0.00    +0.000 OA
BRANCH  14  17
ATOM     17  O   UNL     1       3.564   5.396  19.857  0.00  0.00    +0.000 OA
BRANCH  17  18
ATOM     18  C   UNL     1       2.991   6.540  19.353  0.00  0.00    +0.000 A 
ATOM     19  C   UNL     1       2.107   7.223  20.190  0.00  0.00    +0.000 A 
ATOM     20  C   UNL     1       1.465   8.384  19.741  0.00  0.00    +0.000 A 
ATOM     21  C   UNL     1       1.722   8.876  18.463  0.00  0.00    +0.000 A 
ATOM     22  C   UNL     1       2.626   8.215  17.637  0.00  0.00    +0.000 A 
ATOM     23  C   UNL     1       3.262   7.054  18.083  0.00  0.00    +0.000 A 
ENDBRANCH  17  18
ENDBRANCH  14  17
ENDBRANCH   5  14
TORSDOF 4
ENDMDL
MODEL 6
REMARK VINA RESULT:      -8.1      2.283      6.787
REMARK  Name = 
REMARK  6 active torsions:
REMARK  status: ('A' for Active; 'I' for Inactive)
REMARK    1  A    between atoms: C_1  and  C_2
REMARK    2  A    between atoms: C_6  and  C_7
REMARK    3  A    between atoms: C_9  and  C_10
REMARK    4  A    between atoms: N_11  and  S_12
REMARK    5  A    between atoms: S_12  and  O_15
REMARK    6  A    between atoms: O_15  and  C_16
REMARK                            x       y       z     vdW  Elec       q    Type
REMARK                         _______ _______ _______ _____ _____    ______ ____
ROOT
ATOM      1  C   UNL     1       5.766   5.286  15.492  0.00  0.00    +0.000 A 
ATOM      2  C   UNL     1       4.925   6.402  15.721  0.00  0.00    +0.000 A 
ATOM      3  C   UNL     1       4.707   6.456  17.083  0.00  0.00    +0.000 A 
ATOM      4  C   UNL     1       3.876   7.405  17.862  0.00  0.00    +0.000 C 
ATOM      5  N   UNL     1       5.393   5.370  17.607  0.00  0.00    +0.000 N 
ATOM      6  N   UNL     1       6.077   4.681  16.647  0.00  0.00    +0.000 NA
ENDROOT
BRANCH   1  12
ATOM      7  C   UNL     1       5.382   2.242  11.542  0.00  0.00    +0.000 C 
ATOM      8  C   UNL     1       6.107   3.333  12.272  0.00  0.00    +0.000 A 
ATOM      9  C   UNL     1       7.274   3.898  11.751  0.00  0.00    +0.000 A 
ATOM     10  C   UNL     1       7.937   4.917  12.438  0.00  0.00    +0.000 A 
ATOM     11  C   UNL     1       7.435   5.376  13.657  0.00  0.00    +0.000 A 
ATOM     12  C   UNL     1       6.276   4.814  14.207  0.00  0.00    +0.000 A 
ATOM     13  C   UNL     1       5.616   3.795  13.503  0.00  0.00    +0.000 A 
ENDBRANCH   1  12
BRANCH   5  14
ATOM     14  S   UNL     1       5.449   4.989  19.325  0.00  0.00    +0.000 S 
ATOM     15  O   UNL     1       6.842   5.201  19.700  0.00  0.00    +0.000 OA
ATOM     16  O   UNL     1       4.401   5.796  19.928  0.00  0.00    +0.000 OA
BRANCH  14  17
ATOM     17  O   UNL     1       5.078   3.403  19.499  0.00  0.00    +0.000 OA
BRANCH  17  18
ATOM     18  C   UNL     1       3.773   2.979  19.404  0.00  0.00    +0.000 A 
ATOM     19  C   UNL     1       3.307   2.655  18.129  0.00  0.00    +0.000 A 
ATOM     20  C   UNL     1       1.983   2.238  17.947  0.00  0.00    +0.000 A 
ATOM     21  C   UNL     1       1.128   2.123  19.041  0.00  0.00    +0.000 A 
ATOM     22  C   UNL     1       1.598   2.416  20.318  0.00  0.00    +0.000 A 
ATOM     23  C   UNL     1       2.918   2.838  20.499  0.00  0.00    +0.000 A 
ENDBRANCH  17  18
ENDBRANCH  14  17
ENDBRANCH   5  14
TORSDOF 4
ENDMDL
MODEL 7
REMARK VINA RESULT:      -8.1      3.164      6.870
REMARK  Name = 
REMARK  6 active torsions:
REMARK  status: ('A' for Active; 'I' for Inactive)
REMARK    1  A    between atoms: C_1  and  C_2
REMARK    2  A    between atoms: C_6  and  C_7
REMARK    3  A    between atoms: C_9  and  C_10
REMARK    4  A    between atoms: N_11  and  S_12
REMARK    5  A    between atoms: S_12  and  O_15
REMARK    6  A    between atoms: O_15  and  C_16
REMARK                            x       y       z     vdW  Elec       q    Type
REMARK                         _______ _______ _______ _____ _____    ______ ____
ROOT
ATOM      1  C   UNL     1       6.171   4.545  15.908  0.00  0.00    +0.000 A 
ATOM      2  C   UNL     1       7.029   5.025  16.926  0.00  0.00    +0.000 A 
ATOM      3  C   UNL     1       6.316   4.954  18.105  0.00  0.00    +0.000 A 
ATOM      4  C   UNL     1       6.723   5.358  19.473  0.00  0.00    +0.000 C 
ATOM      5  N   UNL     1       5.066   4.467  17.749  0.00  0.00    +0.000 N 
ATOM      6  N   UNL     1       4.988   4.173  16.418  0.00  0.00    +0.000 NA
ENDROOT
BRANCH   1  12
ATOM      7  C   UNL     1       5.285   2.432  11.461  0.00  0.00    +0.000 C 
ATOM      8  C   UNL     1       6.057   3.404  12.304  0.00  0.00    +0.000 A 
ATOM      9  C   UNL     1       7.074   4.189  11.753  0.00  0.00    +0.000 A 
ATOM     10  C   UNL     1       7.781   5.092  12.547  0.00  0.00    +0.000 A 
ATOM     11  C   UNL     1       7.477   5.214  13.905  0.00  0.00    +0.000 A 
ATOM     12  C   UNL     1       6.473   4.426  14.482  0.00  0.00    +0.000 A 
ATOM     13  C   UNL     1       5.765   3.526  13.671  0.00  0.00    +0.000 A 
ENDBRANCH   1  12
BRANCH   5  14
ATOM     14  S   UNL     1       3.769   4.173  18.903  0.00  0.00    +0.000 S 
ATOM     15  O   UNL     1       2.573   4.041  18.079  0.00  0.00    +0.000 OA
ATOM     16  O   UNL     1       4.225   3.054  19.711  0.00  0.00    +0.000 OA
BRANCH  14  17
ATOM     17  O   UNL     1       3.630   5.503  19.849  0.00  0.00    +0.000 OA
BRANCH  17  18
ATOM     18  C   UNL     1       2.974   6.619  19.388  0.00  0.00    +0.000 A 
ATOM     19  C   UNL     1       3.276   7.037  18.091  0.00  0.00    +0.000 A 
ATOM     20  C   UNL     1       2.666   8.180  17.558  0.00  0.00    +0.000 A 
ATOM     21  C   UNL     1       1.737   8.893  18.311  0.00  0.00    +0.000 A 
ATOM     22  C   UNL     1       1.411   8.462  19.593  0.00  0.00    +0.000 A 
ATOM     23  C   UNL     1       2.023   7.326  20.128  0.00  0.00    +0.000 A 
ENDBRANCH  17  18
ENDBRANCH  14  17
ENDBRANCH   5  14
TORSDOF 4
ENDMDL
MODEL 8
REMARK VINA RESULT:      -8.1      4.116      5.463
REMARK  Name = 
REMARK  6 active torsions:
REMARK  status: ('A' for Active; 'I' for Inactive)
REMARK    1  A    between atoms: C_1  and  C_2
REMARK    2  A    between atoms: C_6  and  C_7
REMARK    3  A    between atoms: C_9  and  C_10
REMARK    4  A    between atoms: N_11  and  S_12
REMARK    5  A    between atoms: S_12  and  O_15
REMARK    6  A    between atoms: O_15  and  C_16
REMARK                            x       y       z     vdW  Elec       q    Type
REMARK                         _______ _______ _______ _____ _____    ______ ____
ROOT
ATOM      1  C   UNL     1       2.233   6.354  19.750  0.00  0.00    +0.000 A 
ATOM      2  C   UNL     1       1.784   5.547  20.822  0.00  0.00    +0.000 A 
ATOM      3  C   UNL     1       2.379   4.313  20.660  0.00  0.00    +0.000 A 
ATOM      4  C   UNL     1       2.232   3.087  21.481  0.00  0.00    +0.000 C 
ATOM      5  N   UNL     1       3.129   4.417  19.498  0.00  0.00    +0.000 N 
ATOM      6  N   UNL     1       3.080   5.673  18.964  0.00  0.00    +0.000 NA
ENDROOT
BRANCH   1  12
ATOM      7  C   UNL     1       0.244  10.678  21.288  0.00  0.00    +0.000 C 
ATOM      8  C   UNL     1       0.908   9.866  20.216  0.00  0.00    +0.000 A 
ATOM      9  C   UNL     1       1.182  10.413  18.959  0.00  0.00    +0.000 A 
ATOM     10  C   UNL     1       1.805   9.647  17.973  0.00  0.00    +0.000 A 
ATOM     11  C   UNL     1       2.157   8.322  18.238  0.00  0.00    +0.000 A 
ATOM     12  C   UNL     1       1.879   7.747  19.484  0.00  0.00    +0.000 A 
ATOM     13  C   UNL     1       1.257   8.530  20.470  0.00  0.00    +0.000 A 
ENDBRANCH   1  12
BRANCH   5  14
ATOM     14  S   UNL     1       4.106   3.106  18.847  0.00  0.00    +0.000 S 
ATOM     15  O   UNL     1       5.081   2.824  19.894  0.00  0.00    +0.000 OA
ATOM     16  O   UNL     1       3.153   2.085  18.444  0.00  0.00    +0.000 OA
BRANCH  14  17
ATOM     17  O   UNL     1       4.885   3.672  17.522  0.00  0.00    +0.000 OA
BRANCH  17  18
ATOM     18  C   UNL     1       5.734   4.749  17.621  0.00  0.00    +0.000 A 
ATOM     19  C   UNL     1       5.415   5.875  16.860  0.00  0.00    +0.000 A 
ATOM     20  C   UNL     1       6.243   7.003  16.888  0.00  0.00    +0.000 A 
ATOM     21  C   UNL     1       7.379   7.018  17.694  0.00  0.00    +0.000 A 
ATOM     22  C   UNL     1       7.684   5.909  18.478  0.00  0.00    +0.000 A 
ATOM     23  C   UNL     1       6.861   4.780  18.445  0.00  0.00    +0.000 A 
ENDBRANCH  17  18
ENDBRANCH  14  17
ENDBRANCH   5  14
TORSDOF 4
ENDMDL
MODEL 9
REMARK VINA RESULT:      -8.0      2.227      7.103
REMARK  Name = 
REMARK  6 active torsions:
REMARK  status: ('A' for Active; 'I' for Inactive)
REMARK    1  A    between atoms: C_1  and  C_2
REMARK    2  A    between atoms: C_6  and  C_7
REMARK    3  A    between atoms: C_9  and  C_10
REMARK    4  A    between atoms: N_11  and  S_12
REMARK    5  A    between atoms: S_12  and  O_15
REMARK    6  A    between atoms: O_15  and  C_16
REMARK                            x       y       z     vdW  Elec       q    Type
REMARK                         _______ _______ _______ _____ _____    ______ ____
ROOT
ATOM      1  C   UNL     1       6.110   4.414  14.763  0.00  0.00    +0.000 A 
ATOM      2  C   UNL     1       6.905   5.529  15.121  0.00  0.00    +0.000 A 
ATOM      3  C   UNL     1       6.707   5.734  16.472  0.00  0.00    +0.000 A 
ATOM      4  C   UNL     1       7.271   6.786  17.352  0.00  0.00    +0.000 C 
ATOM      5  N   UNL     1       5.793   4.765  16.859  0.00  0.00    +0.000 N 
ATOM      6  N   UNL     1       5.461   3.929  15.832  0.00  0.00    +0.000 NA
ENDROOT
BRANCH   1  12
ATOM      7  C   UNL     1       3.268   3.139  10.850  0.00  0.00    +0.000 C 
ATOM      8  C   UNL     1       4.610   3.177  11.520  0.00  0.00    +0.000 A 
ATOM      9  C   UNL     1       5.740   2.630  10.905  0.00  0.00    +0.000 A 
ATOM     10  C   UNL     1       6.983   2.676  11.538  0.00  0.00    +0.000 A 
ATOM     11  C   UNL     1       7.103   3.270  12.796  0.00  0.00    +0.000 A 
ATOM     12  C   UNL     1       5.982   3.810  13.438  0.00  0.00    +0.000 A 
ATOM     13  C   UNL     1       4.739   3.763  12.789  0.00  0.00    +0.000 A 
ENDBRANCH   1  12
BRANCH   5  14
ATOM     14  S   UNL     1       5.208   4.581  18.510  0.00  0.00    +0.000 S 
ATOM     15  O   UNL     1       6.419   4.449  19.312  0.00  0.00    +0.000 OA
ATOM     16  O   UNL     1       4.311   5.705  18.723  0.00  0.00    +0.000 OA
BRANCH  14  17
ATOM     17  O   UNL     1       4.356   3.185  18.586  0.00  0.00    +0.000 OA
BRANCH  17  18
ATOM     18  C   UNL     1       3.230   3.099  19.371  0.00  0.00    +0.000 A 
ATOM     19  C   UNL     1       3.429   2.911  20.740  0.00  0.00    +0.000 A 
ATOM     20  C   UNL     1       2.332   2.790  21.602  0.00  0.00    +0.000 A 
ATOM     21  C   UNL     1       1.035   2.880  21.102  0.00  0.00    +0.000 A 
ATOM     22  C   UNL     1       0.833   3.098  19.742  0.00  0.00    +0.000 A 
ATOM     23  C   UNL     1       1.927   3.212  18.881  0.00  0.00    +0.000 A 
ENDBRANCH  17  18
ENDBRANCH  14  17
ENDBRANCH   5  14
TORSDOF 4
ENDMDL
