MODEL 1
REMARK VINA RESULT:      -8.3      0.000      0.000
REMARK  Name = 
REMARK  8 active torsions:
REMARK  status: ('A' for Active; 'I' for Inactive)
REMARK    1  A    between atoms: C_1  and  C_2
REMARK    2  A    between atoms: C_2  and  C_3
REMARK    3  A    between atoms: C_2  and  O_4
REMARK    4  A    between atoms: O_4  and  C_5
REMARK    5  A    between atoms: C_10  and  N_11
REMARK    6  A    between atoms: N_14  and  C_15
REMARK    7  A    between atoms: C_15  and  C_16
REMARK    8  A    between atoms: C_20  and  C_21
REMARK                            x       y       z     vdW  Elec       q    Type
REMARK                         _______ _______ _______ _____ _____    ______ ____
ROOT
ATOM      1  N   UNL     1       0.796  10.027  19.754  0.00  0.00    +0.000 N 
ATOM      2  C   UNL     1       1.225   8.991  18.808  0.00  0.00    +0.000 C 
ATOM      3  C   UNL     1       2.251   8.038  19.489  0.00  0.00    +0.000 C 
ATOM      4  N   UNL     1       1.859   7.461  20.799  0.00  0.00    +0.000 NA
ATOM      5  C   UNL     1       1.397   8.573  21.668  0.00  0.00    +0.000 C 
ATOM      6  C   UNL     1       0.318   9.491  21.047  0.00  0.00    +0.000 C 
ENDROOT
BRANCH   1  12
ATOM      7  C   UNL     1      -0.800  11.701  18.760  0.00  0.00    +0.000 A 
ATOM      8  C   UNL     1      -1.046  13.056  18.461  0.00  0.00    +0.000 A 
ATOM      9  C   UNL     1      -0.057  14.023  18.604  0.00  0.00    +0.000 A 
ATOM     10  C   UNL     1       1.180  13.657  19.101  0.00  0.00    +0.000 A 
ATOM     11  C   UNL     1       1.405  12.331  19.481  0.00  0.00    +0.000 A 
ATOM     12  C   UNL     1       0.431  11.313  19.355  0.00  0.00    +0.000 A 
BRANCH   7  13
ATOM     13  O   UNL     1      -1.790  10.766  18.545  0.00  0.00    +0.000 OA
BRANCH  13  15
ATOM     14  C   UNL     1      -2.435   9.918  16.382  0.00  0.00    +0.000 C 
ATOM     15  C   UNL     1      -2.680  10.999  17.432  0.00  0.00    +0.000 C 
ATOM     16  C   UNL     1      -4.121  10.955  17.931  0.00  0.00    +0.000 C 
ENDBRANCH  13  15
ENDBRANCH   7  13
ENDBRANCH   1  12
BRANCH   4  17
ATOM     17  C   UNL     1       0.867   6.386  20.629  0.00  0.00    +0.000 C 
BRANCH  17  18
ATOM     18  C   UNL     1       1.498   5.054  20.280  0.00  0.00    +0.000 A 
ATOM     19  C   UNL     1       1.184   3.889  20.995  0.00  0.00    +0.000 A 
ATOM     20  C   UNL     1       1.668   2.650  20.572  0.00  0.00    +0.000 A 
ATOM     21  C   UNL     1       2.454   2.567  19.418  0.00  0.00    +0.000 A 
ATOM     22  C   UNL     1       2.793   3.720  18.697  0.00  0.00    +0.000 A 
ATOM     23  C   UNL     1       2.321   4.959  19.142  0.00  0.00    +0.000 A 
BRANCH  22  24
ATOM     24  C   UNL     1       3.437   3.557  17.358  0.00  0.00    +0.000 C 
ATOM     25  O   UNL     1       2.746   3.030  16.487  0.00  0.00    +0.000 OA
ATOM     26  N   UNL     1       4.747   4.029  17.075  0.00  0.00    +0.000 N 
ATOM     27  C   UNL     1       5.046   4.148  15.653  0.00  0.00    +0.000 C 
ATOM     28  C   UNL     1       6.524   4.221  15.312  0.00  0.00    +0.000 C 
ATOM     29  C   UNL     1       7.156   5.301  16.156  0.00  0.00    +0.000 C 
ATOM     30  C   UNL     1       7.032   4.918  17.614  0.00  0.00    +0.000 C 
ATOM     31  C   UNL     1       5.729   4.256  18.036  0.00  0.00    +0.000 C 
ATOM     32  O   UNL     1       5.625   3.907  19.221  0.00  0.00    +0.000 OA
ENDBRANCH  22  24
ENDBRANCH  17  18
ENDBRANCH   4  17
TORSDOF 6
ENDMDL
MODEL 2
REMARK VINA RESULT:      -8.0      1.860      2.773
REMARK  Name = 
REMARK  8 active torsions:
REMARK  status: ('A' for Active; 'I' for Inactive)
REMARK    1  A    between atoms: C_1  and  C_2
REMARK    2  A    between atoms: C_2  and  C_3
REMARK    3  A    between atoms: C_2  and  O_4
REMARK    4  A    between atoms: O_4  and  C_5
REMARK    5  A    between atoms: C_10  and  N_11
REMARK    6  A    between atoms: N_14  and  C_15
REMARK    7  A    between atoms: C_15  and  C_16
REMARK    8  A    between atoms: C_20  and  C_21
REMARK                            x       y       z     vdW  Elec       q    Type
REMARK                         _______ _______ _______ _____ _____    ______ ____
ROOT
ATOM      1  N   UNL     1       0.158  10.265  21.522  0.00  0.00    +0.000 N 
ATOM      2  C   UNL     1      -0.059   9.697  20.186  0.00  0.00    +0.000 C 
ATOM      3  C   UNL     1       1.216   8.935  19.717  0.00  0.00    +0.000 C 
ATOM      4  N   UNL     1       1.781   7.936  20.657  0.00  0.00    +0.000 NA
ATOM      5  C   UNL     1       1.919   8.584  21.985  0.00  0.00    +0.000 C 
ATOM      6  C   UNL     1       0.643   9.283  22.515  0.00  0.00    +0.000 C 
ENDROOT
BRANCH   1  12
ATOM      7  C   UNL     1      -0.016  12.772  21.667  0.00  0.00    +0.000 A 
ATOM      8  C   UNL     1      -0.767  13.874  22.126  0.00  0.00    +0.000 A 
ATOM      9  C   UNL     1      -1.857  13.708  22.972  0.00  0.00    +0.000 A 
ATOM     10  C   UNL     1      -2.246  12.431  23.332  0.00  0.00    +0.000 A 
ATOM     11  C   UNL     1      -1.560  11.330  22.814  0.00  0.00    +0.000 A 
ATOM     12  C   UNL     1      -0.447  11.447  21.949  0.00  0.00    +0.000 A 
BRANCH   7  13
ATOM     13  O   UNL     1       1.094  12.986  20.878  0.00  0.00    +0.000 OA
BRANCH  13  15
ATOM     14  C   UNL     1       1.034  14.748  19.233  0.00  0.00    +0.000 C 
ATOM     15  C   UNL     1       0.860  13.251  19.478  0.00  0.00    +0.000 C 
ATOM     16  C   UNL     1       1.856  12.446  18.647  0.00  0.00    +0.000 C 
ENDBRANCH  13  15
ENDBRANCH   7  13
ENDBRANCH   1  12
BRANCH   4  17
ATOM     17  C   UNL     1       0.968   6.708  20.676  0.00  0.00    +0.000 C 
BRANCH  17  18
ATOM     18  C   UNL     1       1.791   5.454  20.458  0.00  0.00    +0.000 A 
ATOM     19  C   UNL     1       1.775   4.401  21.383  0.00  0.00    +0.000 A 
ATOM     20  C   UNL     1       2.429   3.202  21.099  0.00  0.00    +0.000 A 
ATOM     21  C   UNL     1       3.089   3.042  19.875  0.00  0.00    +0.000 A 
ATOM     22  C   UNL     1       3.131   4.087  18.941  0.00  0.00    +0.000 A 
ATOM     23  C   UNL     1       2.490   5.293  19.247  0.00  0.00    +0.000 A 
BRANCH  22  24
ATOM     24  C   UNL     1       3.646   3.793  17.570  0.00  0.00    +0.000 C 
ATOM     25  O   UNL     1       2.873   3.200  16.818  0.00  0.00    +0.000 OA
ATOM     26  N   UNL     1       4.926   4.218  17.124  0.00  0.00    +0.000 N 
ATOM     27  C   UNL     1       5.092   4.203  15.676  0.00  0.00    +0.000 C 
ATOM     28  C   UNL     1       6.532   4.222  15.195  0.00  0.00    +0.000 C 
ATOM     29  C   UNL     1       7.247   5.365  15.874  0.00  0.00    +0.000 C 
ATOM     30  C   UNL     1       7.258   5.117  17.366  0.00  0.00    +0.000 C 
ATOM     31  C   UNL     1       5.996   4.517  17.966  0.00  0.00    +0.000 C 
ATOM     32  O   UNL     1       6.000   4.278  19.182  0.00  0.00    +0.000 OA
ENDBRANCH  22  24
ENDBRANCH  17  18
ENDBRANCH   4  17
TORSDOF 6
ENDMDL
MODEL 3
REMARK VINA RESULT:      -7.8      3.101     10.080
REMARK  Name = 
REMARK  8 active torsions:
REMARK  status: ('A' for Active; 'I' for Inactive)
REMARK    1  A    between atoms: C_1  and  C_2
REMARK    2  A    between atoms: C_2  and  C_3
REMARK    3  A    between atoms: C_2  and  O_4
REMARK    4  A    between atoms: O_4  and  C_5
REMARK    5  A    between atoms: C_10  and  N_11
REMARK    6  A    between atoms: N_14  and  C_15
REMARK    7  A    between atoms: C_15  and  C_16
REMARK    8  A    between atoms: C_20  and  C_21
REMARK                            x       y       z     vdW  Elec       q    Type
REMARK                         _______ _______ _______ _____ _____    ______ ____
ROOT
ATOM      1  N   UNL     1       2.015   8.034  19.030  0.00  0.00    +0.000 N 
ATOM      2  C   UNL     1       1.763   9.343  18.417  0.00  0.00    +0.000 C 
ATOM      3  C   UNL     1       0.394   9.905  18.901  0.00  0.00    +0.000 C 
ATOM      4  N   UNL     1       0.162   9.927  20.367  0.00  0.00    +0.000 NA
ATOM      5  C   UNL     1       0.487   8.581  20.902  0.00  0.00    +0.000 C 
ATOM      6  C   UNL     1       1.876   8.030  20.502  0.00  0.00    +0.000 C 
ENDROOT
BRANCH   1  12
ATOM      7  C   UNL     1       2.648   5.630  18.630  0.00  0.00    +0.000 A 
ATOM      8  C   UNL     1       3.417   4.729  17.867  0.00  0.00    +0.000 A 
ATOM      9  C   UNL     1       4.383   5.174  16.972  0.00  0.00    +0.000 A 
ATOM     10  C   UNL     1       4.558   6.533  16.788  0.00  0.00    +0.000 A 
ATOM     11  C   UNL     1       3.742   7.434  17.476  0.00  0.00    +0.000 A 
ATOM     12  C   UNL     1       2.746   7.029  18.396  0.00  0.00    +0.000 A 
BRANCH   7  13
ATOM     13  O   UNL     1       1.743   5.144  19.550  0.00  0.00    +0.000 OA
BRANCH  13  15
ATOM     14  C   UNL     1       2.069   3.766  21.503  0.00  0.00    +0.000 C 
ATOM     15  C   UNL     1       1.921   3.778  19.983  0.00  0.00    +0.000 C 
ATOM     16  C   UNL     1       0.708   2.959  19.550  0.00  0.00    +0.000 C 
ENDBRANCH  13  15
ENDBRANCH   7  13
ENDBRANCH   1  12
BRANCH   4  17
ATOM     17  C   UNL     1       0.916  11.019  21.006  0.00  0.00    +0.000 C 
BRANCH  17  18
ATOM     18  C   UNL     1       0.019  12.115  21.545  0.00  0.00    +0.000 A 
ATOM     19  C   UNL     1       0.376  13.467  21.441  0.00  0.00    +0.000 A 
ATOM     20  C   UNL     1      -0.523  14.465  21.818  0.00  0.00    +0.000 A 
ATOM     21  C   UNL     1      -1.795  14.117  22.283  0.00  0.00    +0.000 A 
ATOM     22  C   UNL     1      -2.169  12.771  22.410  0.00  0.00    +0.000 A 
ATOM     23  C   UNL     1      -1.251  11.778  22.049  0.00  0.00    +0.000 A 
BRANCH  22  24
ATOM     24  C   UNL     1      -3.603  12.456  22.691  0.00  0.00    +0.000 C 
ATOM     25  O   UNL     1      -3.852  12.036  23.820  0.00  0.00    +0.000 OA
ATOM     26  N   UNL     1      -4.636  12.678  21.742  0.00  0.00    +0.000 N 
ATOM     27  C   UNL     1      -5.978  12.700  22.311  0.00  0.00    +0.000 C 
ATOM     28  C   UNL     1      -7.103  12.497  21.312  0.00  0.00    +0.000 C 
ATOM     29  C   UNL     1      -6.912  13.471  20.174  0.00  0.00    +0.000 C 
ATOM     30  C   UNL     1      -5.607  13.159  19.477  0.00  0.00    +0.000 C 
ATOM     31  C   UNL     1      -4.440  12.754  20.364  0.00  0.00    +0.000 C 
ATOM     32  O   UNL     1      -3.373  12.464  19.805  0.00  0.00    +0.000 OA
ENDBRANCH  22  24
ENDBRANCH  17  18
ENDBRANCH   4  17
TORSDOF 6
ENDMDL
MODEL 4
REMARK VINA RESULT:      -7.8      2.069      3.095
REMARK  Name = 
REMARK  8 active torsions:
REMARK  status: ('A' for Active; 'I' for Inactive)
REMARK    1  A    between atoms: C_1  and  C_2
REMARK    2  A    between atoms: C_2  and  C_3
REMARK    3  A    between atoms: C_2  and  O_4
REMARK    4  A    between atoms: O_4  and  C_5
REMARK    5  A    between atoms: C_10  and  N_11
REMARK    6  A    between atoms: N_14  and  C_15
REMARK    7  A    between atoms: C_15  and  C_16
REMARK    8  A    between atoms: C_20  and  C_21
REMARK                            x       y       z     vdW  Elec       q    Type
REMARK                         _______ _______ _______ _____ _____    ______ ____
ROOT
ATOM      1  N   UNL     1      -0.045  12.399  19.913  0.00  0.00    +0.000 N 
ATOM      2  C   UNL     1       1.036  11.914  20.780  0.00  0.00    +0.000 C 
ATOM      3  C   UNL     1       0.722  10.468  21.265  0.00  0.00    +0.000 C 
ATOM      4  N   UNL     1       0.364   9.476  20.221  0.00  0.00    +0.000 NA
ATOM      5  C   UNL     1      -0.697  10.071  19.370  0.00  0.00    +0.000 C 
ATOM      6  C   UNL     1      -0.379  11.477  18.807  0.00  0.00    +0.000 C 
ENDROOT
BRANCH   1  12
ATOM      7  C   UNL     1      -1.568  14.348  20.385  0.00  0.00    +0.000 A 
ATOM      8  C   UNL     1      -1.768  15.738  20.268  0.00  0.00    +0.000 A 
ATOM      9  C   UNL     1      -0.922  16.532  19.501  0.00  0.00    +0.000 A 
ATOM     10  C   UNL     1       0.170  15.954  18.882  0.00  0.00    +0.000 A 
ATOM     11  C   UNL     1       0.425  14.592  19.062  0.00  0.00    +0.000 A 
ATOM     12  C   UNL     1      -0.405  13.745  19.833  0.00  0.00    +0.000 A 
BRANCH   7  13
ATOM     13  O   UNL     1      -2.465  13.589  21.106  0.00  0.00    +0.000 OA
BRANCH  13  15
ATOM     14  C   UNL     1      -3.908  13.862  23.019  0.00  0.00    +0.000 C 
ATOM     15  C   UNL     1      -2.462  13.758  22.540  0.00  0.00    +0.000 C 
ATOM     16  C   UNL     1      -1.763  12.561  23.179  0.00  0.00    +0.000 C 
ENDBRANCH  13  15
ENDBRANCH   7  13
ENDBRANCH   1  12
BRANCH   4  17
ATOM     17  C   UNL     1       1.555   9.042  19.472  0.00  0.00    +0.000 C 
BRANCH  17  18
ATOM     18  C   UNL     1       1.908   7.589  19.718  0.00  0.00    +0.000 A 
ATOM     19  C   UNL     1       1.424   6.902  20.842  0.00  0.00    +0.000 A 
ATOM     20  C   UNL     1       1.645   5.532  20.979  0.00  0.00    +0.000 A 
ATOM     21  C   UNL     1       2.334   4.834  19.982  0.00  0.00    +0.000 A 
ATOM     22  C   UNL     1       2.840   5.503  18.857  0.00  0.00    +0.000 A 
ATOM     23  C   UNL     1       2.631   6.881  18.741  0.00  0.00    +0.000 A 
BRANCH  22  24
ATOM     24  C   UNL     1       3.363   4.685  17.721  0.00  0.00    +0.000 C 
ATOM     25  O   UNL     1       2.550   3.947  17.167  0.00  0.00    +0.000 OA
ATOM     26  N   UNL     1       4.702   4.787  17.257  0.00  0.00    +0.000 N 
ATOM     27  C   UNL     1       4.918   4.237  15.925  0.00  0.00    +0.000 C 
ATOM     28  C   UNL     1       6.366   3.933  15.582  0.00  0.00    +0.000 C 
ATOM     29  C   UNL     1       7.193   5.162  15.872  0.00  0.00    +0.000 C 
ATOM     30  C   UNL     1       7.118   5.464  17.352  0.00  0.00    +0.000 C 
ATOM     31  C   UNL     1       5.769   5.253  18.023  0.00  0.00    +0.000 C 
ATOM     32  O   UNL     1       5.699   5.466  19.242  0.00  0.00    +0.000 OA
ENDBRANCH  22  24
ENDBRANCH  17  18
ENDBRANCH   4  17
TORSDOF 6
ENDMDL
MODEL 5
REMARK VINA RESULT:      -7.7      2.206      9.655
REMARK  Name = 
REMARK  8 active torsions:
REMARK  status: ('A' for Active; 'I' for Inactive)
REMARK    1  A    between atoms: C_1  and  C_2
REMARK    2  A    between atoms: C_2  and  C_3
REMARK    3  A    between atoms: C_2  and  O_4
REMARK    4  A    between atoms: O_4  and  C_5
REMARK    5  A    between atoms: C_10  and  N_11
REMARK    6  A    between atoms: N_14  and  C_15
REMARK    7  A    between atoms: C_15  and  C_16
REMARK    8  A    between atoms: C_20  and  C_21
REMARK                            x       y       z     vdW  Elec       q    Type
REMARK                         _______ _______ _______ _____ _____    ______ ____
ROOT
ATOM      1  N   UNL     1       2.398   7.527  18.494  0.00  0.00    +0.000 N 
ATOM      2  C   UNL     1       2.060   8.771  17.793  0.00  0.00    +0.000 C 
ATOM      3  C   UNL     1       0.662   9.280  18.251  0.00  0.00    +0.000 C 
ATOM      4  N   UNL     1       0.439   9.393  19.714  0.00  0.00    +0.000 NA
ATOM      5  C   UNL     1       0.851   8.111  20.340  0.00  0.00    +0.000 C 
ATOM      6  C   UNL     1       2.269   7.620  19.964  0.00  0.00    +0.000 C 
ENDROOT
BRANCH   1  12
ATOM      7  C   UNL     1       2.858   5.147  17.814  0.00  0.00    +0.000 A 
ATOM      8  C   UNL     1       3.737   4.261  17.159  0.00  0.00    +0.000 A 
ATOM      9  C   UNL     1       4.995   4.670  16.730  0.00  0.00    +0.000 A 
ATOM     10  C   UNL     1       5.373   5.989  16.904  0.00  0.00    +0.000 A 
ATOM     11  C   UNL     1       4.475   6.894  17.474  0.00  0.00    +0.000 A 
ATOM     12  C   UNL     1       3.185   6.526  17.924  0.00  0.00    +0.000 A 
BRANCH   7  13
ATOM     13  O   UNL     1       1.644   4.685  18.277  0.00  0.00    +0.000 OA
BRANCH  13  15
ATOM     14  C   UNL     1       1.068   4.243  20.576  0.00  0.00    +0.000 C 
ATOM     15  C   UNL     1       1.680   3.668  19.301  0.00  0.00    +0.000 C 
ATOM     16  C   UNL     1       0.892   2.452  18.822  0.00  0.00    +0.000 C 
ENDBRANCH  13  15
ENDBRANCH   7  13
ENDBRANCH   1  12
BRANCH   4  17
ATOM     17  C   UNL     1       1.127  10.573  20.265  0.00  0.00    +0.000 C 
BRANCH  17  18
ATOM     18  C   UNL     1       0.257  11.813  20.269  0.00  0.00    +0.000 A 
ATOM     19  C   UNL     1       0.714  13.027  19.737  0.00  0.00    +0.000 A 
ATOM     20  C   UNL     1      -0.149  14.117  19.624  0.00  0.00    +0.000 A 
ATOM     21  C   UNL     1      -1.483  13.994  20.026  0.00  0.00    +0.000 A 
ATOM     22  C   UNL     1      -1.958  12.794  20.575  0.00  0.00    +0.000 A 
ATOM     23  C   UNL     1      -1.079  11.714  20.703  0.00  0.00    +0.000 A 
BRANCH  22  24
ATOM     24  C   UNL     1      -3.431  12.640  20.775  0.00  0.00    +0.000 C 
ATOM     25  O   UNL     1      -3.840  12.801  21.924  0.00  0.00    +0.000 OA
ATOM     26  N   UNL     1      -4.327  12.380  19.703  0.00  0.00    +0.000 N 
ATOM     27  C   UNL     1      -5.724  12.660  20.009  0.00  0.00    +0.000 C 
ATOM     28  C   UNL     1      -6.729  12.002  19.080  0.00  0.00    +0.000 C 
ATOM     29  C   UNL     1      -6.345  12.324  17.656  0.00  0.00    +0.000 C 
ATOM     30  C   UNL     1      -4.985  11.728  17.369  0.00  0.00    +0.000 C 
ATOM     31  C   UNL     1      -3.960  11.798  18.491  0.00  0.00    +0.000 C 
ATOM     32  O   UNL     1      -2.852  11.285  18.284  0.00  0.00    +0.000 OA
ENDBRANCH  22  24
ENDBRANCH  17  18
ENDBRANCH   4  17
TORSDOF 6
ENDMDL
MODEL 6
REMARK VINA RESULT:      -7.7      1.276      1.883
REMARK  Name = 
REMARK  8 active torsions:
REMARK  status: ('A' for Active; 'I' for Inactive)
REMARK    1  A    between atoms: C_1  and  C_2
REMARK    2  A    between atoms: C_2  and  C_3
REMARK    3  A    between atoms: C_2  and  O_4
REMARK    4  A    between atoms: O_4  and  C_5
REMARK    5  A    between atoms: C_10  and  N_11
REMARK    6  A    between atoms: N_14  and  C_15
REMARK    7  A    between atoms: C_15  and  C_16
REMARK    8  A    between atoms: C_20  and  C_21
REMARK                            x       y       z     vdW  Elec       q    Type
REMARK                         _______ _______ _______ _____ _____    ______ ____
ROOT
ATOM      1  N   UNL     1       0.113  10.296  20.444  0.00  0.00    +0.000 N 
ATOM      2  C   UNL     1       0.464   9.532  19.242  0.00  0.00    +0.000 C 
ATOM      3  C   UNL     1       1.790   8.751  19.474  0.00  0.00    +0.000 C 
ATOM      4  N   UNL     1       1.869   7.918  20.701  0.00  0.00    +0.000 NA
ATOM      5  C   UNL     1       1.453   8.759  21.851  0.00  0.00    +0.000 C 
ATOM      6  C   UNL     1       0.098   9.487  21.681  0.00  0.00    +0.000 C 
ENDROOT
BRANCH   1  12
ATOM      7  C   UNL     1      -1.775  11.778  19.683  0.00  0.00    +0.000 A 
ATOM      8  C   UNL     1      -2.386  13.045  19.777  0.00  0.00    +0.000 A 
ATOM      9  C   UNL     1      -1.774  14.099  20.446  0.00  0.00    +0.000 A 
ATOM     10  C   UNL     1      -0.563  13.887  21.078  0.00  0.00    +0.000 A 
ATOM     11  C   UNL     1       0.009  12.612  21.063  0.00  0.00    +0.000 A 
ATOM     12  C   UNL     1      -0.576  11.509  20.397  0.00  0.00    +0.000 A 
BRANCH   7  13
ATOM     13  O   UNL     1      -2.388  10.778  18.958  0.00  0.00    +0.000 OA
BRANCH  13  15
ATOM     14  C   UNL     1      -2.255  10.119  16.642  0.00  0.00    +0.000 C 
ATOM     15  C   UNL     1      -2.847  11.119  17.632  0.00  0.00    +0.000 C 
ATOM     16  C   UNL     1      -4.372  11.069  17.607  0.00  0.00    +0.000 C 
ENDBRANCH  13  15
ENDBRANCH   7  13
ENDBRANCH   1  12
BRANCH   4  17
ATOM     17  C   UNL     1       1.084   6.681  20.553  0.00  0.00    +0.000 C 
BRANCH  17  18
ATOM     18  C   UNL     1       1.950   5.461  20.312  0.00  0.00    +0.000 A 
ATOM     19  C   UNL     1       1.396   4.174  20.259  0.00  0.00    +0.000 A 
ATOM     20  C   UNL     1       2.186   3.081  19.900  0.00  0.00    +0.000 A 
ATOM     21  C   UNL     1       3.532   3.273  19.572  0.00  0.00    +0.000 A 
ATOM     22  C   UNL     1       4.110   4.549  19.632  0.00  0.00    +0.000 A 
ATOM     23  C   UNL     1       3.314   5.634  20.014  0.00  0.00    +0.000 A 
BRANCH  22  24
ATOM     24  C   UNL     1       5.477   4.737  19.058  0.00  0.00    +0.000 C 
ATOM     25  O   UNL     1       6.391   4.868  19.870  0.00  0.00    +0.000 OA
ATOM     26  N   UNL     1       5.731   4.708  17.660  0.00  0.00    +0.000 N 
ATOM     27  C   UNL     1       7.132   4.504  17.310  0.00  0.00    +0.000 C 
ATOM     28  C   UNL     1       7.502   4.896  15.891  0.00  0.00    +0.000 C 
ATOM     29  C   UNL     1       6.537   4.226  14.943  0.00  0.00    +0.000 C 
ATOM     30  C   UNL     1       5.142   4.741  15.220  0.00  0.00    +0.000 C 
ATOM     31  C   UNL     1       4.776   4.967  16.679  0.00  0.00    +0.000 C 
ATOM     32  O   UNL     1       3.648   5.419  16.920  0.00  0.00    +0.000 OA
ENDBRANCH  22  24
ENDBRANCH  17  18
ENDBRANCH   4  17
TORSDOF 6
ENDMDL
MODEL 7
REMARK VINA RESULT:      -7.7      1.630      2.767
REMARK  Name = 
REMARK  8 active torsions:
REMARK  status: ('A' for Active; 'I' for Inactive)
REMARK    1  A    between atoms: C_1  and  C_2
REMARK    2  A    between atoms: C_2  and  C_3
REMARK    3  A    between atoms: C_2  and  O_4
REMARK    4  A    between atoms: O_4  and  C_5
REMARK    5  A    between atoms: C_10  and  N_11
REMARK    6  A    between atoms: N_14  and  C_15
REMARK    7  A    between atoms: C_15  and  C_16
REMARK    8  A    between atoms: C_20  and  C_21
REMARK                            x       y       z     vdW  Elec       q    Type
REMARK                         _______ _______ _______ _____ _____    ______ ____
ROOT
ATOM      1  N   UNL     1       0.368  10.368  20.478  0.00  0.00    +0.000 N 
ATOM      2  C   UNL     1       0.658   9.554  19.292  0.00  0.00    +0.000 C 
ATOM      3  C   UNL     1       1.896   8.648  19.556  0.00  0.00    +0.000 C 
ATOM      4  N   UNL     1       1.874   7.831  20.795  0.00  0.00    +0.000 NA
ATOM      5  C   UNL     1       1.528   8.727  21.927  0.00  0.00    +0.000 C 
ATOM      6  C   UNL     1       0.255   9.583  21.726  0.00  0.00    +0.000 C 
ENDROOT
BRANCH   1  12
ATOM      7  C   UNL     1       0.501  12.871  20.235  0.00  0.00    +0.000 A 
ATOM      8  C   UNL     1      -0.214  14.080  20.121  0.00  0.00    +0.000 A 
ATOM      9  C   UNL     1      -1.591  14.130  20.307  0.00  0.00    +0.000 A 
ATOM     10  C   UNL     1      -2.282  12.960  20.558  0.00  0.00    +0.000 A 
ATOM     11  C   UNL     1      -1.594  11.745  20.587  0.00  0.00    +0.000 A 
ATOM     12  C   UNL     1      -0.195  11.643  20.404  0.00  0.00    +0.000 A 
BRANCH   7  13
ATOM     13  O   UNL     1       1.874  12.876  20.103  0.00  0.00    +0.000 OA
BRANCH  13  15
ATOM     14  C   UNL     1       3.567  14.494  20.679  0.00  0.00    +0.000 C 
ATOM     15  C   UNL     1       2.484  14.111  19.672  0.00  0.00    +0.000 C 
ATOM     16  C   UNL     1       3.083  13.910  18.282  0.00  0.00    +0.000 C 
ENDBRANCH  13  15
ENDBRANCH   7  13
ENDBRANCH   1  12
BRANCH   4  17
ATOM     17  C   UNL     1       0.971   6.676  20.652  0.00  0.00    +0.000 C 
BRANCH  17  18
ATOM     18  C   UNL     1       1.711   5.380  20.392  0.00  0.00    +0.000 A 
ATOM     19  C   UNL     1       1.617   4.296  21.277  0.00  0.00    +0.000 A 
ATOM     20  C   UNL     1       2.193   3.068  20.951  0.00  0.00    +0.000 A 
ATOM     21  C   UNL     1       2.851   2.910  19.727  0.00  0.00    +0.000 A 
ATOM     22  C   UNL     1       2.971   3.984  18.834  0.00  0.00    +0.000 A 
ATOM     23  C   UNL     1       2.408   5.217  19.180  0.00  0.00    +0.000 A 
BRANCH  22  24
ATOM     24  C   UNL     1       3.477   3.707  17.455  0.00  0.00    +0.000 C 
ATOM     25  O   UNL     1       2.684   3.165  16.687  0.00  0.00    +0.000 OA
ATOM     26  N   UNL     1       4.774   4.095  17.023  0.00  0.00    +0.000 N 
ATOM     27  C   UNL     1       4.942   4.112  15.575  0.00  0.00    +0.000 C 
ATOM     28  C   UNL     1       6.383   4.089  15.096  0.00  0.00    +0.000 C 
ATOM     29  C   UNL     1       7.140   5.185  15.807  0.00  0.00    +0.000 C 
ATOM     30  C   UNL     1       7.138   4.897  17.292  0.00  0.00    +0.000 C 
ATOM     31  C   UNL     1       5.852   4.330  17.874  0.00  0.00    +0.000 C 
ATOM     32  O   UNL     1       5.845   4.058  19.083  0.00  0.00    +0.000 OA
ENDBRANCH  22  24
ENDBRANCH  17  18
ENDBRANCH   4  17
TORSDOF 6
ENDMDL
MODEL 8
REMARK VINA RESULT:      -7.6      3.285     10.099
REMARK  Name = 
REMARK  8 active torsions:
REMARK  status: ('A' for Active; 'I' for Inactive)
REMARK    1  A    between atoms: C_1  and  C_2
REMARK    2  A    between atoms: C_2  and  C_3
REMARK    3  A    between atoms: C_2  and  O_4
REMARK    4  A    between atoms: O_4  and  C_5
REMARK    5  A    between atoms: C_10  and  N_11
REMARK    6  A    between atoms: N_14  and  C_15
REMARK    7  A    between atoms: C_15  and  C_16
REMARK    8  A    between atoms: C_20  and  C_21
REMARK                            x       y       z     vdW  Elec       q    Type
REMARK                         _______ _______ _______ _____ _____    ______ ____
ROOT
ATOM      1  N   UNL     1       2.281   7.688  18.578  0.00  0.00    +0.000 N 
ATOM      2  C   UNL     1       2.036   8.978  17.923  0.00  0.00    +0.000 C 
ATOM      3  C   UNL     1       0.658   9.549  18.368  0.00  0.00    +0.000 C 
ATOM      4  N   UNL     1       0.403   9.615  19.829  0.00  0.00    +0.000 NA
ATOM      5  C   UNL     1       0.722   8.286  20.409  0.00  0.00    +0.000 C 
ATOM      6  C   UNL     1       2.118   7.726  20.047  0.00  0.00    +0.000 C 
ENDROOT
BRANCH   1  12
ATOM      7  C   UNL     1       2.733   5.275  18.020  0.00  0.00    +0.000 A 
ATOM      8  C   UNL     1       3.552   4.363  17.323  0.00  0.00    +0.000 A 
ATOM      9  C   UNL     1       4.729   4.769  16.705  0.00  0.00    +0.000 A 
ATOM     10  C   UNL     1       5.080   6.106  16.731  0.00  0.00    +0.000 A 
ATOM     11  C   UNL     1       4.231   7.030  17.346  0.00  0.00    +0.000 A 
ATOM     12  C   UNL     1       3.024   6.666  17.986  0.00  0.00    +0.000 A 
BRANCH   7  13
ATOM     13  O   UNL     1       1.605   4.819  18.669  0.00  0.00    +0.000 OA
BRANCH  13  15
ATOM     14  C   UNL     1       1.423   3.909  20.895  0.00  0.00    +0.000 C 
ATOM     15  C   UNL     1       1.739   3.601  19.433  0.00  0.00    +0.000 C 
ATOM     16  C   UNL     1       0.772   2.558  18.877  0.00  0.00    +0.000 C 
ENDBRANCH  13  15
ENDBRANCH   7  13
ENDBRANCH   1  12
BRANCH   4  17
ATOM     17  C   UNL     1       1.144  10.728  20.447  0.00  0.00    +0.000 C 
BRANCH  17  18
ATOM     18  C   UNL     1       0.374  12.032  20.422  0.00  0.00    +0.000 A 
ATOM     19  C   UNL     1       0.920  13.191  19.851  0.00  0.00    +0.000 A 
ATOM     20  C   UNL     1       0.145  14.343  19.714  0.00  0.00    +0.000 A 
ATOM     21  C   UNL     1      -1.191  14.336  20.130  0.00  0.00    +0.000 A 
ATOM     22  C   UNL     1      -1.754  13.194  20.718  0.00  0.00    +0.000 A 
ATOM     23  C   UNL     1      -0.961  12.052  20.870  0.00  0.00    +0.000 A 
BRANCH  22  24
ATOM     24  C   UNL     1      -3.232  13.162  20.934  0.00  0.00    +0.000 C 
ATOM     25  O   UNL     1      -3.927  13.167  19.919  0.00  0.00    +0.000 OA
ATOM     26  N   UNL     1      -3.816  13.071  22.226  0.00  0.00    +0.000 N 
ATOM     27  C   UNL     1      -5.211  12.651  22.225  0.00  0.00    +0.000 C 
ATOM     28  C   UNL     1      -5.975  12.958  23.500  0.00  0.00    +0.000 C 
ATOM     29  C   UNL     1      -5.184  12.427  24.671  0.00  0.00    +0.000 C 
ATOM     30  C   UNL     1      -3.859  13.153  24.735  0.00  0.00    +0.000 C 
ATOM     31  C   UNL     1      -3.183  13.456  23.407  0.00  0.00    +0.000 C 
ATOM     32  O   UNL     1      -2.112  14.079  23.441  0.00  0.00    +0.000 OA
ENDBRANCH  22  24
ENDBRANCH  17  18
ENDBRANCH   4  17
TORSDOF 6
ENDMDL
MODEL 9
REMARK VINA RESULT:      -7.6      1.321      1.422
REMARK  Name = 
REMARK  8 active torsions:
REMARK  status: ('A' for Active; 'I' for Inactive)
REMARK    1  A    between atoms: C_1  and  C_2
REMARK    2  A    between atoms: C_2  and  C_3
REMARK    3  A    between atoms: C_2  and  O_4
REMARK    4  A    between atoms: O_4  and  C_5
REMARK    5  A    between atoms: C_10  and  N_11
REMARK    6  A    between atoms: N_14  and  C_15
REMARK    7  A    between atoms: C_15  and  C_16
REMARK    8  A    between atoms: C_20  and  C_21
REMARK                            x       y       z     vdW  Elec       q    Type
REMARK                         _______ _______ _______ _____ _____    ______ ____
ROOT
ATOM      1  N   UNL     1      -0.095   9.978  20.518  0.00  0.00    +0.000 N 
ATOM      2  C   UNL     1       0.333   9.283  19.298  0.00  0.00    +0.000 C 
ATOM      3  C   UNL     1       1.683   8.550  19.546  0.00  0.00    +0.000 C 
ATOM      4  N   UNL     1       1.755   7.668  20.738  0.00  0.00    +0.000 NA
ATOM      5  C   UNL     1       1.261   8.438  21.907  0.00  0.00    +0.000 C 
ATOM      6  C   UNL     1      -0.118   9.114  21.717  0.00  0.00    +0.000 C 
ENDROOT
BRANCH   1  12
ATOM      7  C   UNL     1      -1.507  11.723  19.377  0.00  0.00    +0.000 A 
ATOM      8  C   UNL     1      -2.263  12.903  19.525  0.00  0.00    +0.000 A 
ATOM      9  C   UNL     1      -2.264  13.622  20.715  0.00  0.00    +0.000 A 
ATOM     10  C   UNL     1      -1.547  13.141  21.795  0.00  0.00    +0.000 A 
ATOM     11  C   UNL     1      -0.863  11.928  21.685  0.00  0.00    +0.000 A 
ATOM     12  C   UNL     1      -0.834  11.161  20.496  0.00  0.00    +0.000 A 
BRANCH   7  13
ATOM     13  O   UNL     1      -1.487  11.074  18.161  0.00  0.00    +0.000 OA
BRANCH  13  15
ATOM     14  C   UNL     1      -2.513  10.909  15.985  0.00  0.00    +0.000 C 
ATOM     15  C   UNL     1      -2.755  10.900  17.492  0.00  0.00    +0.000 C 
ATOM     16  C   UNL     1      -3.370   9.575  17.934  0.00  0.00    +0.000 C 
ENDBRANCH  13  15
ENDBRANCH   7  13
ENDBRANCH   1  12
BRANCH   4  17
ATOM     17  C   UNL     1       1.031   6.406  20.507  0.00  0.00    +0.000 C 
BRANCH  17  18
ATOM     18  C   UNL     1       1.946   5.199  20.486  0.00  0.00    +0.000 A 
ATOM     19  C   UNL     1       1.845   4.190  21.455  0.00  0.00    +0.000 A 
ATOM     20  C   UNL     1       2.601   3.023  21.339  0.00  0.00    +0.000 A 
ATOM     21  C   UNL     1       3.449   2.849  20.241  0.00  0.00    +0.000 A 
ATOM     22  C   UNL     1       3.577   3.850  19.268  0.00  0.00    +0.000 A 
ATOM     23  C   UNL     1       2.831   5.025  19.405  0.00  0.00    +0.000 A 
BRANCH  22  24
ATOM     24  C   UNL     1       4.314   3.526  18.008  0.00  0.00    +0.000 C 
ATOM     25  O   UNL     1       3.869   2.587  17.349  0.00  0.00    +0.000 OA
ATOM     26  N   UNL     1       5.426   4.284  17.554  0.00  0.00    +0.000 N 
ATOM     27  C   UNL     1       5.752   4.085  16.147  0.00  0.00    +0.000 C 
ATOM     28  C   UNL     1       7.151   4.518  15.745  0.00  0.00    +0.000 C 
ATOM     29  C   UNL     1       7.369   5.933  16.223  0.00  0.00    +0.000 C 
ATOM     30  C   UNL     1       7.290   5.957  17.733  0.00  0.00    +0.000 C 
ATOM     31  C   UNL     1       6.235   5.069  18.374  0.00  0.00    +0.000 C 
ATOM     32  O   UNL     1       6.178   5.052  19.612  0.00  0.00    +0.000 OA
ENDBRANCH  22  24
ENDBRANCH  17  18
ENDBRANCH   4  17
TORSDOF 6
ENDMDL
