MODEL 1
REMARK VINA RESULT:      -6.6      0.000      0.000
REMARK  Name = 
REMARK  10 active torsions:
REMARK  status: ('A' for Active; 'I' for Inactive)
REMARK    1  A    between atoms: C_1  and  O_2
REMARK    2  A    between atoms: O_2  and  C_3
REMARK    3  A    between atoms: C_3  and  C_5
REMARK    4  A    between atoms: C_7  and  O_8
REMARK    5  A    between atoms: O_8  and  C_9
REMARK    6  A    between atoms: C_9  and  C_10
REMARK    7  A    between atoms: C_15  and  C_16
REMARK    8  A    between atoms: C_23  and  C_24
REMARK    9  A    between atoms: C_28  and  C_29
REMARK   10  A    between atoms: C_33  and  C_34
REMARK                            x       y       z     vdW  Elec       q    Type
REMARK                         _______ _______ _______ _____ _____    ______ ____
ROOT
ATOM      1  C   UNL     1      -6.195  15.025  19.742  0.00  0.00    +0.000 C 
ATOM      2  C   UNL     1      -7.267  13.924  19.922  0.00  0.00    +0.000 C 
ATOM      3  C   UNL     1      -6.669  12.565  20.290  0.00  0.00    +0.000 C 
ATOM      4  C   UNL     1      -5.756  12.759  21.509  0.00  0.00    +0.000 C 
ATOM      5  O   UNL     1      -5.892  12.118  22.546  0.00  0.00    +0.000 OA
ATOM      6  C   UNL     1      -4.637  13.790  21.303  0.00  0.00    +0.000 C 
ATOM      7  C   UNL     1      -5.269  15.196  21.013  0.00  0.00    +0.000 C 
ATOM      8  C   UNL     1      -6.116  15.744  22.183  0.00  0.00    +0.000 C 
ATOM      9  C   UNL     1      -4.121  16.204  20.716  0.00  0.00    +0.000 C 
ATOM     10  C   UNL     1      -2.976  16.172  21.735  0.00  0.00    +0.000 C 
ATOM     11  C   UNL     1      -2.378  14.762  21.854  0.00  0.00    +0.000 C 
ATOM     12  C   UNL     1      -1.126  14.721  22.713  0.00  0.00    +0.000 C 
ATOM     13  O   UNL     1      -0.515  15.726  23.043  0.00  0.00    +0.000 OA
ATOM     14  O   UNL     1      -0.644  13.488  22.995  0.00  0.00    +0.000 OA
ATOM     15  C   UNL     1      -1.419  12.254  22.973  0.00  0.00    +0.000 C 
ATOM     16  C   UNL     1      -2.713  12.356  22.155  0.00  0.00    +0.000 C 
ATOM     17  C   UNL     1      -3.426  13.723  22.309  0.00  0.00    +0.000 C 
ATOM     18  C   UNL     1      -3.811  13.928  23.793  0.00  0.00    +0.000 C 
ENDROOT
BRANCH  15  19
ATOM     19  C   UNL     1      -0.561  11.117  22.480  0.00  0.00    +0.000 A 
ATOM     20  C   UNL     1      -0.282   9.927  23.223  0.00  0.00    +0.000 A 
ATOM     21  C   UNL     1       0.530   9.147  22.441  0.00  0.00    +0.000 A 
ATOM     22  O   UNL     1       0.778   9.765  21.262  0.00  0.00    +0.000 OA
ATOM     23  C   UNL     1       0.117  10.960  21.274  0.00  0.00    +0.000 A 
BRANCH  23  24
ATOM     24  C   UNL     1       0.149  11.922  20.089  0.00  0.00    +0.000 C 
ATOM     25  C   UNL     1       1.139  13.075  20.103  0.00  0.00    +0.000 C 
ATOM     26  C   UNL     1       1.394  11.908  19.218  0.00  0.00    +0.000 C 
ENDBRANCH  23  24
ENDBRANCH  15  19
BRANCH   1  27
ATOM     27  C   UNL     1      -6.807  16.343  19.261  0.00  0.00    +0.000 C 
ATOM     28  O   UNL     1      -7.763  16.874  19.809  0.00  0.00    +0.000 OA
BRANCH  27  30
ATOM     29  C   UNL     1      -7.087  17.042  17.042  0.00  0.00    +0.000 C 
ATOM     30  O   UNL     1      -6.200  16.805  18.137  0.00  0.00    +0.000 OA
ENDBRANCH  27  30
ENDBRANCH   1  27
BRANCH   3  31
ATOM     31  O   UNL     1      -7.712  11.617  20.577  0.00  0.00    +0.000 OA
BRANCH  31  32
ATOM     32  C   UNL     1      -7.416  10.323  20.290  0.00  0.00    +0.000 C 
ATOM     33  C   UNL     1      -6.816  10.170  18.919  0.00  0.00    +0.000 C 
ATOM     34  O   UNL     1      -7.601   9.382  21.050  0.00  0.00    +0.000 OA
ENDBRANCH  31  32
ENDBRANCH   3  31
TORSDOF 6
ENDMDL
MODEL 2
REMARK VINA RESULT:      -6.6      0.801      1.106
REMARK  Name = 
REMARK  10 active torsions:
REMARK  status: ('A' for Active; 'I' for Inactive)
REMARK    1  A    between atoms: C_1  and  O_2
REMARK    2  A    between atoms: O_2  and  C_3
REMARK    3  A    between atoms: C_3  and  C_5
REMARK    4  A    between atoms: C_7  and  O_8
REMARK    5  A    between atoms: O_8  and  C_9
REMARK    6  A    between atoms: C_9  and  C_10
REMARK    7  A    between atoms: C_15  and  C_16
REMARK    8  A    between atoms: C_23  and  C_24
REMARK    9  A    between atoms: C_28  and  C_29
REMARK   10  A    between atoms: C_33  and  C_34
REMARK                            x       y       z     vdW  Elec       q    Type
REMARK                         _______ _______ _______ _____ _____    ______ ____
ROOT
ATOM      1  C   UNL     1      -5.882  15.511  20.299  0.00  0.00    +0.000 C 
ATOM      2  C   UNL     1      -7.009  14.451  20.309  0.00  0.00    +0.000 C 
ATOM      3  C   UNL     1      -6.484  13.024  20.475  0.00  0.00    +0.000 C 
ATOM      4  C   UNL     1      -5.576  12.989  21.713  0.00  0.00    +0.000 C 
ATOM      5  O   UNL     1      -5.756  12.210  22.643  0.00  0.00    +0.000 OA
ATOM      6  C   UNL     1      -4.405  13.981  21.667  0.00  0.00    +0.000 C 
ATOM      7  C   UNL     1      -4.963  15.445  21.585  0.00  0.00    +0.000 C 
ATOM      8  C   UNL     1      -5.796  15.856  22.820  0.00  0.00    +0.000 C 
ATOM      9  C   UNL     1      -3.764  16.426  21.446  0.00  0.00    +0.000 C 
ATOM     10  C   UNL     1      -2.633  16.186  22.454  0.00  0.00    +0.000 C 
ATOM     11  C   UNL     1      -2.107  14.745  22.365  0.00  0.00    +0.000 C 
ATOM     12  C   UNL     1      -0.870  14.515  23.214  0.00  0.00    +0.000 C 
ATOM     13  O   UNL     1      -0.213  15.428  23.692  0.00  0.00    +0.000 OA
ATOM     14  O   UNL     1      -0.453  13.231  23.313  0.00  0.00    +0.000 OA
ATOM     15  C   UNL     1      -1.287  12.055  23.105  0.00  0.00    +0.000 C 
ATOM     16  C   UNL     1      -2.565  12.341  22.305  0.00  0.00    +0.000 C 
ATOM     17  C   UNL     1      -3.211  13.706  22.657  0.00  0.00    +0.000 C 
ATOM     18  C   UNL     1      -3.603  13.708  24.153  0.00  0.00    +0.000 C 
ENDROOT
BRANCH  15  19
ATOM     19  C   UNL     1      -0.481  10.960  22.453  0.00  0.00    +0.000 A 
ATOM     20  C   UNL     1      -0.195   9.693  23.052  0.00  0.00    +0.000 A 
ATOM     21  C   UNL     1       0.560   8.987  22.152  0.00  0.00    +0.000 A 
ATOM     22  O   UNL     1       0.766   9.721  21.034  0.00  0.00    +0.000 OA
ATOM     23  C   UNL     1       0.134  10.920  21.204  0.00  0.00    +0.000 A 
BRANCH  23  24
ATOM     24  C   UNL     1       0.132  12.001  20.127  0.00  0.00    +0.000 C 
ATOM     25  C   UNL     1       1.110  13.159  20.243  0.00  0.00    +0.000 C 
ATOM     26  C   UNL     1       1.359  12.095  19.235  0.00  0.00    +0.000 C 
ENDBRANCH  23  24
ENDBRANCH  15  19
BRANCH   1  27
ATOM     27  C   UNL     1      -6.422  16.914  20.015  0.00  0.00    +0.000 C 
ATOM     28  O   UNL     1      -5.750  17.799  19.503  0.00  0.00    +0.000 OA
BRANCH  27  30
ATOM     29  C   UNL     1      -7.916  18.212  21.270  0.00  0.00    +0.000 C 
ATOM     30  O   UNL     1      -7.701  17.063  20.447  0.00  0.00    +0.000 OA
ENDBRANCH  27  30
ENDBRANCH   1  27
BRANCH   3  31
ATOM     31  O   UNL     1      -7.576  12.099  20.614  0.00  0.00    +0.000 OA
BRANCH  31  32
ATOM     32  C   UNL     1      -7.350  10.855  20.115  0.00  0.00    +0.000 C 
ATOM     33  C   UNL     1      -6.903  10.893  18.679  0.00  0.00    +0.000 C 
ATOM     34  O   UNL     1      -7.482   9.817  20.749  0.00  0.00    +0.000 OA
ENDBRANCH  31  32
ENDBRANCH   3  31
TORSDOF 6
ENDMDL
MODEL 3
REMARK VINA RESULT:      -6.6      5.259      9.635
REMARK  Name = 
REMARK  10 active torsions:
REMARK  status: ('A' for Active; 'I' for Inactive)
REMARK    1  A    between atoms: C_1  and  O_2
REMARK    2  A    between atoms: O_2  and  C_3
REMARK    3  A    between atoms: C_3  and  C_5
REMARK    4  A    between atoms: C_7  and  O_8
REMARK    5  A    between atoms: O_8  and  C_9
REMARK    6  A    between atoms: C_9  and  C_10
REMARK    7  A    between atoms: C_15  and  C_16
REMARK    8  A    between atoms: C_23  and  C_24
REMARK    9  A    between atoms: C_28  and  C_29
REMARK   10  A    between atoms: C_33  and  C_34
REMARK                            x       y       z     vdW  Elec       q    Type
REMARK                         _______ _______ _______ _____ _____    ______ ____
ROOT
ATOM      1  C   UNL     1       0.842  10.686  21.186  0.00  0.00    +0.000 C 
ATOM      2  C   UNL     1       0.776  11.893  20.220  0.00  0.00    +0.000 C 
ATOM      3  C   UNL     1       1.819  11.822  19.104  0.00  0.00    +0.000 C 
ATOM      4  C   UNL     1       1.689  10.457  18.414  0.00  0.00    +0.000 C 
ATOM      5  O   UNL     1       1.512  10.341  17.205  0.00  0.00    +0.000 OA
ATOM      6  C   UNL     1       1.840   9.254  19.357  0.00  0.00    +0.000 C 
ATOM      7  C   UNL     1       0.709   9.296  20.442  0.00  0.00    +0.000 C 
ATOM      8  C   UNL     1      -0.715   9.174  19.853  0.00  0.00    +0.000 C 
ATOM      9  C   UNL     1       0.935   8.124  21.440  0.00  0.00    +0.000 C 
ATOM     10  C   UNL     1       1.184   6.767  20.772  0.00  0.00    +0.000 C 
ATOM     11  C   UNL     1       2.378   6.834  19.807  0.00  0.00    +0.000 C 
ATOM     12  C   UNL     1       2.775   5.473  19.262  0.00  0.00    +0.000 C 
ATOM     13  O   UNL     1       2.372   4.424  19.741  0.00  0.00    +0.000 OA
ATOM     14  O   UNL     1       3.709   5.480  18.282  0.00  0.00    +0.000 OA
ATOM     15  C   UNL     1       4.006   6.607  17.408  0.00  0.00    +0.000 C 
ATOM     16  C   UNL     1       3.526   7.956  17.959  0.00  0.00    +0.000 C 
ATOM     17  C   UNL     1       2.158   7.867  18.682  0.00  0.00    +0.000 C 
ATOM     18  C   UNL     1       1.087   7.381  17.676  0.00  0.00    +0.000 C 
ENDROOT
BRANCH  15  19
ATOM     19  C   UNL     1       5.483   6.647  17.104  0.00  0.00    +0.000 A 
ATOM     20  C   UNL     1       6.452   7.363  17.875  0.00  0.00    +0.000 A 
ATOM     21  C   UNL     1       7.670   7.155  17.279  0.00  0.00    +0.000 A 
ATOM     22  O   UNL     1       7.530   6.359  16.193  0.00  0.00    +0.000 OA
ATOM     23  C   UNL     1       6.206   6.041  16.080  0.00  0.00    +0.000 A 
BRANCH  23  24
ATOM     24  C   UNL     1       5.677   5.132  14.974  0.00  0.00    +0.000 C 
ATOM     25  C   UNL     1       6.667   4.421  14.068  0.00  0.00    +0.000 C 
ATOM     26  C   UNL     1       5.947   3.643  15.111  0.00  0.00    +0.000 C 
ENDBRANCH  23  24
ENDBRANCH  15  19
BRANCH   1  27
ATOM     27  C   UNL     1      -0.132  10.840  22.356  0.00  0.00    +0.000 C 
ATOM     28  O   UNL     1       0.025  10.281  23.433  0.00  0.00    +0.000 OA
BRANCH  27  30
ATOM     29  C   UNL     1      -2.075  11.900  23.124  0.00  0.00    +0.000 C 
ATOM     30  O   UNL     1      -1.198  11.615  22.032  0.00  0.00    +0.000 OA
ENDBRANCH  27  30
ENDBRANCH   1  27
BRANCH   3  31
ATOM     31  O   UNL     1       1.625  12.893  18.164  0.00  0.00    +0.000 OA
BRANCH  31  32
ATOM     32  C   UNL     1       2.031  14.118  18.587  0.00  0.00    +0.000 C 
ATOM     33  C   UNL     1       3.522  14.189  18.771  0.00  0.00    +0.000 C 
ATOM     34  O   UNL     1       1.284  15.066  18.788  0.00  0.00    +0.000 OA
ENDBRANCH  31  32
ENDBRANCH   3  31
TORSDOF 6
ENDMDL
MODEL 4
REMARK VINA RESULT:      -6.3      2.907      5.430
REMARK  Name = 
REMARK  10 active torsions:
REMARK  status: ('A' for Active; 'I' for Inactive)
REMARK    1  A    between atoms: C_1  and  O_2
REMARK    2  A    between atoms: O_2  and  C_3
REMARK    3  A    between atoms: C_3  and  C_5
REMARK    4  A    between atoms: C_7  and  O_8
REMARK    5  A    between atoms: O_8  and  C_9
REMARK    6  A    between atoms: C_9  and  C_10
REMARK    7  A    between atoms: C_15  and  C_16
REMARK    8  A    between atoms: C_23  and  C_24
REMARK    9  A    between atoms: C_28  and  C_29
REMARK   10  A    between atoms: C_33  and  C_34
REMARK                            x       y       z     vdW  Elec       q    Type
REMARK                         _______ _______ _______ _____ _____    ______ ____
ROOT
ATOM      1  C   UNL     1      -3.166  15.970  23.053  0.00  0.00    +0.000 C 
ATOM      2  C   UNL     1      -4.212  15.185  23.880  0.00  0.00    +0.000 C 
ATOM      3  C   UNL     1      -4.849  14.034  23.099  0.00  0.00    +0.000 C 
ATOM      4  C   UNL     1      -3.721  13.165  22.524  0.00  0.00    +0.000 C 
ATOM      5  O   UNL     1      -3.641  11.959  22.736  0.00  0.00    +0.000 OA
ATOM      6  C   UNL     1      -2.729  13.925  21.632  0.00  0.00    +0.000 C 
ATOM      7  C   UNL     1      -2.022  15.045  22.472  0.00  0.00    +0.000 C 
ATOM      8  C   UNL     1      -1.176  14.495  23.643  0.00  0.00    +0.000 C 
ATOM      9  C   UNL     1      -1.092  15.861  21.529  0.00  0.00    +0.000 C 
ATOM     10  C   UNL     1      -0.182  15.002  20.643  0.00  0.00    +0.000 C 
ATOM     11  C   UNL     1      -1.002  14.014  19.798  0.00  0.00    +0.000 C 
ATOM     12  C   UNL     1      -0.161  13.271  18.775  0.00  0.00    +0.000 C 
ATOM     13  O   UNL     1       0.973  13.612  18.475  0.00  0.00    +0.000 OA
ATOM     14  O   UNL     1      -0.787  12.269  18.113  0.00  0.00    +0.000 OA
ATOM     15  C   UNL     1      -1.963  11.551  18.586  0.00  0.00    +0.000 C 
ATOM     16  C   UNL     1      -2.747  12.301  19.671  0.00  0.00    +0.000 C 
ATOM     17  C   UNL     1      -1.834  13.052  20.673  0.00  0.00    +0.000 C 
ATOM     18  C   UNL     1      -0.928  12.027  21.396  0.00  0.00    +0.000 C 
ENDROOT
BRANCH  15  19
ATOM     19  C   UNL     1      -2.856  11.204  17.422  0.00  0.00    +0.000 A 
ATOM     20  C   UNL     1      -2.407  10.605  16.203  0.00  0.00    +0.000 A 
ATOM     21  C   UNL     1      -3.510  10.454  15.402  0.00  0.00    +0.000 A 
ATOM     22  O   UNL     1      -4.614  10.915  16.034  0.00  0.00    +0.000 OA
ATOM     23  C   UNL     1      -4.229  11.369  17.263  0.00  0.00    +0.000 A 
BRANCH  23  24
ATOM     24  C   UNL     1      -5.223  11.943  18.268  0.00  0.00    +0.000 C 
ATOM     25  C   UNL     1      -6.703  11.945  17.923  0.00  0.00    +0.000 C 
ATOM     26  C   UNL     1      -6.190  10.970  18.922  0.00  0.00    +0.000 C 
ENDBRANCH  23  24
ENDBRANCH  15  19
BRANCH   1  27
ATOM     27  C   UNL     1      -2.632  17.184  23.815  0.00  0.00    +0.000 C 
ATOM     28  O   UNL     1      -2.008  18.089  23.278  0.00  0.00    +0.000 OA
BRANCH  27  30
ATOM     29  C   UNL     1      -1.722  17.135  25.974  0.00  0.00    +0.000 C 
ATOM     30  O   UNL     1      -2.887  17.100  25.147  0.00  0.00    +0.000 OA
ENDBRANCH  27  30
ENDBRANCH   1  27
BRANCH   3  31
ATOM     31  O   UNL     1      -5.708  13.260  23.953  0.00  0.00    +0.000 OA
BRANCH  31  32
ATOM     32  C   UNL     1      -6.998  13.156  23.540  0.00  0.00    +0.000 C 
ATOM     33  C   UNL     1      -7.176  13.612  22.118  0.00  0.00    +0.000 C 
ATOM     34  O   UNL     1      -7.917  12.734  24.229  0.00  0.00    +0.000 OA
ENDBRANCH  31  32
ENDBRANCH   3  31
TORSDOF 6
ENDMDL
MODEL 5
REMARK VINA RESULT:      -6.2      3.029      4.857
REMARK  Name = 
REMARK  10 active torsions:
REMARK  status: ('A' for Active; 'I' for Inactive)
REMARK    1  A    between atoms: C_1  and  O_2
REMARK    2  A    between atoms: O_2  and  C_3
REMARK    3  A    between atoms: C_3  and  C_5
REMARK    4  A    between atoms: C_7  and  O_8
REMARK    5  A    between atoms: O_8  and  C_9
REMARK    6  A    between atoms: C_9  and  C_10
REMARK    7  A    between atoms: C_15  and  C_16
REMARK    8  A    between atoms: C_23  and  C_24
REMARK    9  A    between atoms: C_28  and  C_29
REMARK   10  A    between atoms: C_33  and  C_34
REMARK                            x       y       z     vdW  Elec       q    Type
REMARK                         _______ _______ _______ _____ _____    ______ ____
ROOT
ATOM      1  C   UNL     1      -4.760  13.757  21.397  0.00  0.00    +0.000 C 
ATOM      2  C   UNL     1      -5.025  12.603  20.401  0.00  0.00    +0.000 C 
ATOM      3  C   UNL     1      -3.964  12.507  19.304  0.00  0.00    +0.000 C 
ATOM      4  C   UNL     1      -2.584  12.452  19.977  0.00  0.00    +0.000 C 
ATOM      5  O   UNL     1      -1.780  11.550  19.766  0.00  0.00    +0.000 OA
ATOM      6  C   UNL     1      -2.284  13.642  20.901  0.00  0.00    +0.000 C 
ATOM      7  C   UNL     1      -3.330  13.674  22.069  0.00  0.00    +0.000 C 
ATOM      8  C   UNL     1      -3.274  12.427  22.980  0.00  0.00    +0.000 C 
ATOM      9  C   UNL     1      -3.065  14.937  22.937  0.00  0.00    +0.000 C 
ATOM     10  C   UNL     1      -1.597  15.131  23.336  0.00  0.00    +0.000 C 
ATOM     11  C   UNL     1      -0.688  15.181  22.098  0.00  0.00    +0.000 C 
ATOM     12  C   UNL     1       0.746  15.553  22.432  0.00  0.00    +0.000 C 
ATOM     13  O   UNL     1       1.075  16.021  23.512  0.00  0.00    +0.000 OA
ATOM     14  O   UNL     1       1.633  15.454  21.416  0.00  0.00    +0.000 OA
ATOM     15  C   UNL     1       1.471  14.618  20.233  0.00  0.00    +0.000 C 
ATOM     16  C   UNL     1       0.018  14.203  19.968  0.00  0.00    +0.000 C 
ATOM     17  C   UNL     1      -0.771  13.885  21.264  0.00  0.00    +0.000 C 
ATOM     18  C   UNL     1      -0.088  12.704  21.994  0.00  0.00    +0.000 C 
ENDROOT
BRANCH  15  19
ATOM     19  C   UNL     1       2.059  15.311  19.029  0.00  0.00    +0.000 A 
ATOM     20  C   UNL     1       3.151  14.808  18.254  0.00  0.00    +0.000 A 
ATOM     21  C   UNL     1       3.388  15.721  17.259  0.00  0.00    +0.000 A 
ATOM     22  O   UNL     1       2.522  16.757  17.356  0.00  0.00    +0.000 OA
ATOM     23  C   UNL     1       1.707  16.516  18.425  0.00  0.00    +0.000 A 
BRANCH  23  24
ATOM     24  C   UNL     1       0.585  17.469  18.827  0.00  0.00    +0.000 C 
ATOM     25  C   UNL     1       0.037  18.439  17.794  0.00  0.00    +0.000 C 
ATOM     26  C   UNL     1      -0.773  17.254  18.179  0.00  0.00    +0.000 C 
ENDBRANCH  23  24
ENDBRANCH  15  19
BRANCH   1  27
ATOM     27  C   UNL     1      -5.896  13.905  22.412  0.00  0.00    +0.000 C 
ATOM     28  O   UNL     1      -6.107  14.938  23.032  0.00  0.00    +0.000 OA
BRANCH  27  30
ATOM     29  C   UNL     1      -7.035  12.508  23.909  0.00  0.00    +0.000 C 
ATOM     30  O   UNL     1      -6.587  12.747  22.573  0.00  0.00    +0.000 OA
ENDBRANCH  27  30
ENDBRANCH   1  27
BRANCH   3  31
ATOM     31  O   UNL     1      -4.183  11.340  18.492  0.00  0.00    +0.000 OA
BRANCH  31  32
ATOM     32  C   UNL     1      -4.447  11.587  17.182  0.00  0.00    +0.000 C 
ATOM     33  C   UNL     1      -5.740  12.332  16.995  0.00  0.00    +0.000 C 
ATOM     34  O   UNL     1      -3.724  11.256  16.253  0.00  0.00    +0.000 OA
ENDBRANCH  31  32
ENDBRANCH   3  31
TORSDOF 6
ENDMDL
MODEL 6
REMARK VINA RESULT:      -6.1      3.160      4.594
REMARK  Name = 
REMARK  10 active torsions:
REMARK  status: ('A' for Active; 'I' for Inactive)
REMARK    1  A    between atoms: C_1  and  O_2
REMARK    2  A    between atoms: O_2  and  C_3
REMARK    3  A    between atoms: C_3  and  C_5
REMARK    4  A    between atoms: C_7  and  O_8
REMARK    5  A    between atoms: O_8  and  C_9
REMARK    6  A    between atoms: C_9  and  C_10
REMARK    7  A    between atoms: C_15  and  C_16
REMARK    8  A    between atoms: C_23  and  C_24
REMARK    9  A    between atoms: C_28  and  C_29
REMARK   10  A    between atoms: C_33  and  C_34
REMARK                            x       y       z     vdW  Elec       q    Type
REMARK                         _______ _______ _______ _____ _____    ______ ____
ROOT
ATOM      1  C   UNL     1      -4.973  13.621  20.402  0.00  0.00    +0.000 C 
ATOM      2  C   UNL     1      -4.945  12.264  19.660  0.00  0.00    +0.000 C 
ATOM      3  C   UNL     1      -3.673  12.061  18.836  0.00  0.00    +0.000 C 
ATOM      4  C   UNL     1      -2.465  12.301  19.753  0.00  0.00    +0.000 C 
ATOM      5  O   UNL     1      -1.576  11.469  19.908  0.00  0.00    +0.000 OA
ATOM      6  C   UNL     1      -2.446  13.681  20.425  0.00  0.00    +0.000 C 
ATOM      7  C   UNL     1      -3.714  13.838  21.335  0.00  0.00    +0.000 C 
ATOM      8  C   UNL     1      -3.767  12.821  22.497  0.00  0.00    +0.000 C 
ATOM      9  C   UNL     1      -3.722  15.275  21.932  0.00  0.00    +0.000 C 
ATOM     10  C   UNL     1      -2.387  15.709  22.548  0.00  0.00    +0.000 C 
ATOM     11  C   UNL     1      -1.244  15.603  21.528  0.00  0.00    +0.000 C 
ATOM     12  C   UNL     1       0.060  16.193  22.036  0.00  0.00    +0.000 C 
ATOM     13  O   UNL     1       0.123  16.908  23.025  0.00  0.00    +0.000 OA
ATOM     14  O   UNL     1       1.146  15.985  21.256  0.00  0.00    +0.000 OA
ATOM     15  C   UNL     1       1.292  14.910  20.283  0.00  0.00    +0.000 C 
ATOM     16  C   UNL     1      -0.042  14.290  19.847  0.00  0.00    +0.000 C 
ATOM     17  C   UNL     1      -1.062  14.161  21.006  0.00  0.00    +0.000 C 
ATOM     18  C   UNL     1      -0.471  13.240  22.100  0.00  0.00    +0.000 C 
ENDROOT
BRANCH  15  19
ATOM     19  C   UNL     1       2.072  15.400  19.089  0.00  0.00    +0.000 A 
ATOM     20  C   UNL     1       3.197  14.724  18.519  0.00  0.00    +0.000 A 
ATOM     21  C   UNL     1       3.625  15.483  17.461  0.00  0.00    +0.000 A 
ATOM     22  O   UNL     1       2.848  16.583  17.328  0.00  0.00    +0.000 OA
ATOM     23  C   UNL     1       1.899  16.540  18.309  0.00  0.00    +0.000 A 
BRANCH  23  24
ATOM     24  C   UNL     1       0.826  17.616  18.454  0.00  0.00    +0.000 C 
ATOM     25  C   UNL     1       0.243  18.249  17.202  0.00  0.00    +0.000 C 
ATOM     26  C   UNL     1      -0.573  17.271  17.970  0.00  0.00    +0.000 C 
ENDBRANCH  23  24
ENDBRANCH  15  19
BRANCH   1  27
ATOM     27  C   UNL     1      -6.304  13.848  21.123  0.00  0.00    +0.000 C 
ATOM     28  O   UNL     1      -6.832  13.003  21.832  0.00  0.00    +0.000 OA
BRANCH  27  30
ATOM     29  C   UNL     1      -6.639  15.488  19.483  0.00  0.00    +0.000 C 
ATOM     30  O   UNL     1      -6.837  15.063  20.834  0.00  0.00    +0.000 OA
ENDBRANCH  27  30
ENDBRANCH   1  27
BRANCH   3  31
ATOM     31  O   UNL     1      -3.639  10.735  18.280  0.00  0.00    +0.000 OA
BRANCH  31  32
ATOM     32  C   UNL     1      -3.541  10.675  16.926  0.00  0.00    +0.000 C 
ATOM     33  C   UNL     1      -2.204  10.154  16.476  0.00  0.00    +0.000 C 
ATOM     34  O   UNL     1      -4.432  10.994  16.150  0.00  0.00    +0.000 OA
ENDBRANCH  31  32
ENDBRANCH   3  31
TORSDOF 6
ENDMDL
MODEL 7
REMARK VINA RESULT:      -6.1      3.006      4.888
REMARK  Name = 
REMARK  10 active torsions:
REMARK  status: ('A' for Active; 'I' for Inactive)
REMARK    1  A    between atoms: C_1  and  O_2
REMARK    2  A    between atoms: O_2  and  C_3
REMARK    3  A    between atoms: C_3  and  C_5
REMARK    4  A    between atoms: C_7  and  O_8
REMARK    5  A    between atoms: O_8  and  C_9
REMARK    6  A    between atoms: C_9  and  C_10
REMARK    7  A    between atoms: C_15  and  C_16
REMARK    8  A    between atoms: C_23  and  C_24
REMARK    9  A    between atoms: C_28  and  C_29
REMARK   10  A    between atoms: C_33  and  C_34
REMARK                            x       y       z     vdW  Elec       q    Type
REMARK                         _______ _______ _______ _____ _____    ______ ____
ROOT
ATOM      1  C   UNL     1      -4.812  13.491  21.518  0.00  0.00    +0.000 C 
ATOM      2  C   UNL     1      -4.989  12.358  20.479  0.00  0.00    +0.000 C 
ATOM      3  C   UNL     1      -3.957  12.415  19.353  0.00  0.00    +0.000 C 
ATOM      4  C   UNL     1      -2.560  12.474  19.987  0.00  0.00    +0.000 C 
ATOM      5  O   UNL     1      -1.676  11.667  19.716  0.00  0.00    +0.000 OA
ATOM      6  C   UNL     1      -2.353  13.649  20.953  0.00  0.00    +0.000 C 
ATOM      7  C   UNL     1      -3.362  13.527  22.148  0.00  0.00    +0.000 C 
ATOM      8  C   UNL     1      -3.153  12.256  23.003  0.00  0.00    +0.000 C 
ATOM      9  C   UNL     1      -3.199  14.774  23.064  0.00  0.00    +0.000 C 
ATOM     10  C   UNL     1      -1.747  15.099  23.433  0.00  0.00    +0.000 C 
ATOM     11  C   UNL     1      -0.885  15.293  22.176  0.00  0.00    +0.000 C 
ATOM     12  C   UNL     1       0.514  15.794  22.489  0.00  0.00    +0.000 C 
ATOM     13  O   UNL     1       0.826  16.249  23.580  0.00  0.00    +0.000 OA
ATOM     14  O   UNL     1       1.376  15.827  21.447  0.00  0.00    +0.000 OA
ATOM     15  C   UNL     1       1.264  15.028  20.233  0.00  0.00    +0.000 C 
ATOM     16  C   UNL     1      -0.148  14.478  19.988  0.00  0.00    +0.000 C 
ATOM     17  C   UNL     1      -0.861  14.029  21.289  0.00  0.00    +0.000 C 
ATOM     18  C   UNL     1      -0.042  12.895  21.949  0.00  0.00    +0.000 C 
ENDROOT
BRANCH  15  19
ATOM     19  C   UNL     1       1.742  15.826  19.047  0.00  0.00    +0.000 A 
ATOM     20  C   UNL     1       1.073  16.974  18.515  0.00  0.00    +0.000 A 
ATOM     21  C   UNL     1       1.814  17.408  17.446  0.00  0.00    +0.000 A 
ATOM     22  O   UNL     1       2.897  16.615  17.272  0.00  0.00    +0.000 OA
ATOM     23  C   UNL     1       2.865  15.653  18.242  0.00  0.00    +0.000 A 
BRANCH  23  24
ATOM     24  C   UNL     1       3.951  14.588  18.370  0.00  0.00    +0.000 C 
ATOM     25  C   UNL     1       5.339  14.881  17.825  0.00  0.00    +0.000 C 
ATOM     26  C   UNL     1       5.117  14.894  19.295  0.00  0.00    +0.000 C 
ENDBRANCH  23  24
ENDBRANCH  15  19
BRANCH   1  27
ATOM     27  C   UNL     1      -5.926  13.481  22.567  0.00  0.00    +0.000 C 
ATOM     28  O   UNL     1      -6.224  14.463  23.234  0.00  0.00    +0.000 OA
BRANCH  27  30
ATOM     29  C   UNL     1      -7.727  12.244  23.413  0.00  0.00    +0.000 C 
ATOM     30  O   UNL     1      -6.489  12.253  22.698  0.00  0.00    +0.000 OA
ENDBRANCH  27  30
ENDBRANCH   1  27
BRANCH   3  31
ATOM     31  O   UNL     1      -4.083  11.266  18.496  0.00  0.00    +0.000 OA
BRANCH  31  32
ATOM     32  C   UNL     1      -4.530  11.526  17.239  0.00  0.00    +0.000 C 
ATOM     33  C   UNL     1      -3.734  10.796  16.192  0.00  0.00    +0.000 C 
ATOM     34  O   UNL     1      -5.475  12.256  16.975  0.00  0.00    +0.000 OA
ENDBRANCH  31  32
ENDBRANCH   3  31
TORSDOF 6
ENDMDL
MODEL 8
REMARK VINA RESULT:      -6.1      4.296      6.764
REMARK  Name = 
REMARK  10 active torsions:
REMARK  status: ('A' for Active; 'I' for Inactive)
REMARK    1  A    between atoms: C_1  and  O_2
REMARK    2  A    between atoms: O_2  and  C_3
REMARK    3  A    between atoms: C_3  and  C_5
REMARK    4  A    between atoms: C_7  and  O_8
REMARK    5  A    between atoms: O_8  and  C_9
REMARK    6  A    between atoms: C_9  and  C_10
REMARK    7  A    between atoms: C_15  and  C_16
REMARK    8  A    between atoms: C_23  and  C_24
REMARK    9  A    between atoms: C_28  and  C_29
REMARK   10  A    between atoms: C_33  and  C_34
REMARK                            x       y       z     vdW  Elec       q    Type
REMARK                         _______ _______ _______ _____ _____    ______ ____
ROOT
ATOM      1  C   UNL     1      -0.721  10.904  18.312  0.00  0.00    +0.000 C 
ATOM      2  C   UNL     1      -0.539   9.628  19.167  0.00  0.00    +0.000 C 
ATOM      3  C   UNL     1       0.752   9.640  19.988  0.00  0.00    +0.000 C 
ATOM      4  C   UNL     1       0.795  10.947  20.792  0.00  0.00    +0.000 C 
ATOM      5  O   UNL     1       0.928  10.970  22.011  0.00  0.00    +0.000 OA
ATOM      6  C   UNL     1       0.701  12.219  19.936  0.00  0.00    +0.000 C 
ATOM      7  C   UNL     1      -0.667  12.232  19.169  0.00  0.00    +0.000 C 
ATOM      8  C   UNL     1      -1.897  12.279  20.103  0.00  0.00    +0.000 C 
ATOM      9  C   UNL     1      -0.702  13.479  18.239  0.00  0.00    +0.000 C 
ATOM     10  C   UNL     1      -0.296  14.789  18.926  0.00  0.00    +0.000 C 
ATOM     11  C   UNL     1       1.102  14.677  19.552  0.00  0.00    +0.000 C 
ATOM     12  C   UNL     1       1.620  16.002  20.084  0.00  0.00    +0.000 C 
ATOM     13  O   UNL     1       1.107  17.075  19.803  0.00  0.00    +0.000 OA
ATOM     14  O   UNL     1       2.770  15.944  20.794  0.00  0.00    +0.000 OA
ATOM     15  C   UNL     1       3.281  14.763  21.477  0.00  0.00    +0.000 C 
ATOM     16  C   UNL     1       2.681  13.447  20.962  0.00  0.00    +0.000 C 
ATOM     17  C   UNL     1       1.175  13.559  20.615  0.00  0.00    +0.000 C 
ATOM     18  C   UNL     1       0.390  13.946  21.890  0.00  0.00    +0.000 C 
ENDROOT
BRANCH  15  19
ATOM     19  C   UNL     1       4.787  14.733  21.397  0.00  0.00    +0.000 A 
ATOM     20  C   UNL     1       5.651  14.358  22.474  0.00  0.00    +0.000 A 
ATOM     21  C   UNL     1       6.937  14.464  22.010  0.00  0.00    +0.000 A 
ATOM     22  O   UNL     1       6.937  14.876  20.720  0.00  0.00    +0.000 OA
ATOM     23  C   UNL     1       5.636  15.039  20.337  0.00  0.00    +0.000 A 
BRANCH  23  24
ATOM     24  C   UNL     1       5.250  15.477  18.927  0.00  0.00    +0.000 C 
ATOM     25  C   UNL     1       5.998  14.892  17.742  0.00  0.00    +0.000 C 
ATOM     26  C   UNL     1       4.613  14.433  18.026  0.00  0.00    +0.000 C 
ENDBRANCH  23  24
ENDBRANCH  15  19
BRANCH   1  27
ATOM     27  C   UNL     1      -1.957  10.815  17.414  0.00  0.00    +0.000 C 
ATOM     28  O   UNL     1      -2.085  11.467  16.386  0.00  0.00    +0.000 OA
BRANCH  27  30
ATOM     29  C   UNL     1      -4.236  10.475  17.841  0.00  0.00    +0.000 C 
ATOM     30  O   UNL     1      -2.898   9.980  17.925  0.00  0.00    +0.000 OA
ENDBRANCH  27  30
ENDBRANCH   1  27
BRANCH   3  31
ATOM     31  O   UNL     1       0.803   8.499  20.863  0.00  0.00    +0.000 OA
BRANCH  31  32
ATOM     32  C   UNL     1       1.514   7.440  20.395  0.00  0.00    +0.000 C 
ATOM     33  C   UNL     1       2.282   7.780  19.147  0.00  0.00    +0.000 C 
ATOM     34  O   UNL     1       1.545   6.336  20.921  0.00  0.00    +0.000 OA
ENDBRANCH  31  32
ENDBRANCH   3  31
TORSDOF 6
ENDMDL
MODEL 9
REMARK VINA RESULT:      -6.0      3.647      8.035
REMARK  Name = 
REMARK  10 active torsions:
REMARK  status: ('A' for Active; 'I' for Inactive)
REMARK    1  A    between atoms: C_1  and  O_2
REMARK    2  A    between atoms: O_2  and  C_3
REMARK    3  A    between atoms: C_3  and  C_5
REMARK    4  A    between atoms: C_7  and  O_8
REMARK    5  A    between atoms: O_8  and  C_9
REMARK    6  A    between atoms: C_9  and  C_10
REMARK    7  A    between atoms: C_15  and  C_16
REMARK    8  A    between atoms: C_23  and  C_24
REMARK    9  A    between atoms: C_28  and  C_29
REMARK   10  A    between atoms: C_33  and  C_34
REMARK                            x       y       z     vdW  Elec       q    Type
REMARK                         _______ _______ _______ _____ _____    ______ ____
ROOT
ATOM      1  C   UNL     1       2.646  15.755  18.925  0.00  0.00    +0.000 C 
ATOM      2  C   UNL     1       2.036  16.865  19.814  0.00  0.00    +0.000 C 
ATOM      3  C   UNL     1       0.514  16.766  19.933  0.00  0.00    +0.000 C 
ATOM      4  C   UNL     1       0.162  15.339  20.379  0.00  0.00    +0.000 C 
ATOM      5  O   UNL     1      -0.515  15.105  21.375  0.00  0.00    +0.000 OA
ATOM      6  C   UNL     1       0.693  14.237  19.451  0.00  0.00    +0.000 C 
ATOM      7  C   UNL     1       2.260  14.299  19.409  0.00  0.00    +0.000 C 
ATOM      8  C   UNL     1       2.923  14.031  20.779  0.00  0.00    +0.000 C 
ATOM      9  C   UNL     1       2.771  13.237  18.394  0.00  0.00    +0.000 C 
ATOM     10  C   UNL     1       2.152  11.846  18.571  0.00  0.00    +0.000 C 
ATOM     11  C   UNL     1       0.619  11.907  18.493  0.00  0.00    +0.000 C 
ATOM     12  C   UNL     1      -0.028  10.533  18.481  0.00  0.00    +0.000 C 
ATOM     13  O   UNL     1       0.602   9.506  18.281  0.00  0.00    +0.000 OA
ATOM     14  O   UNL     1      -1.378  10.516  18.581  0.00  0.00    +0.000 OA
ATOM     15  C   UNL     1      -2.195  11.579  19.151  0.00  0.00    +0.000 C 
ATOM     16  C   UNL     1      -1.483  12.936  19.214  0.00  0.00    +0.000 C 
ATOM     17  C   UNL     1       0.018  12.820  19.584  0.00  0.00    +0.000 C 
ATOM     18  C   UNL     1       0.144  12.177  20.985  0.00  0.00    +0.000 C 
ENDROOT
BRANCH  15  19
ATOM     19  C   UNL     1      -3.495  11.690  18.395  0.00  0.00    +0.000 A 
ATOM     20  C   UNL     1      -4.743  12.078  18.977  0.00  0.00    +0.000 A 
ATOM     21  C   UNL     1      -5.677  12.054  17.972  0.00  0.00    +0.000 A 
ATOM     22  O   UNL     1      -5.100  11.679  16.806  0.00  0.00    +0.000 OA
ATOM     23  C   UNL     1      -3.775  11.460  17.051  0.00  0.00    +0.000 A 
BRANCH  23  24
ATOM     24  C   UNL     1      -2.801  11.042  15.953  0.00  0.00    +0.000 C 
ATOM     25  C   UNL     1      -2.661   9.568  15.613  0.00  0.00    +0.000 C 
ATOM     26  C   UNL     1      -3.396  10.462  14.681  0.00  0.00    +0.000 C 
ENDBRANCH  23  24
ENDBRANCH  15  19
BRANCH   1  27
ATOM     27  C   UNL     1       4.151  15.946  18.728  0.00  0.00    +0.000 C 
ATOM     28  O   UNL     1       4.747  15.569  17.729  0.00  0.00    +0.000 OA
BRANCH  27  30
ATOM     29  C   UNL     1       5.834  17.385  19.495  0.00  0.00    +0.000 C 
ATOM     30  O   UNL     1       4.735  16.526  19.808  0.00  0.00    +0.000 OA
ENDBRANCH  27  30
ENDBRANCH   1  27
BRANCH   3  31
ATOM     31  O   UNL     1       0.018  17.734  20.874  0.00  0.00    +0.000 OA
BRANCH  31  32
ATOM     32  C   UNL     1      -1.148  18.337  20.526  0.00  0.00    +0.000 C 
ATOM     33  C   UNL     1      -1.221  18.620  19.050  0.00  0.00    +0.000 C 
ATOM     34  O   UNL     1      -2.047  18.616  21.307  0.00  0.00    +0.000 OA
ENDBRANCH  31  32
ENDBRANCH   3  31
TORSDOF 6
ENDMDL
