MODEL 1
REMARK VINA RESULT:      -8.0      0.000      0.000
REMARK  Name = 
REMARK  6 active torsions:
REMARK  status: ('A' for Active; 'I' for Inactive)
REMARK    1  A    between atoms: C_1  and  C_2
REMARK    2  A    between atoms: N_4  and  C_5
REMARK    3  A    between atoms: C_9  and  N_10
REMARK    4  A    between atoms: C_11  and  S_12
REMARK    5  A    between atoms: N_13  and  C_14
REMARK    6  A    between atoms: C_20  and  C_21
REMARK                            x       y       z     vdW  Elec       q    Type
REMARK                         _______ _______ _______ _____ _____    ______ ____
ROOT
ATOM      1  N   UNL     1       3.811   4.322  19.375  0.00  0.00    +0.000 N 
ATOM      2  C   UNL     1       2.866   5.267  19.691  0.00  0.00    +0.000 C 
ATOM      3  N   UNL     1       3.032   6.553  19.677  0.00  0.00    +0.000 NA
ATOM      4  H   UNL     1       3.443   3.379  19.409  0.00  0.00    +0.000 HD
ENDROOT
BRANCH   3   5
ATOM      5  C   UNL     1       2.043   7.519  19.949  0.00  0.00    +0.000 A 
ATOM      6  C   UNL     1       1.414   7.599  21.202  0.00  0.00    +0.000 A 
ATOM      7  C   UNL     1       0.443   8.561  21.469  0.00  0.00    +0.000 A 
ATOM      8  C   UNL     1       0.151   9.524  20.516  0.00  0.00    +0.000 A 
ATOM      9  C   UNL     1       0.831   9.527  19.293  0.00  0.00    +0.000 A 
ATOM     10 CL   UNL     1       0.492  10.843  18.224  0.00  0.00    +0.000 Cl
ATOM     11  C   UNL     1       1.769   8.521  18.984  0.00  0.00    +0.000 A 
ATOM     12  C   UNL     1       2.551   8.538  17.694  0.00  0.00    +0.000 C 
ENDBRANCH   3   5
BRANCH   1  17
ATOM     13  C   UNL     1       6.097   4.114  16.398  0.00  0.00    +0.000 A 
ATOM     14  C   UNL     1       7.243   4.688  16.946  0.00  0.00    +0.000 A 
ATOM     15  C   UNL     1       7.234   5.166  18.255  0.00  0.00    +0.000 A 
ATOM     16  C   UNL     1       6.080   5.051  19.028  0.00  0.00    +0.000 A 
ATOM     17  C   UNL     1       4.921   4.449  18.519  0.00  0.00    +0.000 A 
ATOM     18  C   UNL     1       4.935   4.022  17.184  0.00  0.00    +0.000 A 
BRANCH  13  22
ATOM     19  C   UNL     1       6.204   3.497  12.678  0.00  0.00    +0.000 C 
ATOM     20  C   UNL     1       6.551   4.236  13.946  0.00  0.00    +0.000 C 
ATOM     21  O   UNL     1       7.221   5.263  13.906  0.00  0.00    +0.000 OA
ATOM     22  N   UNL     1       6.035   3.624  15.075  0.00  0.00    +0.000 N 
ATOM     23  H   UNL     1       5.635   2.701  14.959  0.00  0.00    +0.000 HD
ENDBRANCH  13  22
ENDBRANCH   1  17
BRANCH   2  24
ATOM     24  S   UNL     1       1.362   4.441  20.119  0.00  0.00    +0.000 S 
ATOM     25  H   UNL     1       1.454   3.506  19.164  0.00  0.00    +0.000 HD
ENDBRANCH   2  24
TORSDOF 4
ENDMDL
MODEL 2
REMARK VINA RESULT:      -7.5      1.997      2.810
REMARK  Name = 
REMARK  6 active torsions:
REMARK  status: ('A' for Active; 'I' for Inactive)
REMARK    1  A    between atoms: C_1  and  C_2
REMARK    2  A    between atoms: N_4  and  C_5
REMARK    3  A    between atoms: C_9  and  N_10
REMARK    4  A    between atoms: C_11  and  S_12
REMARK    5  A    between atoms: N_13  and  C_14
REMARK    6  A    between atoms: C_20  and  C_21
REMARK                            x       y       z     vdW  Elec       q    Type
REMARK                         _______ _______ _______ _____ _____    ______ ____
ROOT
ATOM      1  N   UNL     1       3.405   4.755  19.046  0.00  0.00    +0.000 N 
ATOM      2  C   UNL     1       2.495   5.650  19.552  0.00  0.00    +0.000 C 
ATOM      3  N   UNL     1       2.631   6.939  19.598  0.00  0.00    +0.000 NA
ATOM      4  H   UNL     1       3.066   3.800  19.070  0.00  0.00    +0.000 HD
ENDROOT
BRANCH   3   5
ATOM      5  C   UNL     1       1.671   7.856  20.068  0.00  0.00    +0.000 A 
ATOM      6  C   UNL     1       1.231   7.846  21.402  0.00  0.00    +0.000 A 
ATOM      7  C   UNL     1       0.288   8.761  21.864  0.00  0.00    +0.000 A 
ATOM      8  C   UNL     1      -0.162   9.766  21.023  0.00  0.00    +0.000 A 
ATOM      9  C   UNL     1       0.331   9.859  19.717  0.00  0.00    +0.000 A 
ATOM     10 CL   UNL     1      -0.192  11.222  18.789  0.00  0.00    +0.000 Cl
ATOM     11  C   UNL     1       1.235   8.902  19.215  0.00  0.00    +0.000 A 
ATOM     12  C   UNL     1       1.819   9.016  17.829  0.00  0.00    +0.000 C 
ENDBRANCH   3   5
BRANCH   1  17
ATOM     13  C   UNL     1       6.117   6.282  16.937  0.00  0.00    +0.000 A 
ATOM     14  C   UNL     1       6.225   5.301  15.953  0.00  0.00    +0.000 A 
ATOM     15  C   UNL     1       5.444   4.148  16.020  0.00  0.00    +0.000 A 
ATOM     16  C   UNL     1       4.536   3.984  17.064  0.00  0.00    +0.000 A 
ATOM     17  C   UNL     1       4.379   4.967  18.052  0.00  0.00    +0.000 A 
ATOM     18  C   UNL     1       5.209   6.094  17.994  0.00  0.00    +0.000 A 
BRANCH  13  22
ATOM     19  C   UNL     1       8.410   9.197  17.625  0.00  0.00    +0.000 C 
ATOM     20  C   UNL     1       7.867   7.810  17.854  0.00  0.00    +0.000 C 
ATOM     21  O   UNL     1       8.290   7.118  18.774  0.00  0.00    +0.000 OA
ATOM     22  N   UNL     1       6.889   7.465  16.937  0.00  0.00    +0.000 N 
ATOM     23  H   UNL     1       6.759   8.083  16.145  0.00  0.00    +0.000 HD
ENDBRANCH  13  22
ENDBRANCH   1  17
BRANCH   2  24
ATOM     24  S   UNL     1       1.085   4.754  20.133  0.00  0.00    +0.000 S 
ATOM     25  H   UNL     1       1.035   5.357  21.329  0.00  0.00    +0.000 HD
ENDBRANCH   2  24
TORSDOF 4
ENDMDL
MODEL 3
REMARK VINA RESULT:      -7.0      1.007      1.019
REMARK  Name = 
REMARK  6 active torsions:
REMARK  status: ('A' for Active; 'I' for Inactive)
REMARK    1  A    between atoms: C_1  and  C_2
REMARK    2  A    between atoms: N_4  and  C_5
REMARK    3  A    between atoms: C_9  and  N_10
REMARK    4  A    between atoms: C_11  and  S_12
REMARK    5  A    between atoms: N_13  and  C_14
REMARK    6  A    between atoms: C_20  and  C_21
REMARK                            x       y       z     vdW  Elec       q    Type
REMARK                         _______ _______ _______ _____ _____    ______ ____
ROOT
ATOM      1  N   UNL     1       3.875   4.839  19.140  0.00  0.00    +0.000 N 
ATOM      2  C   UNL     1       2.831   5.670  19.463  0.00  0.00    +0.000 C 
ATOM      3  N   UNL     1       2.917   6.928  19.767  0.00  0.00    +0.000 NA
ATOM      4  H   UNL     1       3.567   3.906  18.890  0.00  0.00    +0.000 HD
ENDROOT
BRANCH   3   5
ATOM      5  C   UNL     1       1.838   7.789  20.044  0.00  0.00    +0.000 A 
ATOM      6  C   UNL     1       1.202   7.796  21.297  0.00  0.00    +0.000 A 
ATOM      7  C   UNL     1       0.140   8.655  21.569  0.00  0.00    +0.000 A 
ATOM      8  C   UNL     1      -0.244   9.592  20.623  0.00  0.00    +0.000 A 
ATOM      9  C   UNL     1       0.434   9.672  19.401  0.00  0.00    +0.000 A 
ATOM     10 CL   UNL     1      -0.033  10.956  18.342  0.00  0.00    +0.000 Cl
ATOM     11  C   UNL     1       1.466   8.766  19.086  0.00  0.00    +0.000 A 
ATOM     12  C   UNL     1       2.245   8.871  17.798  0.00  0.00    +0.000 C 
ENDBRANCH   3   5
BRANCH   1  17
ATOM     13  C   UNL     1       6.627   5.556  16.680  0.00  0.00    +0.000 A 
ATOM     14  C   UNL     1       7.678   5.779  17.567  0.00  0.00    +0.000 A 
ATOM     15  C   UNL     1       7.460   5.731  18.943  0.00  0.00    +0.000 A 
ATOM     16  C   UNL     1       6.190   5.439  19.435  0.00  0.00    +0.000 A 
ATOM     17  C   UNL     1       5.117   5.178  18.570  0.00  0.00    +0.000 A 
ATOM     18  C   UNL     1       5.346   5.281  17.191  0.00  0.00    +0.000 A 
BRANCH  13  22
ATOM     19  C   UNL     1       6.984   4.924  12.978  0.00  0.00    +0.000 C 
ATOM     20  C   UNL     1       6.641   4.545  14.396  0.00  0.00    +0.000 C 
ATOM     21  O   UNL     1       6.290   3.402  14.669  0.00  0.00    +0.000 OA
ATOM     22  N   UNL     1       6.776   5.605  15.276  0.00  0.00    +0.000 N 
ATOM     23  H   UNL     1       6.925   6.523  14.875  0.00  0.00    +0.000 HD
ENDBRANCH  13  22
ENDBRANCH   1  17
BRANCH   2  24
ATOM     24  S   UNL     1       1.328   4.742  19.391  0.00  0.00    +0.000 S 
ATOM     25  H   UNL     1       0.518   5.799  19.543  0.00  0.00    +0.000 HD
ENDBRANCH   2  24
TORSDOF 4
ENDMDL
MODEL 4
REMARK VINA RESULT:      -6.9      3.387      4.712
REMARK  Name = 
REMARK  6 active torsions:
REMARK  status: ('A' for Active; 'I' for Inactive)
REMARK    1  A    between atoms: C_1  and  C_2
REMARK    2  A    between atoms: N_4  and  C_5
REMARK    3  A    between atoms: C_9  and  N_10
REMARK    4  A    between atoms: C_11  and  S_12
REMARK    5  A    between atoms: N_13  and  C_14
REMARK    6  A    between atoms: C_20  and  C_21
REMARK                            x       y       z     vdW  Elec       q    Type
REMARK                         _______ _______ _______ _____ _____    ______ ____
ROOT
ATOM      1  N   UNL     1       1.595   8.048  20.827  0.00  0.00    +0.000 N 
ATOM      2  C   UNL     1       0.562   8.951  20.796  0.00  0.00    +0.000 C 
ATOM      3  N   UNL     1       0.270   9.750  19.817  0.00  0.00    +0.000 NA
ATOM      4  H   UNL     1       1.603   7.495  21.676  0.00  0.00    +0.000 HD
ENDROOT
BRANCH   3   5
ATOM      5  C   UNL     1      -0.824  10.636  19.768  0.00  0.00    +0.000 A 
ATOM      6  C   UNL     1      -1.011  11.633  20.740  0.00  0.00    +0.000 A 
ATOM      7  C   UNL     1      -2.089  12.512  20.683  0.00  0.00    +0.000 A 
ATOM      8  C   UNL     1      -2.951  12.471  19.599  0.00  0.00    +0.000 A 
ATOM      9  C   UNL     1      -2.735  11.551  18.568  0.00  0.00    +0.000 A 
ATOM     10 CL   UNL     1      -3.785  11.665  17.198  0.00  0.00    +0.000 Cl
ATOM     11  C   UNL     1      -1.686  10.612  18.643  0.00  0.00    +0.000 A 
ATOM     12  C   UNL     1      -1.404   9.649  17.517  0.00  0.00    +0.000 C 
ENDBRANCH   3   5
BRANCH   1  17
ATOM     13  C   UNL     1       3.217   5.460  18.633  0.00  0.00    +0.000 A 
ATOM     14  C   UNL     1       3.565   6.263  17.548  0.00  0.00    +0.000 A 
ATOM     15  C   UNL     1       3.229   7.615  17.536  0.00  0.00    +0.000 A 
ATOM     16  C   UNL     1       2.560   8.174  18.623  0.00  0.00    +0.000 A 
ATOM     17  C   UNL     1       2.224   7.403  19.745  0.00  0.00    +0.000 A 
ATOM     18  C   UNL     1       2.526   6.034  19.715  0.00  0.00    +0.000 A 
BRANCH  13  22
ATOM     19  C   UNL     1       3.348   1.695  18.438  0.00  0.00    +0.000 C 
ATOM     20  C   UNL     1       2.843   3.061  18.049  0.00  0.00    +0.000 C 
ATOM     21  O   UNL     1       1.930   3.182  17.238  0.00  0.00    +0.000 OA
ATOM     22  N   UNL     1       3.513   4.081  18.702  0.00  0.00    +0.000 N 
ATOM     23  H   UNL     1       4.344   3.828  19.224  0.00  0.00    +0.000 HD
ENDBRANCH  13  22
ENDBRANCH   1  17
BRANCH   2  24
ATOM     24  S   UNL     1      -0.326   8.846  22.321  0.00  0.00    +0.000 S 
ATOM     25  H   UNL     1       0.763   8.786  23.099  0.00  0.00    +0.000 HD
ENDBRANCH   2  24
TORSDOF 4
ENDMDL
MODEL 5
REMARK VINA RESULT:      -6.8      1.335      1.537
REMARK  Name = 
REMARK  6 active torsions:
REMARK  status: ('A' for Active; 'I' for Inactive)
REMARK    1  A    between atoms: C_1  and  C_2
REMARK    2  A    between atoms: N_4  and  C_5
REMARK    3  A    between atoms: C_9  and  N_10
REMARK    4  A    between atoms: C_11  and  S_12
REMARK    5  A    between atoms: N_13  and  C_14
REMARK    6  A    between atoms: C_20  and  C_21
REMARK                            x       y       z     vdW  Elec       q    Type
REMARK                         _______ _______ _______ _____ _____    ______ ____
ROOT
ATOM      1  N   UNL     1       3.912   4.023  17.759  0.00  0.00    +0.000 N 
ATOM      2  C   UNL     1       3.064   4.866  18.433  0.00  0.00    +0.000 C 
ATOM      3  N   UNL     1       3.309   6.095  18.768  0.00  0.00    +0.000 NA
ATOM      4  H   UNL     1       3.491   3.123  17.563  0.00  0.00    +0.000 HD
ENDROOT
BRANCH   3   5
ATOM      5  C   UNL     1       2.415   6.973  19.411  0.00  0.00    +0.000 A 
ATOM      6  C   UNL     1       1.956   6.733  20.717  0.00  0.00    +0.000 A 
ATOM      7  C   UNL     1       1.078   7.608  21.352  0.00  0.00    +0.000 A 
ATOM      8  C   UNL     1       0.718   8.792  20.727  0.00  0.00    +0.000 A 
ATOM      9  C   UNL     1       1.236   9.103  19.465  0.00  0.00    +0.000 A 
ATOM     10 CL   UNL     1       0.832  10.659  18.827  0.00  0.00    +0.000 Cl
ATOM     11  C   UNL     1       2.072   8.197  18.783  0.00  0.00    +0.000 A 
ATOM     12  C   UNL     1       2.684   8.538  17.447  0.00  0.00    +0.000 C 
ENDBRANCH   3   5
BRANCH   1  17
ATOM     13  C   UNL     1       6.268   4.012  14.829  0.00  0.00    +0.000 A 
ATOM     14  C   UNL     1       7.089   5.079  15.188  0.00  0.00    +0.000 A 
ATOM     15  C   UNL     1       6.834   5.802  16.352  0.00  0.00    +0.000 A 
ATOM     16  C   UNL     1       5.766   5.445  17.172  0.00  0.00    +0.000 A 
ATOM     17  C   UNL     1       4.940   4.356  16.856  0.00  0.00    +0.000 A 
ATOM     18  C   UNL     1       5.182   3.674  15.656  0.00  0.00    +0.000 A 
BRANCH  13  22
ATOM     19  C   UNL     1       6.080   2.215  11.517  0.00  0.00    +0.000 C 
ATOM     20  C   UNL     1       5.643   3.233  12.539  0.00  0.00    +0.000 C 
ATOM     21  O   UNL     1       4.658   3.935  12.339  0.00  0.00    +0.000 OA
ATOM     22  N   UNL     1       6.461   3.248  13.656  0.00  0.00    +0.000 N 
ATOM     23  H   UNL     1       7.323   2.717  13.606  0.00  0.00    +0.000 HD
ENDBRANCH  13  22
ENDBRANCH   1  17
BRANCH   2  24
ATOM     24  S   UNL     1       1.559   4.002  18.772  0.00  0.00    +0.000 S 
ATOM     25  H   UNL     1       2.145   2.955  19.370  0.00  0.00    +0.000 HD
ENDBRANCH   2  24
TORSDOF 4
ENDMDL
MODEL 6
REMARK VINA RESULT:      -6.8      2.706      4.201
REMARK  Name = 
REMARK  6 active torsions:
REMARK  status: ('A' for Active; 'I' for Inactive)
REMARK    1  A    between atoms: C_1  and  C_2
REMARK    2  A    between atoms: N_4  and  C_5
REMARK    3  A    between atoms: C_9  and  N_10
REMARK    4  A    between atoms: C_11  and  S_12
REMARK    5  A    between atoms: N_13  and  C_14
REMARK    6  A    between atoms: C_20  and  C_21
REMARK                            x       y       z     vdW  Elec       q    Type
REMARK                         _______ _______ _______ _____ _____    ______ ____
ROOT
ATOM      1  N   UNL     1       1.847   7.744  20.914  0.00  0.00    +0.000 N 
ATOM      2  C   UNL     1       1.046   8.789  20.528  0.00  0.00    +0.000 C 
ATOM      3  N   UNL     1       0.827   9.179  19.310  0.00  0.00    +0.000 NA
ATOM      4  H   UNL     1       1.831   7.591  21.916  0.00  0.00    +0.000 HD
ENDROOT
BRANCH   3   5
ATOM      5  C   UNL     1      -0.039  10.217  18.915  0.00  0.00    +0.000 A 
ATOM      6  C   UNL     1      -1.409   9.993  18.698  0.00  0.00    +0.000 A 
ATOM      7  C   UNL     1      -2.264  11.025  18.317  0.00  0.00    +0.000 A 
ATOM      8  C   UNL     1      -1.781  12.321  18.237  0.00  0.00    +0.000 A 
ATOM      9  C   UNL     1      -0.442  12.589  18.540  0.00  0.00    +0.000 A 
ATOM     10 CL   UNL     1       0.033  14.253  18.539  0.00  0.00    +0.000 Cl
ATOM     11  C   UNL     1       0.450  11.546  18.864  0.00  0.00    +0.000 A 
ATOM     12  C   UNL     1       1.883  11.822  19.247  0.00  0.00    +0.000 C 
ENDBRANCH   3   5
BRANCH   1  17
ATOM     13  C   UNL     1       3.451   5.361  18.489  0.00  0.00    +0.000 A 
ATOM     14  C   UNL     1       2.690   4.222  18.746  0.00  0.00    +0.000 A 
ATOM     15  C   UNL     1       1.702   4.243  19.729  0.00  0.00    +0.000 A 
ATOM     16  C   UNL     1       1.459   5.413  20.445  0.00  0.00    +0.000 A 
ATOM     17  C   UNL     1       2.184   6.586  20.188  0.00  0.00    +0.000 A 
ATOM     18  C   UNL     1       3.207   6.530  19.232  0.00  0.00    +0.000 A 
BRANCH  13  22
ATOM     19  C   UNL     1       6.639   5.246  16.475  0.00  0.00    +0.000 C 
ATOM     20  C   UNL     1       5.772   4.937  17.669  0.00  0.00    +0.000 C 
ATOM     21  O   UNL     1       6.231   4.338  18.635  0.00  0.00    +0.000 OA
ATOM     22  N   UNL     1       4.477   5.403  17.519  0.00  0.00    +0.000 N 
ATOM     23  H   UNL     1       4.210   5.741  16.602  0.00  0.00    +0.000 HD
ENDBRANCH  13  22
ENDBRANCH   1  17
BRANCH   2  24
ATOM     24  S   UNL     1       0.342   9.527  21.973  0.00  0.00    +0.000 S 
ATOM     25  H   UNL     1       0.211  10.750  21.441  0.00  0.00    +0.000 HD
ENDBRANCH   2  24
TORSDOF 4
ENDMDL
MODEL 7
REMARK VINA RESULT:      -6.8      3.370      5.112
REMARK  Name = 
REMARK  6 active torsions:
REMARK  status: ('A' for Active; 'I' for Inactive)
REMARK    1  A    between atoms: C_1  and  C_2
REMARK    2  A    between atoms: N_4  and  C_5
REMARK    3  A    between atoms: C_9  and  N_10
REMARK    4  A    between atoms: C_11  and  S_12
REMARK    5  A    between atoms: N_13  and  C_14
REMARK    6  A    between atoms: C_20  and  C_21
REMARK                            x       y       z     vdW  Elec       q    Type
REMARK                         _______ _______ _______ _____ _____    ______ ____
ROOT
ATOM      1  N   UNL     1       6.477   5.113  15.853  0.00  0.00    +0.000 N 
ATOM      2  C   UNL     1       5.615   4.615  16.798  0.00  0.00    +0.000 C 
ATOM      3  N   UNL     1       4.430   4.134  16.579  0.00  0.00    +0.000 NA
ATOM      4  H   UNL     1       7.368   5.391  16.247  0.00  0.00    +0.000 HD
ENDROOT
BRANCH   3   5
ATOM      5  C   UNL     1       3.572   3.574  17.545  0.00  0.00    +0.000 A 
ATOM      6  C   UNL     1       3.618   2.208  17.871  0.00  0.00    +0.000 A 
ATOM      7  C   UNL     1       2.773   1.660  18.833  0.00  0.00    +0.000 A 
ATOM      8  C   UNL     1       1.930   2.488  19.557  0.00  0.00    +0.000 A 
ATOM      9  C   UNL     1       1.931   3.867  19.320  0.00  0.00    +0.000 A 
ATOM     10 CL   UNL     1       0.943   4.831  20.363  0.00  0.00    +0.000 Cl
ATOM     11  C   UNL     1       2.733   4.427  18.305  0.00  0.00    +0.000 A 
ATOM     12  C   UNL     1       2.789   5.916  18.072  0.00  0.00    +0.000 C 
ENDBRANCH   3   5
BRANCH   1  17
ATOM     13  C   UNL     1       5.775   3.670  12.453  0.00  0.00    +0.000 A 
ATOM     14  C   UNL     1       6.900   4.129  11.770  0.00  0.00    +0.000 A 
ATOM     15  C   UNL     1       7.838   4.930  12.418  0.00  0.00    +0.000 A 
ATOM     16  C   UNL     1       7.663   5.257  13.761  0.00  0.00    +0.000 A 
ATOM     17  C   UNL     1       6.560   4.784  14.487  0.00  0.00    +0.000 A 
ATOM     18  C   UNL     1       5.602   4.023  13.803  0.00  0.00    +0.000 A 
BRANCH  13  22
ATOM     19  C   UNL     1       2.830   2.199  10.611  0.00  0.00    +0.000 C 
ATOM     20  C   UNL     1       3.804   3.293  10.967  0.00  0.00    +0.000 C 
ATOM     21  O   UNL     1       3.683   4.416  10.488  0.00  0.00    +0.000 OA
ATOM     22  N   UNL     1       4.779   2.868  11.852  0.00  0.00    +0.000 N 
ATOM     23  H   UNL     1       4.836   1.873  12.036  0.00  0.00    +0.000 HD
ENDBRANCH  13  22
ENDBRANCH   1  17
BRANCH   2  24
ATOM     24  S   UNL     1       6.388   4.730  18.384  0.00  0.00    +0.000 S 
ATOM     25  H   UNL     1       7.597   5.064  17.913  0.00  0.00    +0.000 HD
ENDBRANCH   2  24
TORSDOF 4
ENDMDL
MODEL 8
REMARK VINA RESULT:      -6.8      1.063      1.736
REMARK  Name = 
REMARK  6 active torsions:
REMARK  status: ('A' for Active; 'I' for Inactive)
REMARK    1  A    between atoms: C_1  and  C_2
REMARK    2  A    between atoms: N_4  and  C_5
REMARK    3  A    between atoms: C_9  and  N_10
REMARK    4  A    between atoms: C_11  and  S_12
REMARK    5  A    between atoms: N_13  and  C_14
REMARK    6  A    between atoms: C_20  and  C_21
REMARK                            x       y       z     vdW  Elec       q    Type
REMARK                         _______ _______ _______ _____ _____    ______ ____
ROOT
ATOM      1  N   UNL     1       3.794   5.017  19.519  0.00  0.00    +0.000 N 
ATOM      2  C   UNL     1       2.824   5.989  19.509  0.00  0.00    +0.000 C 
ATOM      3  N   UNL     1       2.981   7.226  19.150  0.00  0.00    +0.000 NA
ATOM      4  H   UNL     1       3.433   4.110  19.791  0.00  0.00    +0.000 HD
ENDROOT
BRANCH   3   5
ATOM      5  C   UNL     1       1.971   8.205  19.089  0.00  0.00    +0.000 A 
ATOM      6  C   UNL     1       1.408   8.610  17.867  0.00  0.00    +0.000 A 
ATOM      7  C   UNL     1       0.403   9.572  17.811  0.00  0.00    +0.000 A 
ATOM      8  C   UNL     1      -0.126  10.080  18.988  0.00  0.00    +0.000 A 
ATOM      9  C   UNL     1       0.349   9.625  20.222  0.00  0.00    +0.000 A 
ATOM     10 CL   UNL     1      -0.463  10.220  21.629  0.00  0.00    +0.000 Cl
ATOM     11  C   UNL     1       1.411   8.700  20.293  0.00  0.00    +0.000 A 
ATOM     12  C   UNL     1       1.899   8.157  21.613  0.00  0.00    +0.000 C 
ENDBRANCH   3   5
BRANCH   1  17
ATOM     13  C   UNL     1       6.170   4.331  16.688  0.00  0.00    +0.000 A 
ATOM     14  C   UNL     1       7.364   4.733  17.285  0.00  0.00    +0.000 A 
ATOM     15  C   UNL     1       7.363   5.254  18.577  0.00  0.00    +0.000 A 
ATOM     16  C   UNL     1       6.168   5.357  19.285  0.00  0.00    +0.000 A 
ATOM     17  C   UNL     1       4.954   4.932  18.726  0.00  0.00    +0.000 A 
ATOM     18  C   UNL     1       4.968   4.457  17.407  0.00  0.00    +0.000 A 
BRANCH  13  22
ATOM     19  C   UNL     1       6.217   3.635  12.980  0.00  0.00    +0.000 C 
ATOM     20  C   UNL     1       6.560   4.417  14.222  0.00  0.00    +0.000 C 
ATOM     21  O   UNL     1       7.181   5.472  14.143  0.00  0.00    +0.000 OA
ATOM     22  N   UNL     1       6.098   3.809  15.377  0.00  0.00    +0.000 N 
ATOM     23  H   UNL     1       5.739   2.866  15.291  0.00  0.00    +0.000 HD
ENDBRANCH  13  22
ENDBRANCH   1  17
BRANCH   2  24
ATOM     24  S   UNL     1       1.304   5.276  20.061  0.00  0.00    +0.000 S 
ATOM     25  H   UNL     1       0.515   6.188  19.476  0.00  0.00    +0.000 HD
ENDBRANCH   2  24
TORSDOF 4
ENDMDL
MODEL 9
REMARK VINA RESULT:      -6.7      2.475      3.632
REMARK  Name = 
REMARK  6 active torsions:
REMARK  status: ('A' for Active; 'I' for Inactive)
REMARK    1  A    between atoms: C_1  and  C_2
REMARK    2  A    between atoms: N_4  and  C_5
REMARK    3  A    between atoms: C_9  and  N_10
REMARK    4  A    between atoms: C_11  and  S_12
REMARK    5  A    between atoms: N_13  and  C_14
REMARK    6  A    between atoms: C_20  and  C_21
REMARK                            x       y       z     vdW  Elec       q    Type
REMARK                         _______ _______ _______ _____ _____    ______ ____
ROOT
ATOM      1  N   UNL     1       2.359   7.396  20.146  0.00  0.00    +0.000 N 
ATOM      2  C   UNL     1       1.521   8.472  19.990  0.00  0.00    +0.000 C 
ATOM      3  N   UNL     1       1.157   9.005  18.865  0.00  0.00    +0.000 NA
ATOM      4  H   UNL     1       2.464   7.122  21.116  0.00  0.00    +0.000 HD
ENDROOT
BRANCH   3   5
ATOM      5  C   UNL     1       0.253  10.074  18.709  0.00  0.00    +0.000 A 
ATOM      6  C   UNL     1      -1.137   9.879  18.764  0.00  0.00    +0.000 A 
ATOM      7  C   UNL     1      -2.027  10.940  18.617  0.00  0.00    +0.000 A 
ATOM      8  C   UNL     1      -1.541  12.234  18.508  0.00  0.00    +0.000 A 
ATOM      9  C   UNL     1      -0.162  12.468  18.546  0.00  0.00    +0.000 A 
ATOM     10 CL   UNL     1       0.341  14.123  18.534  0.00  0.00    +0.000 Cl
ATOM     11  C   UNL     1       0.752  11.398  18.628  0.00  0.00    +0.000 A 
ATOM     12  C   UNL     1       2.239  11.634  18.725  0.00  0.00    +0.000 C 
ENDBRANCH   3   5
BRANCH   1  17
ATOM     13  C   UNL     1       3.982   5.094  17.656  0.00  0.00    +0.000 A 
ATOM     14  C   UNL     1       2.915   4.234  17.407  0.00  0.00    +0.000 A 
ATOM     15  C   UNL     1       1.707   4.396  18.083  0.00  0.00    +0.000 A 
ATOM     16  C   UNL     1       1.558   5.436  18.998  0.00  0.00    +0.000 A 
ATOM     17  C   UNL     1       2.601   6.340  19.247  0.00  0.00    +0.000 A 
ATOM     18  C   UNL     1       3.823   6.128  18.595  0.00  0.00    +0.000 A 
BRANCH  13  22
ATOM     19  C   UNL     1       7.026   5.249  15.432  0.00  0.00    +0.000 C 
ATOM     20  C   UNL     1       5.684   5.715  15.937  0.00  0.00    +0.000 C 
ATOM     21  O   UNL     1       5.107   6.654  15.398  0.00  0.00    +0.000 OA
ATOM     22  N   UNL     1       5.236   4.975  17.018  0.00  0.00    +0.000 N 
ATOM     23  H   UNL     1       5.895   4.334  17.443  0.00  0.00    +0.000 HD
ENDBRANCH  13  22
ENDBRANCH   1  17
BRANCH   2  24
ATOM     24  S   UNL     1       1.001   9.019  21.590  0.00  0.00    +0.000 S 
ATOM     25  H   UNL     1       1.626   8.047  22.267  0.00  0.00    +0.000 HD
ENDBRANCH   2  24
TORSDOF 4
ENDMDL
