MODEL 1
REMARK VINA RESULT:      -7.5      0.000      0.000
REMARK  Name = 
REMARK  8 active torsions:
REMARK  status: ('A' for Active; 'I' for Inactive)
REMARK    1  A    between atoms: C_1  and  C_2
REMARK    2  A    between atoms: C_2  and  C_3
REMARK    3  A    between atoms: C_2  and  O_15
REMARK    4  A    between atoms: C_3  and  N_4
REMARK    5  A    between atoms: O_15  and  C_16
REMARK    6  A    between atoms: C_16  and  P_17
REMARK    7  A    between atoms: P_17  and  O_19
REMARK    8  A    between atoms: P_17  and  O_20
REMARK                            x       y       z     vdW  Elec       q    Type
REMARK                         _______ _______ _______ _____ _____    ______ ____
ROOT
ATOM      1  N   UNL     1       3.962   4.293  17.444  0.00  0.00    +0.000 N 
ATOM      2  N   UNL     1       3.731   2.971  17.285  0.00  0.00    +0.000 NA
ATOM      3  N   UNL     1       2.808   2.624  18.180  0.00  0.00    +0.000 NA
ATOM      4  C   UNL     1       2.465   3.744  18.890  0.00  0.00    +0.000 A 
ATOM      5  C   UNL     1       1.562   3.999  19.924  0.00  0.00    +0.000 A 
ATOM      6  N   UNL     1       0.734   3.024  20.470  0.00  0.00    +0.000 N 
ATOM      7  N   UNL     1       1.500   5.257  20.425  0.00  0.00    +0.000 NA
ATOM      8  C   UNL     1       2.289   6.218  19.909  0.00  0.00    +0.000 A 
ATOM      9  N   UNL     1       2.185   7.474  20.474  0.00  0.00    +0.000 N 
ATOM     10  N   UNL     1       3.156   6.086  18.891  0.00  0.00    +0.000 NA
ATOM     11  C   UNL     1       3.199   4.823  18.442  0.00  0.00    +0.000 A 
ATOM     12  H   UNL     1       1.043   2.079  20.324  0.00  0.00    +0.000 HD
ATOM     13  H   UNL     1       0.400   3.273  21.395  0.00  0.00    +0.000 HD
ATOM     14  H   UNL     1       1.300   7.576  20.950  0.00  0.00    +0.000 HD
ATOM     15  H   UNL     1       2.443   8.192  19.816  0.00  0.00    +0.000 HD
ENDROOT
BRANCH   1  16
ATOM     16  C   UNL     1       4.841   5.003  16.561  0.00  0.00    +0.000 C 
BRANCH  16  18
ATOM     17  C   UNL     1       6.031   4.038  14.541  0.00  0.00    +0.000 C 
ATOM     18  C   UNL     1       6.036   4.177  16.062  0.00  0.00    +0.000 C 
BRANCH  18  19
ATOM     19  O   UNL     1       7.286   4.815  16.429  0.00  0.00    +0.000 OA
BRANCH  19  20
ATOM     20  C   UNL     1       7.034   5.986  17.216  0.00  0.00    +0.000 C 
BRANCH  20  21
ATOM     21  P   UNL     1       7.511   5.717  18.962  0.00  0.00    +0.000 P 
ATOM     22  O   UNL     1       8.376   4.520  18.561  0.00  0.00    +0.000 OA
BRANCH  21  23
ATOM     23  O   UNL     1       8.468   7.047  18.916  0.00  0.00    +0.000 OA
ATOM     24  H   UNL     1       8.940   7.179  19.766  0.00  0.00    +0.000 HD
ENDBRANCH  21  23
BRANCH  21  25
ATOM     25  O   UNL     1       7.961   5.461  20.612  0.00  0.00    +0.000 OA
ATOM     26  H   UNL     1       7.706   4.528  20.772  0.00  0.00    +0.000 HD
ENDBRANCH  21  25
ENDBRANCH  20  21
ENDBRANCH  19  20
ENDBRANCH  18  19
ENDBRANCH  16  18
ENDBRANCH   1  16
TORSDOF 7
ENDMDL
MODEL 2
REMARK VINA RESULT:      -7.5      0.990      1.044
REMARK  Name = 
REMARK  8 active torsions:
REMARK  status: ('A' for Active; 'I' for Inactive)
REMARK    1  A    between atoms: C_1  and  C_2
REMARK    2  A    between atoms: C_2  and  C_3
REMARK    3  A    between atoms: C_2  and  O_15
REMARK    4  A    between atoms: C_3  and  N_4
REMARK    5  A    between atoms: O_15  and  C_16
REMARK    6  A    between atoms: C_16  and  P_17
REMARK    7  A    between atoms: P_17  and  O_19
REMARK    8  A    between atoms: P_17  and  O_20
REMARK                            x       y       z     vdW  Elec       q    Type
REMARK                         _______ _______ _______ _____ _____    ______ ____
ROOT
ATOM      1  N   UNL     1       3.497   3.321  17.846  0.00  0.00    +0.000 N 
ATOM      2  N   UNL     1       3.460   1.986  18.054  0.00  0.00    +0.000 NA
ATOM      3  N   UNL     1       2.927   1.792  19.259  0.00  0.00    +0.000 NA
ATOM      4  C   UNL     1       2.628   3.017  19.792  0.00  0.00    +0.000 A 
ATOM      5  C   UNL     1       2.053   3.440  20.992  0.00  0.00    +0.000 A 
ATOM      6  N   UNL     1       1.611   2.562  21.976  0.00  0.00    +0.000 N 
ATOM      7  N   UNL     1       1.930   4.772  21.210  0.00  0.00    +0.000 NA
ATOM      8  C   UNL     1       2.346   5.641  20.269  0.00  0.00    +0.000 A 
ATOM      9  N   UNL     1       2.204   6.983  20.561  0.00  0.00    +0.000 N 
ATOM     10  N   UNL     1       2.872   5.338  19.070  0.00  0.00    +0.000 NA
ATOM     11  C   UNL     1       2.994   4.012  18.907  0.00  0.00    +0.000 A 
ATOM     12  H   UNL     1       2.019   1.644  21.935  0.00  0.00    +0.000 HD
ATOM     13  H   UNL     1       1.537   3.005  22.885  0.00  0.00    +0.000 HD
ATOM     14  H   UNL     1       1.501   7.118  21.275  0.00  0.00    +0.000 HD
ATOM     15  H   UNL     1       2.121   7.532  19.719  0.00  0.00    +0.000 HD
ENDROOT
BRANCH   1  16
ATOM     16  C   UNL     1       3.929   3.864  16.590  0.00  0.00    +0.000 C 
BRANCH  16  18
ATOM     17  C   UNL     1       6.014   4.114  15.170  0.00  0.00    +0.000 C 
ATOM     18  C   UNL     1       5.406   4.285  16.561  0.00  0.00    +0.000 C 
BRANCH  18  19
ATOM     19  O   UNL     1       5.545   5.683  16.920  0.00  0.00    +0.000 OA
BRANCH  19  20
ATOM     20  C   UNL     1       6.927   6.007  17.125  0.00  0.00    +0.000 C 
BRANCH  20  21
ATOM     21  P   UNL     1       7.418   5.710  18.862  0.00  0.00    +0.000 P 
ATOM     22  O   UNL     1       8.270   4.512  18.438  0.00  0.00    +0.000 OA
BRANCH  21  23
ATOM     23  O   UNL     1       8.386   7.033  18.825  0.00  0.00    +0.000 OA
ATOM     24  H   UNL     1       8.636   7.321  19.729  0.00  0.00    +0.000 HD
ENDBRANCH  21  23
BRANCH  21  25
ATOM     25  O   UNL     1       7.881   5.429  20.505  0.00  0.00    +0.000 OA
ATOM     26  H   UNL     1       8.214   4.508  20.489  0.00  0.00    +0.000 HD
ENDBRANCH  21  25
ENDBRANCH  20  21
ENDBRANCH  19  20
ENDBRANCH  18  19
ENDBRANCH  16  18
ENDBRANCH   1  16
TORSDOF 7
ENDMDL
MODEL 3
REMARK VINA RESULT:      -7.2      4.148      5.779
REMARK  Name = 
REMARK  8 active torsions:
REMARK  status: ('A' for Active; 'I' for Inactive)
REMARK    1  A    between atoms: C_1  and  C_2
REMARK    2  A    between atoms: C_2  and  C_3
REMARK    3  A    between atoms: C_2  and  O_15
REMARK    4  A    between atoms: C_3  and  N_4
REMARK    5  A    between atoms: O_15  and  C_16
REMARK    6  A    between atoms: C_16  and  P_17
REMARK    7  A    between atoms: P_17  and  O_19
REMARK    8  A    between atoms: P_17  and  O_20
REMARK                            x       y       z     vdW  Elec       q    Type
REMARK                         _______ _______ _______ _____ _____    ______ ____
ROOT
ATOM      1  N   UNL     1       5.325   4.916  16.867  0.00  0.00    +0.000 N 
ATOM      2  N   UNL     1       4.984   5.780  15.885  0.00  0.00    +0.000 NA
ATOM      3  N   UNL     1       5.745   6.862  16.033  0.00  0.00    +0.000 NA
ATOM      4  C   UNL     1       6.565   6.658  17.110  0.00  0.00    +0.000 A 
ATOM      5  C   UNL     1       7.565   7.415  17.727  0.00  0.00    +0.000 A 
ATOM      6  N   UNL     1       7.958   8.669  17.275  0.00  0.00    +0.000 N 
ATOM      7  N   UNL     1       8.170   6.902  18.825  0.00  0.00    +0.000 NA
ATOM      8  C   UNL     1       7.809   5.686  19.279  0.00  0.00    +0.000 A 
ATOM      9  N   UNL     1       8.456   5.230  20.409  0.00  0.00    +0.000 N 
ATOM     10  N   UNL     1       6.894   4.866  18.736  0.00  0.00    +0.000 NA
ATOM     11  C   UNL     1       6.306   5.422  17.666  0.00  0.00    +0.000 A 
ATOM     12  H   UNL     1       7.281   9.143  16.703  0.00  0.00    +0.000 HD
ATOM     13  H   UNL     1       8.429   9.210  17.993  0.00  0.00    +0.000 HD
ATOM     14  H   UNL     1       9.337   5.709  20.531  0.00  0.00    +0.000 HD
ATOM     15  H   UNL     1       8.469   4.223  20.440  0.00  0.00    +0.000 HD
ENDROOT
BRANCH   1  16
ATOM     16  C   UNL     1       4.753   3.602  16.930  0.00  0.00    +0.000 C 
BRANCH  16  18
ATOM     17  C   UNL     1       2.761   2.177  17.586  0.00  0.00    +0.000 C 
ATOM     18  C   UNL     1       3.481   3.510  17.786  0.00  0.00    +0.000 C 
BRANCH  18  19
ATOM     19  O   UNL     1       3.806   3.613  19.196  0.00  0.00    +0.000 OA
BRANCH  19  20
ATOM     20  C   UNL     1       2.826   4.411  19.874  0.00  0.00    +0.000 C 
BRANCH  20  21
ATOM     21  P   UNL     1       2.035   3.465  21.226  0.00  0.00    +0.000 P 
ATOM     22  O   UNL     1       0.919   3.011  20.282  0.00  0.00    +0.000 OA
BRANCH  21  23
ATOM     23  O   UNL     1       3.225   2.340  21.149  0.00  0.00    +0.000 OA
ATOM     24  H   UNL     1       2.858   1.430  21.137  0.00  0.00    +0.000 HD
ENDBRANCH  21  23
BRANCH  21  25
ATOM     25  O   UNL     1       1.286   2.571  22.504  0.00  0.00    +0.000 OA
ATOM     26  H   UNL     1       1.654   2.986  23.312  0.00  0.00    +0.000 HD
ENDBRANCH  21  25
ENDBRANCH  20  21
ENDBRANCH  19  20
ENDBRANCH  18  19
ENDBRANCH  16  18
ENDBRANCH   1  16
TORSDOF 7
ENDMDL
MODEL 4
REMARK VINA RESULT:      -7.0      1.139      2.657
REMARK  Name = 
REMARK  8 active torsions:
REMARK  status: ('A' for Active; 'I' for Inactive)
REMARK    1  A    between atoms: C_1  and  C_2
REMARK    2  A    between atoms: C_2  and  C_3
REMARK    3  A    between atoms: C_2  and  O_15
REMARK    4  A    between atoms: C_3  and  N_4
REMARK    5  A    between atoms: O_15  and  C_16
REMARK    6  A    between atoms: C_16  and  P_17
REMARK    7  A    between atoms: P_17  and  O_19
REMARK    8  A    between atoms: P_17  and  O_20
REMARK                            x       y       z     vdW  Elec       q    Type
REMARK                         _______ _______ _______ _____ _____    ______ ____
ROOT
ATOM      1  N   UNL     1       4.020   5.457  17.206  0.00  0.00    +0.000 N 
ATOM      2  N   UNL     1       3.409   6.525  17.765  0.00  0.00    +0.000 NA
ATOM      3  N   UNL     1       2.693   6.073  18.793  0.00  0.00    +0.000 NA
ATOM      4  C   UNL     1       2.871   4.718  18.869  0.00  0.00    +0.000 A 
ATOM      5  C   UNL     1       2.397   3.723  19.728  0.00  0.00    +0.000 A 
ATOM      6  N   UNL     1       1.563   3.984  20.808  0.00  0.00    +0.000 N 
ATOM      7  N   UNL     1       2.763   2.441  19.486  0.00  0.00    +0.000 NA
ATOM      8  C   UNL     1       3.575   2.164  18.447  0.00  0.00    +0.000 A 
ATOM      9  N   UNL     1       3.898   0.837  18.250  0.00  0.00    +0.000 N 
ATOM     10  N   UNL     1       4.115   3.049  17.592  0.00  0.00    +0.000 NA
ATOM     11  C   UNL     1       3.710   4.300  17.856  0.00  0.00    +0.000 A 
ATOM     12  H   UNL     1       1.055   4.849  20.749  0.00  0.00    +0.000 HD
ATOM     13  H   UNL     1       1.056   3.160  21.114  0.00  0.00    +0.000 HD
ATOM     14  H   UNL     1       3.766   0.310  19.102  0.00  0.00    +0.000 HD
ATOM     15  H   UNL     1       4.784   0.743  17.780  0.00  0.00    +0.000 HD
ENDROOT
BRANCH   1  16
ATOM     16  C   UNL     1       4.951   5.617  16.127  0.00  0.00    +0.000 C 
BRANCH  16  18
ATOM     17  C   UNL     1       6.386   3.956  14.858  0.00  0.00    +0.000 C 
ATOM     18  C   UNL     1       6.157   4.668  16.190  0.00  0.00    +0.000 C 
BRANCH  18  19
ATOM     19  O   UNL     1       7.370   5.403  16.496  0.00  0.00    +0.000 OA
BRANCH  19  20
ATOM     20  C   UNL     1       7.116   6.376  17.518  0.00  0.00    +0.000 C 
BRANCH  20  21
ATOM     21  P   UNL     1       7.739   5.800  19.139  0.00  0.00    +0.000 P 
ATOM     22  O   UNL     1       6.310   5.550  19.623  0.00  0.00    +0.000 OA
BRANCH  21  23
ATOM     23  O   UNL     1       8.271   4.409  18.451  0.00  0.00    +0.000 OA
ATOM     24  H   UNL     1       7.658   3.664  18.630  0.00  0.00    +0.000 HD
ENDBRANCH  21  23
BRANCH  21  25
ATOM     25  O   UNL     1       8.329   5.256  20.671  0.00  0.00    +0.000 OA
ATOM     26  H   UNL     1       9.185   5.724  20.761  0.00  0.00    +0.000 HD
ENDBRANCH  21  25
ENDBRANCH  20  21
ENDBRANCH  19  20
ENDBRANCH  18  19
ENDBRANCH  16  18
ENDBRANCH   1  16
TORSDOF 7
ENDMDL
MODEL 5
REMARK VINA RESULT:      -7.0      3.786      5.476
REMARK  Name = 
REMARK  8 active torsions:
REMARK  status: ('A' for Active; 'I' for Inactive)
REMARK    1  A    between atoms: C_1  and  C_2
REMARK    2  A    between atoms: C_2  and  C_3
REMARK    3  A    between atoms: C_2  and  O_15
REMARK    4  A    between atoms: C_3  and  N_4
REMARK    5  A    between atoms: O_15  and  C_16
REMARK    6  A    between atoms: C_16  and  P_17
REMARK    7  A    between atoms: P_17  and  O_19
REMARK    8  A    between atoms: P_17  and  O_20
REMARK                            x       y       z     vdW  Elec       q    Type
REMARK                         _______ _______ _______ _____ _____    ______ ____
ROOT
ATOM      1  N   UNL     1       5.317   4.783  16.919  0.00  0.00    +0.000 N 
ATOM      2  N   UNL     1       4.981   5.609  15.903  0.00  0.00    +0.000 NA
ATOM      3  N   UNL     1       5.735   6.700  16.020  0.00  0.00    +0.000 NA
ATOM      4  C   UNL     1       6.544   6.541  17.113  0.00  0.00    +0.000 A 
ATOM      5  C   UNL     1       7.533   7.325  17.712  0.00  0.00    +0.000 A 
ATOM      6  N   UNL     1       7.924   8.564  17.219  0.00  0.00    +0.000 N 
ATOM      7  N   UNL     1       8.129   6.855  18.835  0.00  0.00    +0.000 NA
ATOM      8  C   UNL     1       7.770   5.655  19.328  0.00  0.00    +0.000 A 
ATOM      9  N   UNL     1       8.408   5.243  20.480  0.00  0.00    +0.000 N 
ATOM     10  N   UNL     1       6.866   4.809  18.805  0.00  0.00    +0.000 NA
ATOM     11  C   UNL     1       6.287   5.323  17.710  0.00  0.00    +0.000 A 
ATOM     12  H   UNL     1       7.250   9.013  16.624  0.00  0.00    +0.000 HD
ATOM     13  H   UNL     1       8.384   9.133  17.922  0.00  0.00    +0.000 HD
ATOM     14  H   UNL     1       9.285   5.732  20.594  0.00  0.00    +0.000 HD
ATOM     15  H   UNL     1       8.426   4.238  20.548  0.00  0.00    +0.000 HD
ENDROOT
BRANCH   1  16
ATOM     16  C   UNL     1       4.751   3.469  17.024  0.00  0.00    +0.000 C 
BRANCH  16  18
ATOM     17  C   UNL     1       2.668   2.200  17.715  0.00  0.00    +0.000 C 
ATOM     18  C   UNL     1       3.216   3.441  17.012  0.00  0.00    +0.000 C 
BRANCH  18  19
ATOM     19  O   UNL     1       2.679   4.597  17.704  0.00  0.00    +0.000 OA
BRANCH  19  20
ATOM     20  C   UNL     1       2.104   4.202  18.957  0.00  0.00    +0.000 C 
BRANCH  20  21
ATOM     21  P   UNL     1       2.016   5.620  20.111  0.00  0.00    +0.000 P 
ATOM     22  O   UNL     1       1.901   4.668  21.303  0.00  0.00    +0.000 OA
BRANCH  21  23
ATOM     23  O   UNL     1       3.611   5.919  19.880  0.00  0.00    +0.000 OA
ATOM     24  H   UNL     1       4.025   6.300  20.684  0.00  0.00    +0.000 HD
ENDBRANCH  21  23
BRANCH  21  25
ATOM     25  O   UNL     1       1.932   6.960  21.201  0.00  0.00    +0.000 OA
ATOM     26  H   UNL     1       2.154   7.726  20.632  0.00  0.00    +0.000 HD
ENDBRANCH  21  25
ENDBRANCH  20  21
ENDBRANCH  19  20
ENDBRANCH  18  19
ENDBRANCH  16  18
ENDBRANCH   1  16
TORSDOF 7
ENDMDL
MODEL 6
REMARK VINA RESULT:      -7.0      2.486      4.010
REMARK  Name = 
REMARK  8 active torsions:
REMARK  status: ('A' for Active; 'I' for Inactive)
REMARK    1  A    between atoms: C_1  and  C_2
REMARK    2  A    between atoms: C_2  and  C_3
REMARK    3  A    between atoms: C_2  and  O_15
REMARK    4  A    between atoms: C_3  and  N_4
REMARK    5  A    between atoms: O_15  and  C_16
REMARK    6  A    between atoms: C_16  and  P_17
REMARK    7  A    between atoms: P_17  and  O_19
REMARK    8  A    between atoms: P_17  and  O_20
REMARK                            x       y       z     vdW  Elec       q    Type
REMARK                         _______ _______ _______ _____ _____    ______ ____
ROOT
ATOM      1  N   UNL     1       5.042   5.520  18.709  0.00  0.00    +0.000 N 
ATOM      2  N   UNL     1       4.070   6.458  18.671  0.00  0.00    +0.000 NA
ATOM      3  N   UNL     1       2.986   5.923  19.229  0.00  0.00    +0.000 NA
ATOM      4  C   UNL     1       3.297   4.648  19.619  0.00  0.00    +0.000 A 
ATOM      5  C   UNL     1       2.588   3.628  20.258  0.00  0.00    +0.000 A 
ATOM      6  N   UNL     1       1.269   3.763  20.675  0.00  0.00    +0.000 N 
ATOM      7  N   UNL     1       3.217   2.446  20.469  0.00  0.00    +0.000 NA
ATOM      8  C   UNL     1       4.497   2.293  20.078  0.00  0.00    +0.000 A 
ATOM      9  N   UNL     1       5.073   1.061  20.311  0.00  0.00    +0.000 N 
ATOM     10  N   UNL     1       5.276   3.221  19.496  0.00  0.00    +0.000 NA
ATOM     11  C   UNL     1       4.607   4.365  19.288  0.00  0.00    +0.000 A 
ATOM     12  H   UNL     1       0.753   4.489  20.210  0.00  0.00    +0.000 HD
ATOM     13  H   UNL     1       0.810   2.867  20.806  0.00  0.00    +0.000 HD
ATOM     14  H   UNL     1       4.577   0.571  21.043  0.00  0.00    +0.000 HD
ATOM     15  H   UNL     1       6.074   1.137  20.401  0.00  0.00    +0.000 HD
ENDROOT
BRANCH   1  16
ATOM     16  C   UNL     1       6.375   5.816  18.271  0.00  0.00    +0.000 C 
BRANCH  16  18
ATOM     17  C   UNL     1       7.645   7.885  17.542  0.00  0.00    +0.000 C 
ATOM     18  C   UNL     1       6.464   6.961  17.252  0.00  0.00    +0.000 C 
BRANCH  18  19
ATOM     19  O   UNL     1       6.650   6.438  15.912  0.00  0.00    +0.000 OA
BRANCH  19  20
ATOM     20  C   UNL     1       5.489   5.705  15.499  0.00  0.00    +0.000 C 
BRANCH  20  21
ATOM     21  P   UNL     1       5.942   4.359  14.345  0.00  0.00    +0.000 P 
ATOM     22  O   UNL     1       7.234   5.087  13.970  0.00  0.00    +0.000 OA
BRANCH  21  23
ATOM     23  O   UNL     1       6.287   3.376  15.611  0.00  0.00    +0.000 OA
ATOM     24  H   UNL     1       7.201   3.519  15.937  0.00  0.00    +0.000 HD
ENDBRANCH  21  23
BRANCH  21  25
ATOM     25  O   UNL     1       6.369   3.087  13.253  0.00  0.00    +0.000 OA
ATOM     26  H   UNL     1       5.868   3.311  12.441  0.00  0.00    +0.000 HD
ENDBRANCH  21  25
ENDBRANCH  20  21
ENDBRANCH  19  20
ENDBRANCH  18  19
ENDBRANCH  16  18
ENDBRANCH   1  16
TORSDOF 7
ENDMDL
MODEL 7
REMARK VINA RESULT:      -7.0      3.979      5.938
REMARK  Name = 
REMARK  8 active torsions:
REMARK  status: ('A' for Active; 'I' for Inactive)
REMARK    1  A    between atoms: C_1  and  C_2
REMARK    2  A    between atoms: C_2  and  C_3
REMARK    3  A    between atoms: C_2  and  O_15
REMARK    4  A    between atoms: C_3  and  N_4
REMARK    5  A    between atoms: O_15  and  C_16
REMARK    6  A    between atoms: C_16  and  P_17
REMARK    7  A    between atoms: P_17  and  O_19
REMARK    8  A    between atoms: P_17  and  O_20
REMARK                            x       y       z     vdW  Elec       q    Type
REMARK                         _______ _______ _______ _____ _____    ______ ____
ROOT
ATOM      1  N   UNL     1       5.419   3.854  18.551  0.00  0.00    +0.000 N 
ATOM      2  N   UNL     1       5.627   4.358  19.787  0.00  0.00    +0.000 NA
ATOM      3  N   UNL     1       6.409   5.427  19.647  0.00  0.00    +0.000 NA
ATOM      4  C   UNL     1       6.677   5.583  18.314  0.00  0.00    +0.000 A 
ATOM      5  C   UNL     1       7.413   6.513  17.574  0.00  0.00    +0.000 A 
ATOM      6  N   UNL     1       8.073   7.593  18.148  0.00  0.00    +0.000 N 
ATOM      7  N   UNL     1       7.493   6.343  16.232  0.00  0.00    +0.000 NA
ATOM      8  C   UNL     1       6.858   5.306  15.652  0.00  0.00    +0.000 A 
ATOM      9  N   UNL     1       6.992   5.185  14.284  0.00  0.00    +0.000 N 
ATOM     10  N   UNL     1       6.095   4.387  16.266  0.00  0.00    +0.000 NA
ATOM     11  C   UNL     1       6.061   4.581  17.593  0.00  0.00    +0.000 A 
ATOM     12  H   UNL     1       8.274   7.491  19.128  0.00  0.00    +0.000 HD
ATOM     13  H   UNL     1       8.807   7.960  17.552  0.00  0.00    +0.000 HD
ATOM     14  H   UNL     1       7.253   6.071  13.873  0.00  0.00    +0.000 HD
ATOM     15  H   UNL     1       6.203   4.703  13.882  0.00  0.00    +0.000 HD
ENDROOT
BRANCH   1  16
ATOM     16  C   UNL     1       4.531   2.747  18.342  0.00  0.00    +0.000 C 
BRANCH  16  18
ATOM     17  C   UNL     1       2.495   3.555  17.064  0.00  0.00    +0.000 C 
ATOM     18  C   UNL     1       3.041   3.111  18.420  0.00  0.00    +0.000 C 
BRANCH  18  19
ATOM     19  O   UNL     1       2.257   1.967  18.843  0.00  0.00    +0.000 OA
BRANCH  19  20
ATOM     20  C   UNL     1       1.529   2.278  20.039  0.00  0.00    +0.000 C 
BRANCH  20  21
ATOM     21  P   UNL     1       2.022   3.912  20.698  0.00  0.00    +0.000 P 
ATOM     22  O   UNL     1       0.592   4.432  20.533  0.00  0.00    +0.000 OA
BRANCH  21  23
ATOM     23  O   UNL     1       2.139   3.279  22.206  0.00  0.00    +0.000 OA
ATOM     24  H   UNL     1       2.746   3.806  22.769  0.00  0.00    +0.000 HD
ENDBRANCH  21  23
BRANCH  21  25
ATOM     25  O   UNL     1       2.488   5.457  21.320  0.00  0.00    +0.000 OA
ATOM     26  H   UNL     1       3.403   5.304  21.637  0.00  0.00    +0.000 HD
ENDBRANCH  21  25
ENDBRANCH  20  21
ENDBRANCH  19  20
ENDBRANCH  18  19
ENDBRANCH  16  18
ENDBRANCH   1  16
TORSDOF 7
ENDMDL
MODEL 8
REMARK VINA RESULT:      -6.9      2.494      3.960
REMARK  Name = 
REMARK  8 active torsions:
REMARK  status: ('A' for Active; 'I' for Inactive)
REMARK    1  A    between atoms: C_1  and  C_2
REMARK    2  A    between atoms: C_2  and  C_3
REMARK    3  A    between atoms: C_2  and  O_15
REMARK    4  A    between atoms: C_3  and  N_4
REMARK    5  A    between atoms: O_15  and  C_16
REMARK    6  A    between atoms: C_16  and  P_17
REMARK    7  A    between atoms: P_17  and  O_19
REMARK    8  A    between atoms: P_17  and  O_20
REMARK                            x       y       z     vdW  Elec       q    Type
REMARK                         _______ _______ _______ _____ _____    ______ ____
ROOT
ATOM      1  N   UNL     1       4.858   5.629  18.579  0.00  0.00    +0.000 N 
ATOM      2  N   UNL     1       3.804   6.433  18.314  0.00  0.00    +0.000 NA
ATOM      3  N   UNL     1       2.706   5.770  18.669  0.00  0.00    +0.000 NA
ATOM      4  C   UNL     1       3.088   4.552  19.163  0.00  0.00    +0.000 A 
ATOM      5  C   UNL     1       2.398   3.457  19.690  0.00  0.00    +0.000 A 
ATOM      6  N   UNL     1       1.016   3.427  19.836  0.00  0.00    +0.000 N 
ATOM      7  N   UNL     1       3.114   2.370  20.067  0.00  0.00    +0.000 NA
ATOM      8  C   UNL     1       4.454   2.378  19.940  0.00  0.00    +0.000 A 
ATOM      9  N   UNL     1       5.120   1.234  20.331  0.00  0.00    +0.000 N 
ATOM     10  N   UNL     1       5.213   3.391  19.487  0.00  0.00    +0.000 NA
ATOM     11  C   UNL     1       4.463   4.435  19.106  0.00  0.00    +0.000 A 
ATOM     12  H   UNL     1       0.516   4.074  19.250  0.00  0.00    +0.000 HD
ATOM     13  H   UNL     1       0.654   2.482  19.909  0.00  0.00    +0.000 HD
ATOM     14  H   UNL     1       4.553   0.694  20.970  0.00  0.00    +0.000 HD
ATOM     15  H   UNL     1       6.066   1.440  20.611  0.00  0.00    +0.000 HD
ENDROOT
BRANCH   1  16
ATOM     16  C   UNL     1       6.205   6.088  18.400  0.00  0.00    +0.000 C 
BRANCH  16  18
ATOM     17  C   UNL     1       7.658   7.952  17.483  0.00  0.00    +0.000 C 
ATOM     18  C   UNL     1       6.366   7.155  17.307  0.00  0.00    +0.000 C 
BRANCH  18  19
ATOM     19  O   UNL     1       6.419   6.539  15.995  0.00  0.00    +0.000 OA
BRANCH  19  20
ATOM     20  C   UNL     1       7.004   5.233  16.084  0.00  0.00    +0.000 C 
BRANCH  20  21
ATOM     21  P   UNL     1       6.644   4.253  14.581  0.00  0.00    +0.000 P 
ATOM     22  O   UNL     1       5.181   4.702  14.613  0.00  0.00    +0.000 OA
BRANCH  21  23
ATOM     23  O   UNL     1       7.466   5.337  13.665  0.00  0.00    +0.000 OA
ATOM     24  H   UNL     1       7.149   6.252  13.822  0.00  0.00    +0.000 HD
ENDBRANCH  21  23
BRANCH  21  25
ATOM     25  O   UNL     1       6.303   3.325  13.161  0.00  0.00    +0.000 OA
ATOM     26  H   UNL     1       6.175   4.011  12.472  0.00  0.00    +0.000 HD
ENDBRANCH  21  25
ENDBRANCH  20  21
ENDBRANCH  19  20
ENDBRANCH  18  19
ENDBRANCH  16  18
ENDBRANCH   1  16
TORSDOF 7
ENDMDL
MODEL 9
REMARK VINA RESULT:      -6.9      4.009      5.627
REMARK  Name = 
REMARK  8 active torsions:
REMARK  status: ('A' for Active; 'I' for Inactive)
REMARK    1  A    between atoms: C_1  and  C_2
REMARK    2  A    between atoms: C_2  and  C_3
REMARK    3  A    between atoms: C_2  and  O_15
REMARK    4  A    between atoms: C_3  and  N_4
REMARK    5  A    between atoms: O_15  and  C_16
REMARK    6  A    between atoms: C_16  and  P_17
REMARK    7  A    between atoms: P_17  and  O_19
REMARK    8  A    between atoms: P_17  and  O_20
REMARK                            x       y       z     vdW  Elec       q    Type
REMARK                         _______ _______ _______ _____ _____    ______ ____
ROOT
ATOM      1  N   UNL     1       5.404   4.743  16.869  0.00  0.00    +0.000 N 
ATOM      2  N   UNL     1       5.034   5.583  15.877  0.00  0.00    +0.000 NA
ATOM      3  N   UNL     1       5.743   6.700  16.023  0.00  0.00    +0.000 NA
ATOM      4  C   UNL     1       6.561   6.542  17.111  0.00  0.00    +0.000 A 
ATOM      5  C   UNL     1       7.518   7.349  17.731  0.00  0.00    +0.000 A 
ATOM      6  N   UNL     1       7.858   8.616  17.273  0.00  0.00    +0.000 N 
ATOM      7  N   UNL     1       8.135   6.872  18.839  0.00  0.00    +0.000 NA
ATOM      8  C   UNL     1       7.826   5.645  19.298  0.00  0.00    +0.000 A 
ATOM      9  N   UNL     1       8.483   5.227  20.438  0.00  0.00    +0.000 N 
ATOM     10  N   UNL     1       6.955   4.779  18.754  0.00  0.00    +0.000 NA
ATOM     11  C   UNL     1       6.353   5.299  17.674  0.00  0.00    +0.000 A 
ATOM     12  H   UNL     1       7.165   9.054  16.691  0.00  0.00    +0.000 HD
ATOM     13  H   UNL     1       8.296   9.183  17.991  0.00  0.00    +0.000 HD
ATOM     14  H   UNL     1       9.340   5.748  20.565  0.00  0.00    +0.000 HD
ATOM     15  H   UNL     1       8.541   4.222  20.478  0.00  0.00    +0.000 HD
ENDROOT
BRANCH   1  16
ATOM     16  C   UNL     1       4.893   3.405  16.937  0.00  0.00    +0.000 C 
BRANCH  16  18
ATOM     17  C   UNL     1       2.491   2.651  17.240  0.00  0.00    +0.000 C 
ATOM     18  C   UNL     1       3.730   3.225  17.925  0.00  0.00    +0.000 C 
BRANCH  18  19
ATOM     19  O   UNL     1       4.098   2.304  18.984  0.00  0.00    +0.000 OA
BRANCH  19  20
ATOM     20  C   UNL     1       3.990   2.948  20.260  0.00  0.00    +0.000 C 
BRANCH  20  21
ATOM     21  P   UNL     1       2.272   3.495  20.574  0.00  0.00    +0.000 P 
ATOM     22  O   UNL     1       2.287   2.823  21.948  0.00  0.00    +0.000 OA
BRANCH  21  23
ATOM     23  O   UNL     1       2.791   5.037  20.780  0.00  0.00    +0.000 OA
ATOM     24  H   UNL     1       3.455   5.099  21.500  0.00  0.00    +0.000 HD
ENDBRANCH  21  23
BRANCH  21  25
ATOM     25  O   UNL     1       0.648   4.012  20.869  0.00  0.00    +0.000 OA
ATOM     26  H   UNL     1       0.265   3.266  21.377  0.00  0.00    +0.000 HD
ENDBRANCH  21  25
ENDBRANCH  20  21
ENDBRANCH  19  20
ENDBRANCH  18  19
ENDBRANCH  16  18
ENDBRANCH   1  16
TORSDOF 7
ENDMDL
