MODEL 1
REMARK VINA RESULT:      -7.4      0.000      0.000
REMARK  Name = 
REMARK  15 active torsions:
REMARK  status: ('A' for Active; 'I' for Inactive)
REMARK    1  A    between atoms: C_1  and  C_2
REMARK    2  A    between atoms: C_2  and  C_3
REMARK    3  A    between atoms: C_3  and  C_4
REMARK    4  A    between atoms: C_5  and  O_6
REMARK    5  A    between atoms: O_6  and  C_7
REMARK    6  A    between atoms: C_7  and  C_8
REMARK    7  A    between atoms: C_8  and  C_9
REMARK    8  A    between atoms: C_9  and  C_10
REMARK    9  A    between atoms: C_10  and  C_11
REMARK   10  A    between atoms: C_11  and  C_12
REMARK   11  A    between atoms: C_12  and  N_13
REMARK   12  A    between atoms: N_16  and  C_17
REMARK   13  A    between atoms: C_22  and  C_23
REMARK   14  A    between atoms: C_23  and  C_24
REMARK   15  A    between atoms: C_26  and  O_27
REMARK                            x       y       z     vdW  Elec       q    Type
REMARK                         _______ _______ _______ _____ _____    ______ ____
ROOT
ATOM      1  C   UNL     1       5.528   4.944  16.797  0.00  0.00    +0.000 A 
ATOM      2  C   UNL     1       5.455   6.340  17.020  0.00  0.00    +0.000 A 
ATOM      3  C   UNL     1       4.286   6.878  17.564  0.00  0.00    +0.000 A 
ATOM      4  C   UNL     1       3.227   6.082  17.939  0.00  0.00    +0.000 A 
ATOM      5  C   UNL     1       3.261   4.686  17.789  0.00  0.00    +0.000 A 
ATOM      6  C   UNL     1       4.436   4.118  17.191  0.00  0.00    +0.000 A 
ENDROOT
BRANCH   5   7
ATOM      7  C   UNL     1       2.074   3.877  18.264  0.00  0.00    +0.000 C 
ATOM      8  C   UNL     1       1.334   4.115  19.564  0.00  0.00    +0.000 C 
ATOM      9  O   UNL     1       1.657   2.950  17.601  0.00  0.00    +0.000 OA
ENDBRANCH   5   7
BRANCH   6  10
ATOM     10  O   UNL     1       4.586   2.783  16.989  0.00  0.00    +0.000 OA
ATOM     11  H   UNL     1       4.774   2.323  16.168  0.00  0.00    +0.000 HD
ENDBRANCH   6  10
BRANCH   1  12
ATOM     12  C   UNL     1       6.756   4.312  16.126  0.00  0.00    +0.000 C 
BRANCH  12  14
ATOM     13  C   UNL     1       6.099   3.870  13.704  0.00  0.00    +0.000 C 
ATOM     14  C   UNL     1       6.968   4.690  14.653  0.00  0.00    +0.000 C 
ENDBRANCH  12  14
ENDBRANCH   1  12
BRANCH   2  15
ATOM     15  O   UNL     1       6.496   7.162  16.708  0.00  0.00    +0.000 OA
BRANCH  15  16
ATOM     16  C   UNL     1       7.580   7.399  17.550  0.00  0.00    +0.000 C 
BRANCH  16  17
ATOM     17  C   UNL     1       7.927   8.883  17.582  0.00  0.00    +0.000 C 
BRANCH  17  18
ATOM     18  C   UNL     1       8.884   9.247  18.726  0.00  0.00    +0.000 C 
BRANCH  18  19
ATOM     19  C   UNL     1       9.178  10.760  18.851  0.00  0.00    +0.000 C 
BRANCH  19  20
ATOM     20  C   UNL     1      10.559  11.185  18.317  0.00  0.00    +0.000 C 
BRANCH  20  21
ATOM     21  C   UNL     1      11.455  11.753  19.433  0.00  0.00    +0.000 C 
BRANCH  21  22
ATOM     22  N   UNL     1      11.904  13.136  19.175  0.00  0.00    +0.000 NA
ATOM     23  C   UNL     1      11.050  14.062  19.949  0.00  0.00    +0.000 C 
ATOM     24  C   UNL     1      11.535  15.506  19.769  0.00  0.00    +0.000 C 
ATOM     25  N   UNL     1      11.567  15.906  18.349  0.00  0.00    +0.000 NA
ATOM     26  C   UNL     1      10.230  16.176  17.794  0.00  0.00    +0.000 C 
ATOM     27  C   UNL     1      12.333  14.935  17.542  0.00  0.00    +0.000 C 
ATOM     28  C   UNL     1      11.829  13.498  17.742  0.00  0.00    +0.000 C 
ENDBRANCH  21  22
ENDBRANCH  20  21
ENDBRANCH  19  20
ENDBRANCH  18  19
ENDBRANCH  17  18
ENDBRANCH  16  17
ENDBRANCH  15  16
ENDBRANCH   2  15
TORSDOF 12
ENDMDL
MODEL 2
REMARK VINA RESULT:      -7.2      0.902      1.150
REMARK  Name = 
REMARK  15 active torsions:
REMARK  status: ('A' for Active; 'I' for Inactive)
REMARK    1  A    between atoms: C_1  and  C_2
REMARK    2  A    between atoms: C_2  and  C_3
REMARK    3  A    between atoms: C_3  and  C_4
REMARK    4  A    between atoms: C_5  and  O_6
REMARK    5  A    between atoms: O_6  and  C_7
REMARK    6  A    between atoms: C_7  and  C_8
REMARK    7  A    between atoms: C_8  and  C_9
REMARK    8  A    between atoms: C_9  and  C_10
REMARK    9  A    between atoms: C_10  and  C_11
REMARK   10  A    between atoms: C_11  and  C_12
REMARK   11  A    between atoms: C_12  and  N_13
REMARK   12  A    between atoms: N_16  and  C_17
REMARK   13  A    between atoms: C_22  and  C_23
REMARK   14  A    between atoms: C_23  and  C_24
REMARK   15  A    between atoms: C_26  and  O_27
REMARK                            x       y       z     vdW  Elec       q    Type
REMARK                         _______ _______ _______ _____ _____    ______ ____
ROOT
ATOM      1  C   UNL     1       5.692   5.229  16.726  0.00  0.00    +0.000 A 
ATOM      2  C   UNL     1       5.620   6.611  17.026  0.00  0.00    +0.000 A 
ATOM      3  C   UNL     1       4.448   7.121  17.590  0.00  0.00    +0.000 A 
ATOM      4  C   UNL     1       3.385   6.308  17.913  0.00  0.00    +0.000 A 
ATOM      5  C   UNL     1       3.418   4.922  17.686  0.00  0.00    +0.000 A 
ATOM      6  C   UNL     1       4.595   4.385  17.065  0.00  0.00    +0.000 A 
ENDROOT
BRANCH   5   7
ATOM      7  C   UNL     1       2.225   4.092  18.106  0.00  0.00    +0.000 C 
ATOM      8  C   UNL     1       1.496   4.237  19.427  0.00  0.00    +0.000 C 
ATOM      9  O   UNL     1       1.794   3.222  17.378  0.00  0.00    +0.000 OA
ENDBRANCH   5   7
BRANCH   6  10
ATOM     10  O   UNL     1       4.744   3.063  16.791  0.00  0.00    +0.000 OA
ATOM     11  H   UNL     1       4.331   2.551  16.093  0.00  0.00    +0.000 HD
ENDBRANCH   6  10
BRANCH   1  12
ATOM     12  C   UNL     1       6.923   4.632  16.029  0.00  0.00    +0.000 C 
BRANCH  12  14
ATOM     13  C   UNL     1       6.189   3.859  13.716  0.00  0.00    +0.000 C 
ATOM     14  C   UNL     1       7.003   4.872  14.515  0.00  0.00    +0.000 C 
ENDBRANCH  12  14
ENDBRANCH   1  12
BRANCH   2  15
ATOM     15  O   UNL     1       6.665   7.446  16.767  0.00  0.00    +0.000 OA
BRANCH  15  16
ATOM     16  C   UNL     1       7.779   7.578  17.592  0.00  0.00    +0.000 C 
BRANCH  16  17
ATOM     17  C   UNL     1       8.101   9.047  17.839  0.00  0.00    +0.000 C 
BRANCH  17  18
ATOM     18  C   UNL     1       8.845   9.281  19.162  0.00  0.00    +0.000 C 
BRANCH  18  19
ATOM     19  C   UNL     1       9.625  10.614  19.224  0.00  0.00    +0.000 C 
BRANCH  19  20
ATOM     20  C   UNL     1       9.705  11.368  17.882  0.00  0.00    +0.000 C 
BRANCH  20  21
ATOM     21  C   UNL     1      11.060  12.078  17.704  0.00  0.00    +0.000 C 
BRANCH  21  22
ATOM     22  N   UNL     1      11.004  13.524  17.997  0.00  0.00    +0.000 NA
ATOM     23  C   UNL     1      11.610  13.759  19.325  0.00  0.00    +0.000 C 
ATOM     24  C   UNL     1      11.643  15.262  19.634  0.00  0.00    +0.000 C 
ATOM     25  N   UNL     1      10.299  15.869  19.570  0.00  0.00    +0.000 NA
ATOM     26  C   UNL     1       9.461  15.541  20.736  0.00  0.00    +0.000 C 
ATOM     27  C   UNL     1       9.638  15.558  18.288  0.00  0.00    +0.000 C 
ATOM     28  C   UNL     1       9.620  14.048  18.001  0.00  0.00    +0.000 C 
ENDBRANCH  21  22
ENDBRANCH  20  21
ENDBRANCH  19  20
ENDBRANCH  18  19
ENDBRANCH  17  18
ENDBRANCH  16  17
ENDBRANCH  15  16
ENDBRANCH   2  15
TORSDOF 12
ENDMDL
MODEL 3
REMARK VINA RESULT:      -7.1      2.315      3.505
REMARK  Name = 
REMARK  15 active torsions:
REMARK  status: ('A' for Active; 'I' for Inactive)
REMARK    1  A    between atoms: C_1  and  C_2
REMARK    2  A    between atoms: C_2  and  C_3
REMARK    3  A    between atoms: C_3  and  C_4
REMARK    4  A    between atoms: C_5  and  O_6
REMARK    5  A    between atoms: O_6  and  C_7
REMARK    6  A    between atoms: C_7  and  C_8
REMARK    7  A    between atoms: C_8  and  C_9
REMARK    8  A    between atoms: C_9  and  C_10
REMARK    9  A    between atoms: C_10  and  C_11
REMARK   10  A    between atoms: C_11  and  C_12
REMARK   11  A    between atoms: C_12  and  N_13
REMARK   12  A    between atoms: N_16  and  C_17
REMARK   13  A    between atoms: C_22  and  C_23
REMARK   14  A    between atoms: C_23  and  C_24
REMARK   15  A    between atoms: C_26  and  O_27
REMARK                            x       y       z     vdW  Elec       q    Type
REMARK                         _______ _______ _______ _____ _____    ______ ____
ROOT
ATOM      1  C   UNL     1       3.575   5.313  18.812  0.00  0.00    +0.000 A 
ATOM      2  C   UNL     1       4.007   5.880  17.589  0.00  0.00    +0.000 A 
ATOM      3  C   UNL     1       3.564   7.159  17.242  0.00  0.00    +0.000 A 
ATOM      4  C   UNL     1       2.766   7.903  18.082  0.00  0.00    +0.000 A 
ATOM      5  C   UNL     1       2.347   7.414  19.330  0.00  0.00    +0.000 A 
ATOM      6  C   UNL     1       2.754   6.084  19.686  0.00  0.00    +0.000 A 
ENDROOT
BRANCH   5   7
ATOM      7  C   UNL     1       1.505   8.309  20.213  0.00  0.00    +0.000 C 
ATOM      8  C   UNL     1       0.882   9.617  19.770  0.00  0.00    +0.000 C 
ATOM      9  O   UNL     1       1.300   8.011  21.372  0.00  0.00    +0.000 OA
ENDBRANCH   5   7
BRANCH   6  10
ATOM     10  O   UNL     1       2.410   5.499  20.862  0.00  0.00    +0.000 OA
ATOM     11  H   UNL     1       2.985   5.106  21.522  0.00  0.00    +0.000 HD
ENDBRANCH   6  10
BRANCH   1  12
ATOM     12  C   UNL     1       3.963   3.880  19.202  0.00  0.00    +0.000 C 
BRANCH  12  14
ATOM     13  C   UNL     1       3.497   1.499  18.426  0.00  0.00    +0.000 C 
ATOM     14  C   UNL     1       2.898   2.810  18.926  0.00  0.00    +0.000 C 
ENDBRANCH  12  14
ENDBRANCH   1  12
BRANCH   2  15
ATOM     15  O   UNL     1       4.834   5.200  16.747  0.00  0.00    +0.000 OA
BRANCH  15  16
ATOM     16  C   UNL     1       6.123   5.614  16.420  0.00  0.00    +0.000 C 
BRANCH  16  17
ATOM     17  C   UNL     1       6.814   6.242  17.624  0.00  0.00    +0.000 C 
BRANCH  17  18
ATOM     18  C   UNL     1       7.261   7.688  17.368  0.00  0.00    +0.000 C 
BRANCH  18  19
ATOM     19  C   UNL     1       8.346   8.199  18.345  0.00  0.00    +0.000 C 
BRANCH  19  20
ATOM     20  C   UNL     1       8.607   9.716  18.269  0.00  0.00    +0.000 C 
BRANCH  20  21
ATOM     21  C   UNL     1       9.312  10.240  19.534  0.00  0.00    +0.000 C 
BRANCH  21  22
ATOM     22  N   UNL     1      10.401  11.193  19.243  0.00  0.00    +0.000 NA
ATOM     23  C   UNL     1      10.204  12.402  20.071  0.00  0.00    +0.000 C 
ATOM     24  C   UNL     1      11.360  13.387  19.856  0.00  0.00    +0.000 C 
ATOM     25  N   UNL     1      11.513  13.759  18.436  0.00  0.00    +0.000 NA
ATOM     26  C   UNL     1      10.483  14.705  17.972  0.00  0.00    +0.000 C 
ATOM     27  C   UNL     1      11.609  12.559  17.581  0.00  0.00    +0.000 C 
ATOM     28  C   UNL     1      10.442  11.589  17.817  0.00  0.00    +0.000 C 
ENDBRANCH  21  22
ENDBRANCH  20  21
ENDBRANCH  19  20
ENDBRANCH  18  19
ENDBRANCH  17  18
ENDBRANCH  16  17
ENDBRANCH  15  16
ENDBRANCH   2  15
TORSDOF 12
ENDMDL
MODEL 4
REMARK VINA RESULT:      -7.1      0.919      1.282
REMARK  Name = 
REMARK  15 active torsions:
REMARK  status: ('A' for Active; 'I' for Inactive)
REMARK    1  A    between atoms: C_1  and  C_2
REMARK    2  A    between atoms: C_2  and  C_3
REMARK    3  A    between atoms: C_3  and  C_4
REMARK    4  A    between atoms: C_5  and  O_6
REMARK    5  A    between atoms: O_6  and  C_7
REMARK    6  A    between atoms: C_7  and  C_8
REMARK    7  A    between atoms: C_8  and  C_9
REMARK    8  A    between atoms: C_9  and  C_10
REMARK    9  A    between atoms: C_10  and  C_11
REMARK   10  A    between atoms: C_11  and  C_12
REMARK   11  A    between atoms: C_12  and  N_13
REMARK   12  A    between atoms: N_16  and  C_17
REMARK   13  A    between atoms: C_22  and  C_23
REMARK   14  A    between atoms: C_23  and  C_24
REMARK   15  A    between atoms: C_26  and  O_27
REMARK                            x       y       z     vdW  Elec       q    Type
REMARK                         _______ _______ _______ _____ _____    ______ ____
ROOT
ATOM      1  C   UNL     1       5.492   5.171  16.950  0.00  0.00    +0.000 A 
ATOM      2  C   UNL     1       5.457   6.585  17.014  0.00  0.00    +0.000 A 
ATOM      3  C   UNL     1       4.274   7.214  17.408  0.00  0.00    +0.000 A 
ATOM      4  C   UNL     1       3.162   6.497  17.790  0.00  0.00    +0.000 A 
ATOM      5  C   UNL     1       3.154   5.092  17.795  0.00  0.00    +0.000 A 
ATOM      6  C   UNL     1       4.345   4.426  17.350  0.00  0.00    +0.000 A 
ENDROOT
BRANCH   5   7
ATOM      7  C   UNL     1       1.907   4.377  18.267  0.00  0.00    +0.000 C 
ATOM      8  C   UNL     1       1.603   4.037  19.711  0.00  0.00    +0.000 C 
ATOM      9  O   UNL     1       1.067   4.015  17.469  0.00  0.00    +0.000 OA
ENDBRANCH   5   7
BRANCH   6  10
ATOM     10  O   UNL     1       4.458   3.073  17.307  0.00  0.00    +0.000 OA
ATOM     11  H   UNL     1       3.970   2.453  16.761  0.00  0.00    +0.000 HD
ENDBRANCH   6  10
BRANCH   1  12
ATOM     12  C   UNL     1       6.739   4.432  16.444  0.00  0.00    +0.000 C 
BRANCH  12  14
ATOM     13  C   UNL     1       5.542   4.284  14.200  0.00  0.00    +0.000 C 
ATOM     14  C   UNL     1       6.886   4.359  14.917  0.00  0.00    +0.000 C 
ENDBRANCH  12  14
ENDBRANCH   1  12
BRANCH   2  15
ATOM     15  O   UNL     1       6.547   7.335  16.692  0.00  0.00    +0.000 OA
BRANCH  15  16
ATOM     16  C   UNL     1       7.594   7.605  17.570  0.00  0.00    +0.000 C 
BRANCH  16  17
ATOM     17  C   UNL     1       7.835   9.106  17.681  0.00  0.00    +0.000 C 
BRANCH  17  18
ATOM     18  C   UNL     1       8.864   9.465  18.763  0.00  0.00    +0.000 C 
BRANCH  18  19
ATOM     19  C   UNL     1       9.547  10.837  18.558  0.00  0.00    +0.000 C 
BRANCH  19  20
ATOM     20  C   UNL     1       9.660  11.689  19.837  0.00  0.00    +0.000 C 
BRANCH  20  21
ATOM     21  C   UNL     1       9.224  13.146  19.595  0.00  0.00    +0.000 C 
BRANCH  21  22
ATOM     22  N   UNL     1      10.031  13.835  18.568  0.00  0.00    +0.000 NA
ATOM     23  C   UNL     1      11.450  13.793  18.978  0.00  0.00    +0.000 C 
ATOM     24  C   UNL     1      12.333  14.430  17.897  0.00  0.00    +0.000 C 
ATOM     25  N   UNL     1      11.927  15.818  17.599  0.00  0.00    +0.000 NA
ATOM     26  C   UNL     1      12.333  16.775  18.642  0.00  0.00    +0.000 C 
ATOM     27  C   UNL     1      10.486  15.893  17.286  0.00  0.00    +0.000 C 
ATOM     28  C   UNL     1       9.626  15.246  18.382  0.00  0.00    +0.000 C 
ENDBRANCH  21  22
ENDBRANCH  20  21
ENDBRANCH  19  20
ENDBRANCH  18  19
ENDBRANCH  17  18
ENDBRANCH  16  17
ENDBRANCH  15  16
ENDBRANCH   2  15
TORSDOF 12
ENDMDL
MODEL 5
REMARK VINA RESULT:      -6.7      1.749      2.187
REMARK  Name = 
REMARK  15 active torsions:
REMARK  status: ('A' for Active; 'I' for Inactive)
REMARK    1  A    between atoms: C_1  and  C_2
REMARK    2  A    between atoms: C_2  and  C_3
REMARK    3  A    between atoms: C_3  and  C_4
REMARK    4  A    between atoms: C_5  and  O_6
REMARK    5  A    between atoms: O_6  and  C_7
REMARK    6  A    between atoms: C_7  and  C_8
REMARK    7  A    between atoms: C_8  and  C_9
REMARK    8  A    between atoms: C_9  and  C_10
REMARK    9  A    between atoms: C_10  and  C_11
REMARK   10  A    between atoms: C_11  and  C_12
REMARK   11  A    between atoms: C_12  and  N_13
REMARK   12  A    between atoms: N_16  and  C_17
REMARK   13  A    between atoms: C_22  and  C_23
REMARK   14  A    between atoms: C_23  and  C_24
REMARK   15  A    between atoms: C_26  and  O_27
REMARK                            x       y       z     vdW  Elec       q    Type
REMARK                         _______ _______ _______ _____ _____    ______ ____
ROOT
ATOM      1  C   UNL     1       4.229   4.876  17.147  0.00  0.00    +0.000 A 
ATOM      2  C   UNL     1       4.884   5.685  18.108  0.00  0.00    +0.000 A 
ATOM      3  C   UNL     1       4.363   5.753  19.402  0.00  0.00    +0.000 A 
ATOM      4  C   UNL     1       3.267   5.013  19.784  0.00  0.00    +0.000 A 
ATOM      5  C   UNL     1       2.606   4.155  18.889  0.00  0.00    +0.000 A 
ATOM      6  C   UNL     1       3.098   4.105  17.541  0.00  0.00    +0.000 A 
ENDROOT
BRANCH   5   7
ATOM      7  C   UNL     1       1.433   3.345  19.395  0.00  0.00    +0.000 C 
ATOM      8  C   UNL     1       1.104   3.126  20.858  0.00  0.00    +0.000 C 
ATOM      9  O   UNL     1       0.682   2.796  18.616  0.00  0.00    +0.000 OA
ENDBRANCH   5   7
BRANCH   6  10
ATOM     10  O   UNL     1       2.541   3.318  16.584  0.00  0.00    +0.000 OA
ATOM     11  H   UNL     1       2.221   3.572  15.717  0.00  0.00    +0.000 HD
ENDBRANCH   6  10
BRANCH   1  12
ATOM     12  C   UNL     1       4.709   4.831  15.690  0.00  0.00    +0.000 C 
BRANCH  12  14
ATOM     13  C   UNL     1       6.697   4.207  14.224  0.00  0.00    +0.000 C 
ATOM     14  C   UNL     1       5.802   3.795  15.389  0.00  0.00    +0.000 C 
ENDBRANCH  12  14
ENDBRANCH   1  12
BRANCH   2  15
ATOM     15  O   UNL     1       6.000   6.398  17.790  0.00  0.00    +0.000 OA
BRANCH  15  16
ATOM     16  C   UNL     1       7.298   5.981  18.074  0.00  0.00    +0.000 C 
BRANCH  16  17
ATOM     17  C   UNL     1       8.161   7.157  18.514  0.00  0.00    +0.000 C 
BRANCH  17  18
ATOM     18  C   UNL     1       8.087   8.346  17.546  0.00  0.00    +0.000 C 
BRANCH  18  19
ATOM     19  C   UNL     1       8.017   9.726  18.241  0.00  0.00    +0.000 C 
BRANCH  19  20
ATOM     20  C   UNL     1       9.278  10.100  19.043  0.00  0.00    +0.000 C 
BRANCH  20  21
ATOM     21  C   UNL     1      10.143  11.136  18.302  0.00  0.00    +0.000 C 
BRANCH  21  22
ATOM     22  N   UNL     1      10.158  12.460  18.956  0.00  0.00    +0.000 NA
ATOM     23  C   UNL     1      10.112  12.262  20.421  0.00  0.00    +0.000 C 
ATOM     24  C   UNL     1      10.206  13.613  21.141  0.00  0.00    +0.000 C 
ATOM     25  N   UNL     1       9.140  14.542  20.716  0.00  0.00    +0.000 NA
ATOM     26  C   UNL     1       7.823  14.210  21.288  0.00  0.00    +0.000 C 
ATOM     27  C   UNL     1       9.105  14.672  19.246  0.00  0.00    +0.000 C 
ATOM     28  C   UNL     1       9.014  13.306  18.549  0.00  0.00    +0.000 C 
ENDBRANCH  21  22
ENDBRANCH  20  21
ENDBRANCH  19  20
ENDBRANCH  18  19
ENDBRANCH  17  18
ENDBRANCH  16  17
ENDBRANCH  15  16
ENDBRANCH   2  15
TORSDOF 12
ENDMDL
MODEL 6
REMARK VINA RESULT:      -6.6      6.999     10.341
REMARK  Name = 
REMARK  15 active torsions:
REMARK  status: ('A' for Active; 'I' for Inactive)
REMARK    1  A    between atoms: C_1  and  C_2
REMARK    2  A    between atoms: C_2  and  C_3
REMARK    3  A    between atoms: C_3  and  C_4
REMARK    4  A    between atoms: C_5  and  O_6
REMARK    5  A    between atoms: O_6  and  C_7
REMARK    6  A    between atoms: C_7  and  C_8
REMARK    7  A    between atoms: C_8  and  C_9
REMARK    8  A    between atoms: C_9  and  C_10
REMARK    9  A    between atoms: C_10  and  C_11
REMARK   10  A    between atoms: C_11  and  C_12
REMARK   11  A    between atoms: C_12  and  N_13
REMARK   12  A    between atoms: N_16  and  C_17
REMARK   13  A    between atoms: C_22  and  C_23
REMARK   14  A    between atoms: C_23  and  C_24
REMARK   15  A    between atoms: C_26  and  O_27
REMARK                            x       y       z     vdW  Elec       q    Type
REMARK                         _______ _______ _______ _____ _____    ______ ____
ROOT
ATOM      1  C   UNL     1       3.403   4.951  17.691  0.00  0.00    +0.000 A 
ATOM      2  C   UNL     1       3.267   6.359  17.734  0.00  0.00    +0.000 A 
ATOM      3  C   UNL     1       4.310   7.155  17.251  0.00  0.00    +0.000 A 
ATOM      4  C   UNL     1       5.438   6.607  16.684  0.00  0.00    +0.000 A 
ATOM      5  C   UNL     1       5.607   5.217  16.568  0.00  0.00    +0.000 A 
ATOM      6  C   UNL     1       4.568   4.381  17.099  0.00  0.00    +0.000 A 
ENDROOT
BRANCH   5   7
ATOM      7  C   UNL     1       6.858   4.693  15.896  0.00  0.00    +0.000 C 
ATOM      8  C   UNL     1       6.975   4.380  14.419  0.00  0.00    +0.000 C 
ATOM      9  O   UNL     1       7.860   4.476  16.546  0.00  0.00    +0.000 OA
ENDBRANCH   5   7
BRANCH   6  10
ATOM     10  O   UNL     1       4.618   3.025  17.050  0.00  0.00    +0.000 OA
ATOM     11  H   UNL     1       3.924   2.413  16.796  0.00  0.00    +0.000 HD
ENDBRANCH   6  10
BRANCH   1  12
ATOM     12  C   UNL     1       2.326   4.032  18.284  0.00  0.00    +0.000 C 
BRANCH  12  14
ATOM     13  C   UNL     1       1.214   4.347  20.554  0.00  0.00    +0.000 C 
ATOM     14  C   UNL     1       2.421   3.798  19.798  0.00  0.00    +0.000 C 
ENDBRANCH  12  14
ENDBRANCH   1  12
BRANCH   2  15
ATOM     15  O   UNL     1       2.149   6.947  18.242  0.00  0.00    +0.000 OA
BRANCH  15  16
ATOM     16  C   UNL     1       2.154   7.831  19.318  0.00  0.00    +0.000 C 
BRANCH  16  17
ATOM     17  C   UNL     1       1.380   9.101  18.981  0.00  0.00    +0.000 C 
BRANCH  17  18
ATOM     18  C   UNL     1       0.563   9.633  20.166  0.00  0.00    +0.000 C 
BRANCH  18  19
ATOM     19  C   UNL     1      -0.567  10.612  19.769  0.00  0.00    +0.000 C 
BRANCH  19  20
ATOM     20  C   UNL     1      -1.166  10.358  18.372  0.00  0.00    +0.000 C 
BRANCH  20  21
ATOM     21  C   UNL     1      -2.081  11.513  17.923  0.00  0.00    +0.000 C 
BRANCH  21  22
ATOM     22  N   UNL     1      -3.470  11.379  18.407  0.00  0.00    +0.000 NA
ATOM     23  C   UNL     1      -4.388  11.583  17.267  0.00  0.00    +0.000 C 
ATOM     24  C   UNL     1      -5.841  11.374  17.712  0.00  0.00    +0.000 C 
ATOM     25  N   UNL     1      -6.210  12.264  18.831  0.00  0.00    +0.000 NA
ATOM     26  C   UNL     1      -6.428  13.660  18.411  0.00  0.00    +0.000 C 
ATOM     27  C   UNL     1      -5.243  12.149  19.941  0.00  0.00    +0.000 C 
ATOM     28  C   UNL     1      -3.796  12.359  19.468  0.00  0.00    +0.000 C 
ENDBRANCH  21  22
ENDBRANCH  20  21
ENDBRANCH  19  20
ENDBRANCH  18  19
ENDBRANCH  17  18
ENDBRANCH  16  17
ENDBRANCH  15  16
ENDBRANCH   2  15
TORSDOF 12
ENDMDL
MODEL 7
REMARK VINA RESULT:      -6.6      6.367      9.998
REMARK  Name = 
REMARK  15 active torsions:
REMARK  status: ('A' for Active; 'I' for Inactive)
REMARK    1  A    between atoms: C_1  and  C_2
REMARK    2  A    between atoms: C_2  and  C_3
REMARK    3  A    between atoms: C_3  and  C_4
REMARK    4  A    between atoms: C_5  and  O_6
REMARK    5  A    between atoms: O_6  and  C_7
REMARK    6  A    between atoms: C_7  and  C_8
REMARK    7  A    between atoms: C_8  and  C_9
REMARK    8  A    between atoms: C_9  and  C_10
REMARK    9  A    between atoms: C_10  and  C_11
REMARK   10  A    between atoms: C_11  and  C_12
REMARK   11  A    between atoms: C_12  and  N_13
REMARK   12  A    between atoms: N_16  and  C_17
REMARK   13  A    between atoms: C_22  and  C_23
REMARK   14  A    between atoms: C_23  and  C_24
REMARK   15  A    between atoms: C_26  and  O_27
REMARK                            x       y       z     vdW  Elec       q    Type
REMARK                         _______ _______ _______ _____ _____    ______ ____
ROOT
ATOM      1  C   UNL     1       0.415   9.678  20.035  0.00  0.00    +0.000 A 
ATOM      2  C   UNL     1       1.063   8.703  20.830  0.00  0.00    +0.000 A 
ATOM      3  C   UNL     1       0.968   8.792  22.221  0.00  0.00    +0.000 A 
ATOM      4  C   UNL     1       0.217   9.768  22.836  0.00  0.00    +0.000 A 
ATOM      5  C   UNL     1      -0.489  10.733  22.098  0.00  0.00    +0.000 A 
ATOM      6  C   UNL     1      -0.369  10.686  20.669  0.00  0.00    +0.000 A 
ENDROOT
BRANCH   5   7
ATOM      7  C   UNL     1      -1.326  11.748  22.847  0.00  0.00    +0.000 C 
ATOM      8  C   UNL     1      -0.997  13.223  22.957  0.00  0.00    +0.000 C 
ATOM      9  O   UNL     1      -2.332  11.404  23.432  0.00  0.00    +0.000 OA
ENDBRANCH   5   7
BRANCH   6  10
ATOM     10  O   UNL     1      -0.999  11.565  19.848  0.00  0.00    +0.000 OA
ATOM     11  H   UNL     1      -1.590  11.377  19.115  0.00  0.00    +0.000 HD
ENDBRANCH   6  10
BRANCH   1  12
ATOM     12  C   UNL     1       0.555   9.675  18.506  0.00  0.00    +0.000 C 
BRANCH  12  14
ATOM     13  C   UNL     1       2.160  11.640  18.279  0.00  0.00    +0.000 C 
ATOM     14  C   UNL     1       1.906  10.168  17.968  0.00  0.00    +0.000 C 
ENDBRANCH  12  14
ENDBRANCH   1  12
BRANCH   2  15
ATOM     15  O   UNL     1       1.778   7.691  20.265  0.00  0.00    +0.000 OA
BRANCH  15  16
ATOM     16  C   UNL     1       1.942   6.435  20.845  0.00  0.00    +0.000 C 
BRANCH  16  17
ATOM     17  C   UNL     1       1.230   5.363  20.028  0.00  0.00    +0.000 C 
BRANCH  17  18
ATOM     18  C   UNL     1       1.411   3.953  20.608  0.00  0.00    +0.000 C 
BRANCH  18  19
ATOM     19  C   UNL     1       0.879   2.821  19.700  0.00  0.00    +0.000 C 
BRANCH  19  20
ATOM     20  C   UNL     1       1.620   2.681  18.356  0.00  0.00    +0.000 C 
BRANCH  20  21
ATOM     21  C   UNL     1       3.142   2.555  18.553  0.00  0.00    +0.000 C 
BRANCH  21  22
ATOM     22  N   UNL     1       3.873   3.808  18.274  0.00  0.00    +0.000 NA
ATOM     23  C   UNL     1       4.382   3.758  16.887  0.00  0.00    +0.000 C 
ATOM     24  C   UNL     1       5.081   5.076  16.531  0.00  0.00    +0.000 C 
ATOM     25  N   UNL     1       6.178   5.391  17.468  0.00  0.00    +0.000 NA
ATOM     26  C   UNL     1       7.382   4.572  17.245  0.00  0.00    +0.000 C 
ATOM     27  C   UNL     1       5.709   5.346  18.867  0.00  0.00    +0.000 C 
ATOM     28  C   UNL     1       5.011   4.017  19.197  0.00  0.00    +0.000 C 
ENDBRANCH  21  22
ENDBRANCH  20  21
ENDBRANCH  19  20
ENDBRANCH  18  19
ENDBRANCH  17  18
ENDBRANCH  16  17
ENDBRANCH  15  16
ENDBRANCH   2  15
TORSDOF 12
ENDMDL
MODEL 8
REMARK VINA RESULT:      -6.6      4.907      8.236
REMARK  Name = 
REMARK  15 active torsions:
REMARK  status: ('A' for Active; 'I' for Inactive)
REMARK    1  A    between atoms: C_1  and  C_2
REMARK    2  A    between atoms: C_2  and  C_3
REMARK    3  A    between atoms: C_3  and  C_4
REMARK    4  A    between atoms: C_5  and  O_6
REMARK    5  A    between atoms: O_6  and  C_7
REMARK    6  A    between atoms: C_7  and  C_8
REMARK    7  A    between atoms: C_8  and  C_9
REMARK    8  A    between atoms: C_9  and  C_10
REMARK    9  A    between atoms: C_10  and  C_11
REMARK   10  A    between atoms: C_11  and  C_12
REMARK   11  A    between atoms: C_12  and  N_13
REMARK   12  A    between atoms: N_16  and  C_17
REMARK   13  A    between atoms: C_22  and  C_23
REMARK   14  A    between atoms: C_23  and  C_24
REMARK   15  A    between atoms: C_26  and  O_27
REMARK                            x       y       z     vdW  Elec       q    Type
REMARK                         _______ _______ _______ _____ _____    ______ ____
ROOT
ATOM      1  C   UNL     1       6.765   5.227  16.638  0.00  0.00    +0.000 A 
ATOM      2  C   UNL     1       5.755   4.529  17.343  0.00  0.00    +0.000 A 
ATOM      3  C   UNL     1       4.878   3.707  16.631  0.00  0.00    +0.000 A 
ATOM      4  C   UNL     1       5.005   3.513  15.274  0.00  0.00    +0.000 A 
ATOM      5  C   UNL     1       6.019   4.138  14.529  0.00  0.00    +0.000 A 
ATOM      6  C   UNL     1       6.903   5.023  15.235  0.00  0.00    +0.000 A 
ENDROOT
BRANCH   5   7
ATOM      7  C   UNL     1       6.117   3.842  13.049  0.00  0.00    +0.000 C 
ATOM      8  C   UNL     1       4.980   3.315  12.198  0.00  0.00    +0.000 C 
ATOM      9  O   UNL     1       7.165   4.005  12.458  0.00  0.00    +0.000 OA
ENDBRANCH   5   7
BRANCH   6  10
ATOM     10  O   UNL     1       7.918   5.688  14.625  0.00  0.00    +0.000 OA
ATOM     11  H   UNL     1       8.139   5.711  13.692  0.00  0.00    +0.000 HD
ENDBRANCH   6  10
BRANCH   1  12
ATOM     12  C   UNL     1       7.701   6.207  17.359  0.00  0.00    +0.000 C 
BRANCH  12  14
ATOM     13  C   UNL     1       8.240   8.601  18.042  0.00  0.00    +0.000 C 
ATOM     14  C   UNL     1       7.215   7.662  17.413  0.00  0.00    +0.000 C 
ENDBRANCH  12  14
ENDBRANCH   1  12
BRANCH   2  15
ATOM     15  O   UNL     1       5.620   4.653  18.693  0.00  0.00    +0.000 OA
BRANCH  15  16
ATOM     16  C   UNL     1       4.775   5.572  19.310  0.00  0.00    +0.000 C 
BRANCH  16  17
ATOM     17  C   UNL     1       3.316   5.261  19.001  0.00  0.00    +0.000 C 
BRANCH  17  18
ATOM     18  C   UNL     1       2.503   4.907  20.254  0.00  0.00    +0.000 C 
BRANCH  18  19
ATOM     19  C   UNL     1       1.489   5.993  20.681  0.00  0.00    +0.000 C 
BRANCH  19  20
ATOM     20  C   UNL     1       1.963   7.438  20.435  0.00  0.00    +0.000 C 
BRANCH  20  21
ATOM     21  C   UNL     1       1.277   8.436  21.386  0.00  0.00    +0.000 C 
BRANCH  21  22
ATOM     22  N   UNL     1       0.921   9.713  20.736  0.00  0.00    +0.000 NA
ATOM     23  C   UNL     1      -0.468  10.059  21.106  0.00  0.00    +0.000 C 
ATOM     24  C   UNL     1      -0.850  11.422  20.513  0.00  0.00    +0.000 C 
ATOM     25  N   UNL     1      -0.689  11.451  19.046  0.00  0.00    +0.000 NA
ATOM     26  C   UNL     1      -1.754  10.725  18.333  0.00  0.00    +0.000 C 
ATOM     27  C   UNL     1       0.663  11.009  18.653  0.00  0.00    +0.000 C 
ATOM     28  C   UNL     1       1.023   9.645  19.261  0.00  0.00    +0.000 C 
ENDBRANCH  21  22
ENDBRANCH  20  21
ENDBRANCH  19  20
ENDBRANCH  18  19
ENDBRANCH  17  18
ENDBRANCH  16  17
ENDBRANCH  15  16
ENDBRANCH   2  15
TORSDOF 12
ENDMDL
MODEL 9
REMARK VINA RESULT:      -6.5      5.958      7.987
REMARK  Name = 
REMARK  15 active torsions:
REMARK  status: ('A' for Active; 'I' for Inactive)
REMARK    1  A    between atoms: C_1  and  C_2
REMARK    2  A    between atoms: C_2  and  C_3
REMARK    3  A    between atoms: C_3  and  C_4
REMARK    4  A    between atoms: C_5  and  O_6
REMARK    5  A    between atoms: O_6  and  C_7
REMARK    6  A    between atoms: C_7  and  C_8
REMARK    7  A    between atoms: C_8  and  C_9
REMARK    8  A    between atoms: C_9  and  C_10
REMARK    9  A    between atoms: C_10  and  C_11
REMARK   10  A    between atoms: C_11  and  C_12
REMARK   11  A    between atoms: C_12  and  N_13
REMARK   12  A    between atoms: N_16  and  C_17
REMARK   13  A    between atoms: C_22  and  C_23
REMARK   14  A    between atoms: C_23  and  C_24
REMARK   15  A    between atoms: C_26  and  O_27
REMARK                            x       y       z     vdW  Elec       q    Type
REMARK                         _______ _______ _______ _____ _____    ______ ____
ROOT
ATOM      1  C   UNL     1       3.282   4.165  18.139  0.00  0.00    +0.000 A 
ATOM      2  C   UNL     1       3.009   5.541  18.324  0.00  0.00    +0.000 A 
ATOM      3  C   UNL     1       3.888   6.484  17.785  0.00  0.00    +0.000 A 
ATOM      4  C   UNL     1       4.980   6.112  17.034  0.00  0.00    +0.000 A 
ATOM      5  C   UNL     1       5.274   4.763  16.774  0.00  0.00    +0.000 A 
ATOM      6  C   UNL     1       4.408   3.777  17.357  0.00  0.00    +0.000 A 
ENDROOT
BRANCH   5   7
ATOM      7  C   UNL     1       6.469   4.437  15.905  0.00  0.00    +0.000 C 
ATOM      8  C   UNL     1       6.385   3.937  14.477  0.00  0.00    +0.000 C 
ATOM      9  O   UNL     1       7.596   4.550  16.342  0.00  0.00    +0.000 OA
ENDBRANCH   5   7
BRANCH   6  10
ATOM     10  O   UNL     1       4.590   2.443  17.182  0.00  0.00    +0.000 OA
ATOM     11  H   UNL     1       5.412   1.947  17.196  0.00  0.00    +0.000 HD
ENDBRANCH   6  10
BRANCH   1  12
ATOM     12  C   UNL     1       2.395   3.088  18.780  0.00  0.00    +0.000 C 
BRANCH  12  14
ATOM     13  C   UNL     1       1.638   3.041  21.212  0.00  0.00    +0.000 C 
ATOM     14  C   UNL     1       2.755   2.713  20.225  0.00  0.00    +0.000 C 
ENDBRANCH  12  14
ENDBRANCH   1  12
BRANCH   2  15
ATOM     15  O   UNL     1       1.915   5.958  19.020  0.00  0.00    +0.000 OA
BRANCH  15  16
ATOM     16  C   UNL     1       1.968   6.506  20.300  0.00  0.00    +0.000 C 
BRANCH  16  17
ATOM     17  C   UNL     1       1.794   8.019  20.250  0.00  0.00    +0.000 C 
BRANCH  17  18
ATOM     18  C   UNL     1       1.268   8.603  21.569  0.00  0.00    +0.000 C 
BRANCH  18  19
ATOM     19  C   UNL     1      -0.224   9.009  21.532  0.00  0.00    +0.000 C 
BRANCH  19  20
ATOM     20  C   UNL     1      -0.474  10.478  21.140  0.00  0.00    +0.000 C 
BRANCH  20  21
ATOM     21  C   UNL     1      -0.849  10.617  19.653  0.00  0.00    +0.000 C 
BRANCH  21  22
ATOM     22  N   UNL     1      -0.235  11.793  19.004  0.00  0.00    +0.000 NA
ATOM     23  C   UNL     1       1.213  11.792  19.301  0.00  0.00    +0.000 C 
ATOM     24  C   UNL     1       1.903  12.956  18.577  0.00  0.00    +0.000 C 
ATOM     25  N   UNL     1       1.308  14.259  18.934  0.00  0.00    +0.000 NA
ATOM     26  C   UNL     1       1.698  14.725  20.276  0.00  0.00    +0.000 C 
ATOM     27  C   UNL     1      -0.155  14.245  18.740  0.00  0.00    +0.000 C 
ATOM     28  C   UNL     1      -0.821  13.069  19.471  0.00  0.00    +0.000 C 
ENDBRANCH  21  22
ENDBRANCH  20  21
ENDBRANCH  19  20
ENDBRANCH  18  19
ENDBRANCH  17  18
ENDBRANCH  16  17
ENDBRANCH  15  16
ENDBRANCH   2  15
TORSDOF 12
ENDMDL
