MODEL 1
REMARK VINA RESULT:      -6.2      0.000      0.000
REMARK  Name = 
REMARK  9 active torsions:
REMARK  status: ('A' for Active; 'I' for Inactive)
REMARK    1  A    between atoms: C_1  and  N_2
REMARK    2  A    between atoms: N_2  and  C_3
REMARK    3  A    between atoms: N_2  and  C_4
REMARK    4  A    between atoms: C_4  and  C_5
REMARK    5  A    between atoms: C_5  and  S_6
REMARK    6  A    between atoms: S_6  and  C_7
REMARK    7  A    between atoms: C_7  and  C_8
REMARK    8  A    between atoms: C_13  and  S_14
REMARK    9  A    between atoms: S_14  and  N_15
REMARK                            x       y       z     vdW  Elec       q    Type
REMARK                         _______ _______ _______ _____ _____    ______ ____
ROOT
ATOM      1  C   UNL     1       2.086   8.265  18.728  0.00  0.00    +0.000 A 
ATOM      2  C   UNL     1       2.051   7.272  19.708  0.00  0.00    +0.000 A 
ATOM      3  C   UNL     1       2.897   6.165  19.649  0.00  0.00    +0.000 A 
ATOM      4  C   UNL     1       3.806   6.062  18.581  0.00  0.00    +0.000 A 
ATOM      5  S   UNL     1       4.900   4.766  18.267  0.00  0.00    +0.000 S 
ATOM      6  C   UNL     1       5.529   5.532  16.881  0.00  0.00    +0.000 A 
ATOM      7  C   UNL     1       4.916   6.742  16.649  0.00  0.00    +0.000 A 
ATOM      8  C   UNL     1       3.898   7.057  17.607  0.00  0.00    +0.000 A 
ATOM      9  C   UNL     1       3.029   8.170  17.691  0.00  0.00    +0.000 A 
ENDROOT
BRANCH   6  10
ATOM     10  S   UNL     1       6.779   4.652  15.963  0.00  0.00    +0.000 S 
ATOM     11  O   UNL     1       6.110   3.459  15.493  0.00  0.00    +0.000 OA
ATOM     12  O   UNL     1       7.382   5.630  15.091  0.00  0.00    +0.000 OA
BRANCH  10  13
ATOM     13  N   UNL     1       7.938   4.165  17.070  0.00  0.00    +0.000 NA
ATOM     14  H   UNL     1       7.894   4.692  17.940  0.00  0.00    +0.000 HD
ATOM     15  H   UNL     1       8.861   4.077  16.650  0.00  0.00    +0.000 HD
ENDBRANCH  10  13
ENDBRANCH   6  10
BRANCH   1  16
ATOM     16  C   UNL     1       1.118   9.420  18.774  0.00  0.00    +0.000 C 
BRANCH  16  17
ATOM     17  S   UNL     1       0.631   9.879  20.461  0.00  0.00    +0.000 S 
BRANCH  17  18
ATOM     18  C   UNL     1      -0.666  11.109  20.075  0.00  0.00    +0.000 C 
BRANCH  18  19
ATOM     19  C   UNL     1      -0.491  11.561  18.617  0.00  0.00    +0.000 C 
BRANCH  19  21
ATOM     20  C   UNL     1      -0.805  13.766  19.505  0.00  0.00    +0.000 C 
ATOM     21  N   UNL     1      -0.141  12.986  18.450  0.00  0.00    +0.000 NA
ATOM     22  C   UNL     1       1.305  13.217  18.516  0.00  0.00    +0.000 C 
ENDBRANCH  19  21
ENDBRANCH  18  19
ENDBRANCH  17  18
ENDBRANCH  16  17
ENDBRANCH   1  16
TORSDOF 7
ENDMDL
MODEL 2
REMARK VINA RESULT:      -6.2      5.589      6.894
REMARK  Name = 
REMARK  9 active torsions:
REMARK  status: ('A' for Active; 'I' for Inactive)
REMARK    1  A    between atoms: C_1  and  N_2
REMARK    2  A    between atoms: N_2  and  C_3
REMARK    3  A    between atoms: N_2  and  C_4
REMARK    4  A    between atoms: C_4  and  C_5
REMARK    5  A    between atoms: C_5  and  S_6
REMARK    6  A    between atoms: S_6  and  C_7
REMARK    7  A    between atoms: C_7  and  C_8
REMARK    8  A    between atoms: C_13  and  S_14
REMARK    9  A    between atoms: S_14  and  N_15
REMARK                            x       y       z     vdW  Elec       q    Type
REMARK                         _______ _______ _______ _____ _____    ______ ____
ROOT
ATOM      1  C   UNL     1       7.285   7.387  17.804  0.00  0.00    +0.000 A 
ATOM      2  C   UNL     1       7.856   6.511  18.729  0.00  0.00    +0.000 A 
ATOM      3  C   UNL     1       7.168   5.383  19.178  0.00  0.00    +0.000 A 
ATOM      4  C   UNL     1       5.880   5.129  18.675  0.00  0.00    +0.000 A 
ATOM      5  S   UNL     1       4.824   3.842  19.124  0.00  0.00    +0.000 S 
ATOM      6  C   UNL     1       3.620   4.346  18.028  0.00  0.00    +0.000 A 
ATOM      7  C   UNL     1       4.001   5.475  17.341  0.00  0.00    +0.000 A 
ATOM      8  C   UNL     1       5.296   5.961  17.718  0.00  0.00    +0.000 A 
ATOM      9  C   UNL     1       6.015   7.097  17.279  0.00  0.00    +0.000 A 
ENDROOT
BRANCH   6  10
ATOM     10  S   UNL     1       2.105   3.406  17.996  0.00  0.00    +0.000 S 
ATOM     11  O   UNL     1       1.174   4.243  17.272  0.00  0.00    +0.000 OA
ATOM     12  O   UNL     1       2.481   2.077  17.579  0.00  0.00    +0.000 OA
BRANCH  10  13
ATOM     13  N   UNL     1       1.561   3.313  19.577  0.00  0.00    +0.000 NA
ATOM     14  H   UNL     1       1.947   4.047  20.168  0.00  0.00    +0.000 HD
ATOM     15  H   UNL     1       1.615   2.368  19.951  0.00  0.00    +0.000 HD
ENDBRANCH  10  13
ENDBRANCH   6  10
BRANCH   1  16
ATOM     16  C   UNL     1       8.017   8.636  17.381  0.00  0.00    +0.000 C 
BRANCH  16  17
ATOM     17  S   UNL     1       8.848   9.478  18.758  0.00  0.00    +0.000 S 
BRANCH  17  18
ATOM     18  C   UNL     1       8.928  11.171  18.069  0.00  0.00    +0.000 C 
BRANCH  18  19
ATOM     19  C   UNL     1      10.399  11.613  18.034  0.00  0.00    +0.000 C 
BRANCH  19  21
ATOM     20  C   UNL     1      10.103  13.990  18.159  0.00  0.00    +0.000 C 
ATOM     21  N   UNL     1      10.643  12.894  17.340  0.00  0.00    +0.000 NA
ATOM     22  C   UNL     1      12.067  13.131  17.093  0.00  0.00    +0.000 C 
ENDBRANCH  19  21
ENDBRANCH  18  19
ENDBRANCH  17  18
ENDBRANCH  16  17
ENDBRANCH   1  16
TORSDOF 7
ENDMDL
MODEL 3
REMARK VINA RESULT:      -6.2      1.050      1.352
REMARK  Name = 
REMARK  9 active torsions:
REMARK  status: ('A' for Active; 'I' for Inactive)
REMARK    1  A    between atoms: C_1  and  N_2
REMARK    2  A    between atoms: N_2  and  C_3
REMARK    3  A    between atoms: N_2  and  C_4
REMARK    4  A    between atoms: C_4  and  C_5
REMARK    5  A    between atoms: C_5  and  S_6
REMARK    6  A    between atoms: S_6  and  C_7
REMARK    7  A    between atoms: C_7  and  C_8
REMARK    8  A    between atoms: C_13  and  S_14
REMARK    9  A    between atoms: S_14  and  N_15
REMARK                            x       y       z     vdW  Elec       q    Type
REMARK                         _______ _______ _______ _____ _____    ______ ____
ROOT
ATOM      1  C   UNL     1       2.224   7.973  18.846  0.00  0.00    +0.000 A 
ATOM      2  C   UNL     1       2.231   6.966  19.813  0.00  0.00    +0.000 A 
ATOM      3  C   UNL     1       3.088   5.870  19.711  0.00  0.00    +0.000 A 
ATOM      4  C   UNL     1       3.965   5.794  18.614  0.00  0.00    +0.000 A 
ATOM      5  S   UNL     1       5.064   4.517  18.248  0.00  0.00    +0.000 S 
ATOM      6  C   UNL     1       5.641   5.311  16.854  0.00  0.00    +0.000 A 
ATOM      7  C   UNL     1       5.007   6.516  16.659  0.00  0.00    +0.000 A 
ATOM      8  C   UNL     1       4.015   6.805  17.652  0.00  0.00    +0.000 A 
ATOM      9  C   UNL     1       3.136   7.905  17.779  0.00  0.00    +0.000 A 
ENDROOT
BRANCH   6  10
ATOM     10  S   UNL     1       6.872   4.459  15.886  0.00  0.00    +0.000 S 
ATOM     11  O   UNL     1       7.961   4.226  16.808  0.00  0.00    +0.000 OA
ATOM     12  O   UNL     1       6.165   3.407  15.196  0.00  0.00    +0.000 OA
BRANCH  10  13
ATOM     13  N   UNL     1       7.421   5.548  14.737  0.00  0.00    +0.000 NA
ATOM     14  H   UNL     1       7.652   6.456  15.136  0.00  0.00    +0.000 HD
ATOM     15  H   UNL     1       6.832   5.564  13.907  0.00  0.00    +0.000 HD
ENDBRANCH  10  13
ENDBRANCH   6  10
BRANCH   1  16
ATOM     16  C   UNL     1       1.243   9.116  18.939  0.00  0.00    +0.000 C 
BRANCH  16  17
ATOM     17  S   UNL     1       0.732   9.483  20.641  0.00  0.00    +0.000 S 
BRANCH  17  18
ATOM     18  C   UNL     1       0.809  11.310  20.589  0.00  0.00    +0.000 C 
BRANCH  18  19
ATOM     19  C   UNL     1      -0.528  11.838  20.047  0.00  0.00    +0.000 C 
BRANCH  19  21
ATOM     20  C   UNL     1      -1.798  11.760  18.015  0.00  0.00    +0.000 C 
ATOM     21  N   UNL     1      -0.521  12.180  18.610  0.00  0.00    +0.000 NA
ATOM     22  C   UNL     1      -0.327  13.613  18.378  0.00  0.00    +0.000 C 
ENDBRANCH  19  21
ENDBRANCH  18  19
ENDBRANCH  17  18
ENDBRANCH  16  17
ENDBRANCH   1  16
TORSDOF 7
ENDMDL
MODEL 4
REMARK VINA RESULT:      -6.2      1.069      1.466
REMARK  Name = 
REMARK  9 active torsions:
REMARK  status: ('A' for Active; 'I' for Inactive)
REMARK    1  A    between atoms: C_1  and  N_2
REMARK    2  A    between atoms: N_2  and  C_3
REMARK    3  A    between atoms: N_2  and  C_4
REMARK    4  A    between atoms: C_4  and  C_5
REMARK    5  A    between atoms: C_5  and  S_6
REMARK    6  A    between atoms: S_6  and  C_7
REMARK    7  A    between atoms: C_7  and  C_8
REMARK    8  A    between atoms: C_13  and  S_14
REMARK    9  A    between atoms: S_14  and  N_15
REMARK                            x       y       z     vdW  Elec       q    Type
REMARK                         _______ _______ _______ _____ _____    ______ ____
ROOT
ATOM      1  C   UNL     1       2.171   8.201  18.674  0.00  0.00    +0.000 A 
ATOM      2  C   UNL     1       2.132   7.213  19.659  0.00  0.00    +0.000 A 
ATOM      3  C   UNL     1       2.970   6.099  19.601  0.00  0.00    +0.000 A 
ATOM      4  C   UNL     1       3.874   5.985  18.530  0.00  0.00    +0.000 A 
ATOM      5  S   UNL     1       4.958   4.680  18.218  0.00  0.00    +0.000 S 
ATOM      6  C   UNL     1       5.588   5.436  16.826  0.00  0.00    +0.000 A 
ATOM      7  C   UNL     1       4.983   6.649  16.591  0.00  0.00    +0.000 A 
ATOM      8  C   UNL     1       3.970   6.976  17.551  0.00  0.00    +0.000 A 
ATOM      9  C   UNL     1       3.110   8.095  17.634  0.00  0.00    +0.000 A 
ENDROOT
BRANCH   6  10
ATOM     10  S   UNL     1       6.828   4.543  15.908  0.00  0.00    +0.000 S 
ATOM     11  O   UNL     1       7.918   4.372  16.842  0.00  0.00    +0.000 OA
ATOM     12  O   UNL     1       6.131   3.447  15.278  0.00  0.00    +0.000 OA
BRANCH  10  13
ATOM     13  N   UNL     1       7.367   5.570  14.700  0.00  0.00    +0.000 NA
ATOM     14  H   UNL     1       8.205   5.224  14.236  0.00  0.00    +0.000 HD
ATOM     15  H   UNL     1       7.396   6.542  15.002  0.00  0.00    +0.000 HD
ENDBRANCH  10  13
ENDBRANCH   6  10
BRANCH   1  16
ATOM     16  C   UNL     1       1.211   9.363  18.718  0.00  0.00    +0.000 C 
BRANCH  16  17
ATOM     17  S   UNL     1       0.382   9.545  20.323  0.00  0.00    +0.000 S 
BRANCH  17  18
ATOM     18  C   UNL     1      -0.058  11.318  20.233  0.00  0.00    +0.000 C 
BRANCH  18  19
ATOM     19  C   UNL     1       1.237  12.138  20.134  0.00  0.00    +0.000 C 
BRANCH  19  21
ATOM     20  C   UNL     1       2.314  12.978  18.163  0.00  0.00    +0.000 C 
ATOM     21  N   UNL     1       1.216  13.206  19.115  0.00  0.00    +0.000 NA
ATOM     22  C   UNL     1      -0.054  13.256  18.385  0.00  0.00    +0.000 C 
ENDBRANCH  19  21
ENDBRANCH  18  19
ENDBRANCH  17  18
ENDBRANCH  16  17
ENDBRANCH   1  16
TORSDOF 7
ENDMDL
MODEL 5
REMARK VINA RESULT:      -6.2      0.736      1.146
REMARK  Name = 
REMARK  9 active torsions:
REMARK  status: ('A' for Active; 'I' for Inactive)
REMARK    1  A    between atoms: C_1  and  N_2
REMARK    2  A    between atoms: N_2  and  C_3
REMARK    3  A    between atoms: N_2  and  C_4
REMARK    4  A    between atoms: C_4  and  C_5
REMARK    5  A    between atoms: C_5  and  S_6
REMARK    6  A    between atoms: S_6  and  C_7
REMARK    7  A    between atoms: C_7  and  C_8
REMARK    8  A    between atoms: C_13  and  S_14
REMARK    9  A    between atoms: S_14  and  N_15
REMARK                            x       y       z     vdW  Elec       q    Type
REMARK                         _______ _______ _______ _____ _____    ______ ____
ROOT
ATOM      1  C   UNL     1       2.118   8.278  18.669  0.00  0.00    +0.000 A 
ATOM      2  C   UNL     1       2.095   7.290  19.655  0.00  0.00    +0.000 A 
ATOM      3  C   UNL     1       2.946   6.186  19.594  0.00  0.00    +0.000 A 
ATOM      4  C   UNL     1       3.847   6.082  18.520  0.00  0.00    +0.000 A 
ATOM      5  S   UNL     1       4.944   4.789  18.204  0.00  0.00    +0.000 S 
ATOM      6  C   UNL     1       5.559   5.551  16.808  0.00  0.00    +0.000 A 
ATOM      7  C   UNL     1       4.938   6.757  16.575  0.00  0.00    +0.000 A 
ATOM      8  C   UNL     1       3.926   7.073  17.540  0.00  0.00    +0.000 A 
ATOM      9  C   UNL     1       3.053   8.182  17.625  0.00  0.00    +0.000 A 
ENDROOT
BRANCH   6  10
ATOM     10  S   UNL     1       6.805   4.672  15.885  0.00  0.00    +0.000 S 
ATOM     11  O   UNL     1       6.127   3.492  15.394  0.00  0.00    +0.000 OA
ATOM     12  O   UNL     1       7.423   5.656  15.030  0.00  0.00    +0.000 OA
BRANCH  10  13
ATOM     13  N   UNL     1       7.953   4.158  16.991  0.00  0.00    +0.000 NA
ATOM     14  H   UNL     1       7.657   4.296  17.956  0.00  0.00    +0.000 HD
ATOM     15  H   UNL     1       8.887   4.490  16.761  0.00  0.00    +0.000 HD
ENDBRANCH  10  13
ENDBRANCH   6  10
BRANCH   1  16
ATOM     16  C   UNL     1       1.145   9.429  18.717  0.00  0.00    +0.000 C 
BRANCH  16  17
ATOM     17  S   UNL     1       0.491   9.744  20.380  0.00  0.00    +0.000 S 
BRANCH  17  18
ATOM     18  C   UNL     1       0.571  11.571  20.393  0.00  0.00    +0.000 C 
BRANCH  18  19
ATOM     19  C   UNL     1       0.047  12.091  19.046  0.00  0.00    +0.000 C 
BRANCH  19  21
ATOM     20  C   UNL     1      -2.203  11.681  18.328  0.00  0.00    +0.000 C 
ATOM     21  N   UNL     1      -1.338  12.604  19.077  0.00  0.00    +0.000 NA
ATOM     22  C   UNL     1      -1.849  12.745  20.443  0.00  0.00    +0.000 C 
ENDBRANCH  19  21
ENDBRANCH  18  19
ENDBRANCH  17  18
ENDBRANCH  16  17
ENDBRANCH   1  16
TORSDOF 7
ENDMDL
MODEL 6
REMARK VINA RESULT:      -6.1      5.639      6.975
REMARK  Name = 
REMARK  9 active torsions:
REMARK  status: ('A' for Active; 'I' for Inactive)
REMARK    1  A    between atoms: C_1  and  N_2
REMARK    2  A    between atoms: N_2  and  C_3
REMARK    3  A    between atoms: N_2  and  C_4
REMARK    4  A    between atoms: C_4  and  C_5
REMARK    5  A    between atoms: C_5  and  S_6
REMARK    6  A    between atoms: S_6  and  C_7
REMARK    7  A    between atoms: C_7  and  C_8
REMARK    8  A    between atoms: C_13  and  S_14
REMARK    9  A    between atoms: S_14  and  N_15
REMARK                            x       y       z     vdW  Elec       q    Type
REMARK                         _______ _______ _______ _____ _____    ______ ____
ROOT
ATOM      1  C   UNL     1       7.274   7.381  17.835  0.00  0.00    +0.000 A 
ATOM      2  C   UNL     1       7.883   6.460  18.688  0.00  0.00    +0.000 A 
ATOM      3  C   UNL     1       7.201   5.329  19.138  0.00  0.00    +0.000 A 
ATOM      4  C   UNL     1       5.879   5.118  18.709  0.00  0.00    +0.000 A 
ATOM      5  S   UNL     1       4.826   3.834  19.176  0.00  0.00    +0.000 S 
ATOM      6  C   UNL     1       3.566   4.402  18.178  0.00  0.00    +0.000 A 
ATOM      7  C   UNL     1       3.928   5.551  17.511  0.00  0.00    +0.000 A 
ATOM      8  C   UNL     1       5.254   5.997  17.823  0.00  0.00    +0.000 A 
ATOM      9  C   UNL     1       5.967   7.135  17.382  0.00  0.00    +0.000 A 
ENDROOT
BRANCH   6  10
ATOM     10  S   UNL     1       2.033   3.493  18.207  0.00  0.00    +0.000 S 
ATOM     11  O   UNL     1       1.677   3.428  19.607  0.00  0.00    +0.000 OA
ATOM     12  O   UNL     1       1.202   4.099  17.195  0.00  0.00    +0.000 OA
BRANCH  10  13
ATOM     13  N   UNL     1       2.388   1.932  17.713  0.00  0.00    +0.000 NA
ATOM     14  H   UNL     1       3.352   1.830  17.401  0.00  0.00    +0.000 HD
ATOM     15  H   UNL     1       1.677   1.551  17.093  0.00  0.00    +0.000 HD
ENDBRANCH  10  13
ENDBRANCH   6  10
BRANCH   1  16
ATOM     16  C   UNL     1       8.004   8.632  17.414  0.00  0.00    +0.000 C 
BRANCH  16  17
ATOM     17  S   UNL     1       8.845   9.466  18.789  0.00  0.00    +0.000 S 
BRANCH  17  18
ATOM     18  C   UNL     1       9.040  11.130  18.055  0.00  0.00    +0.000 C 
BRANCH  18  19
ATOM     19  C   UNL     1       9.691  12.050  19.099  0.00  0.00    +0.000 C 
BRANCH  19  21
ATOM     20  C   UNL     1      11.246  13.865  19.296  0.00  0.00    +0.000 C 
ATOM     21  N   UNL     1      11.051  12.513  18.753  0.00  0.00    +0.000 NA
ATOM     22  C   UNL     1      12.092  11.626  19.279  0.00  0.00    +0.000 C 
ENDBRANCH  19  21
ENDBRANCH  18  19
ENDBRANCH  17  18
ENDBRANCH  16  17
ENDBRANCH   1  16
TORSDOF 7
ENDMDL
MODEL 7
REMARK VINA RESULT:      -6.1      3.102      4.079
REMARK  Name = 
REMARK  9 active torsions:
REMARK  status: ('A' for Active; 'I' for Inactive)
REMARK    1  A    between atoms: C_1  and  N_2
REMARK    2  A    between atoms: N_2  and  C_3
REMARK    3  A    between atoms: N_2  and  C_4
REMARK    4  A    between atoms: C_4  and  C_5
REMARK    5  A    between atoms: C_5  and  S_6
REMARK    6  A    between atoms: S_6  and  C_7
REMARK    7  A    between atoms: C_7  and  C_8
REMARK    8  A    between atoms: C_13  and  S_14
REMARK    9  A    between atoms: S_14  and  N_15
REMARK                            x       y       z     vdW  Elec       q    Type
REMARK                         _______ _______ _______ _____ _____    ______ ____
ROOT
ATOM      1  C   UNL     1       1.382   8.912  19.787  0.00  0.00    +0.000 A 
ATOM      2  C   UNL     1       1.924   8.903  18.501  0.00  0.00    +0.000 A 
ATOM      3  C   UNL     1       2.551   7.768  17.987  0.00  0.00    +0.000 A 
ATOM      4  C   UNL     1       2.624   6.613  18.785  0.00  0.00    +0.000 A 
ATOM      5  S   UNL     1       3.396   5.122  18.390  0.00  0.00    +0.000 S 
ATOM      6  C   UNL     1       2.943   4.407  19.870  0.00  0.00    +0.000 A 
ATOM      7  C   UNL     1       2.231   5.282  20.657  0.00  0.00    +0.000 A 
ATOM      8  C   UNL     1       2.056   6.573  20.059  0.00  0.00    +0.000 A 
ATOM      9  C   UNL     1       1.425   7.737  20.557  0.00  0.00    +0.000 A 
ENDROOT
BRANCH   6  10
ATOM     10  S   UNL     1       3.496   2.739  20.168  0.00  0.00    +0.000 S 
ATOM     11  O   UNL     1       4.870   2.727  19.720  0.00  0.00    +0.000 OA
ATOM     12  O   UNL     1       3.089   2.431  21.518  0.00  0.00    +0.000 OA
BRANCH  10  13
ATOM     13  N   UNL     1       2.628   1.750  19.132  0.00  0.00    +0.000 NA
ATOM     14  H   UNL     1       2.775   0.760  19.319  0.00  0.00    +0.000 HD
ATOM     15  H   UNL     1       2.717   2.036  18.159  0.00  0.00    +0.000 HD
ENDBRANCH  10  13
ENDBRANCH   6  10
BRANCH   1  16
ATOM     16  C   UNL     1       0.768  10.169  20.350  0.00  0.00    +0.000 C 
BRANCH  16  17
ATOM     17  S   UNL     1       0.066  11.254  19.075  0.00  0.00    +0.000 S 
BRANCH  17  18
ATOM     18  C   UNL     1      -1.520  10.391  18.787  0.00  0.00    +0.000 C 
BRANCH  18  19
ATOM     19  C   UNL     1      -1.585   9.971  17.310  0.00  0.00    +0.000 C 
BRANCH  19  21
ATOM     20  C   UNL     1      -2.920  10.055  15.320  0.00  0.00    +0.000 C 
ATOM     21  N   UNL     1      -2.417  10.843  16.456  0.00  0.00    +0.000 NA
ATOM     22  C   UNL     1      -3.550  11.420  17.184  0.00  0.00    +0.000 C 
ENDBRANCH  19  21
ENDBRANCH  18  19
ENDBRANCH  17  18
ENDBRANCH  16  17
ENDBRANCH   1  16
TORSDOF 7
ENDMDL
MODEL 8
REMARK VINA RESULT:      -6.1      1.042      1.296
REMARK  Name = 
REMARK  9 active torsions:
REMARK  status: ('A' for Active; 'I' for Inactive)
REMARK    1  A    between atoms: C_1  and  N_2
REMARK    2  A    between atoms: N_2  and  C_3
REMARK    3  A    between atoms: N_2  and  C_4
REMARK    4  A    between atoms: C_4  and  C_5
REMARK    5  A    between atoms: C_5  and  S_6
REMARK    6  A    between atoms: S_6  and  C_7
REMARK    7  A    between atoms: C_7  and  C_8
REMARK    8  A    between atoms: C_13  and  S_14
REMARK    9  A    between atoms: S_14  and  N_15
REMARK                            x       y       z     vdW  Elec       q    Type
REMARK                         _______ _______ _______ _____ _____    ______ ____
ROOT
ATOM      1  C   UNL     1       2.071   8.134  18.834  0.00  0.00    +0.000 A 
ATOM      2  C   UNL     1       2.083   7.136  19.810  0.00  0.00    +0.000 A 
ATOM      3  C   UNL     1       2.957   6.052  19.726  0.00  0.00    +0.000 A 
ATOM      4  C   UNL     1       3.845   5.978  18.638  0.00  0.00    +0.000 A 
ATOM      5  S   UNL     1       4.966   4.714  18.294  0.00  0.00    +0.000 S 
ATOM      6  C   UNL     1       5.544   5.503  16.898  0.00  0.00    +0.000 A 
ATOM      7  C   UNL     1       4.895   6.697  16.686  0.00  0.00    +0.000 A 
ATOM      8  C   UNL     1       3.889   6.980  17.668  0.00  0.00    +0.000 A 
ATOM      9  C   UNL     1       2.993   8.069  17.776  0.00  0.00    +0.000 A 
ENDROOT
BRANCH   6  10
ATOM     10  S   UNL     1       6.796   4.661  15.949  0.00  0.00    +0.000 S 
ATOM     11  O   UNL     1       6.134   3.478  15.444  0.00  0.00    +0.000 OA
ATOM     12  O   UNL     1       7.389   5.670  15.105  0.00  0.00    +0.000 OA
BRANCH  10  13
ATOM     13  N   UNL     1       7.964   4.149  17.036  0.00  0.00    +0.000 NA
ATOM     14  H   UNL     1       8.910   4.310  16.698  0.00  0.00    +0.000 HD
ATOM     15  H   UNL     1       7.773   3.217  17.398  0.00  0.00    +0.000 HD
ENDBRANCH  10  13
ENDBRANCH   6  10
BRANCH   1  16
ATOM     16  C   UNL     1       1.073   9.263  18.907  0.00  0.00    +0.000 C 
BRANCH  16  17
ATOM     17  S   UNL     1       1.750  10.852  18.350  0.00  0.00    +0.000 S 
BRANCH  17  18
ATOM     18  C   UNL     1       1.039  11.947  19.630  0.00  0.00    +0.000 C 
BRANCH  18  19
ATOM     19  C   UNL     1      -0.188  12.656  19.038  0.00  0.00    +0.000 C 
BRANCH  19  21
ATOM     20  C   UNL     1      -2.425  12.615  19.903  0.00  0.00    +0.000 C 
ATOM     21  N   UNL     1      -1.442  11.877  19.096  0.00  0.00    +0.000 NA
ATOM     22  C   UNL     1      -2.001  11.622  17.766  0.00  0.00    +0.000 C 
ENDBRANCH  19  21
ENDBRANCH  18  19
ENDBRANCH  17  18
ENDBRANCH  16  17
ENDBRANCH   1  16
TORSDOF 7
ENDMDL
MODEL 9
REMARK VINA RESULT:      -6.1      4.444      8.160
REMARK  Name = 
REMARK  9 active torsions:
REMARK  status: ('A' for Active; 'I' for Inactive)
REMARK    1  A    between atoms: C_1  and  N_2
REMARK    2  A    between atoms: N_2  and  C_3
REMARK    3  A    between atoms: N_2  and  C_4
REMARK    4  A    between atoms: C_4  and  C_5
REMARK    5  A    between atoms: C_5  and  S_6
REMARK    6  A    between atoms: S_6  and  C_7
REMARK    7  A    between atoms: C_7  and  C_8
REMARK    8  A    between atoms: C_13  and  S_14
REMARK    9  A    between atoms: S_14  and  N_15
REMARK                            x       y       z     vdW  Elec       q    Type
REMARK                         _______ _______ _______ _____ _____    ______ ____
ROOT
ATOM      1  C   UNL     1       2.847   6.997  18.474  0.00  0.00    +0.000 A 
ATOM      2  C   UNL     1       2.461   6.750  19.792  0.00  0.00    +0.000 A 
ATOM      3  C   UNL     1       1.662   7.652  20.494  0.00  0.00    +0.000 A 
ATOM      4  C   UNL     1       1.236   8.826  19.848  0.00  0.00    +0.000 A 
ATOM      5  S   UNL     1       0.300  10.106  20.527  0.00  0.00    +0.000 S 
ATOM      6  C   UNL     1       0.288  10.977  19.061  0.00  0.00    +0.000 A 
ATOM      7  C   UNL     1       0.990  10.320  18.076  0.00  0.00    +0.000 A 
ATOM      8  C   UNL     1       1.568   9.084  18.517  0.00  0.00    +0.000 A 
ATOM      9  C   UNL     1       2.378   8.153  17.828  0.00  0.00    +0.000 A 
ENDROOT
BRANCH   6  10
ATOM     10  S   UNL     1      -0.540  12.555  19.061  0.00  0.00    +0.000 S 
ATOM     11  O   UNL     1      -1.700  12.356  19.901  0.00  0.00    +0.000 OA
ATOM     12  O   UNL     1       0.486  13.533  19.330  0.00  0.00    +0.000 OA
BRANCH  10  13
ATOM     13  N   UNL     1      -1.096  12.809  17.502  0.00  0.00    +0.000 NA
ATOM     14  H   UNL     1      -0.347  12.800  16.813  0.00  0.00    +0.000 HD
ATOM     15  H   UNL     1      -1.744  13.592  17.445  0.00  0.00    +0.000 HD
ENDBRANCH  10  13
ENDBRANCH   6  10
BRANCH   1  16
ATOM     16  C   UNL     1       3.767   6.042  17.754  0.00  0.00    +0.000 C 
BRANCH  16  17
ATOM     17  S   UNL     1       4.771   5.031  18.879  0.00  0.00    +0.000 S 
BRANCH  17  18
ATOM     18  C   UNL     1       3.966   3.409  18.624  0.00  0.00    +0.000 C 
BRANCH  18  19
ATOM     19  C   UNL     1       3.471   2.891  19.983  0.00  0.00    +0.000 C 
BRANCH  19  21
ATOM     20  C   UNL     1       1.194   2.984  19.236  0.00  0.00    +0.000 C 
ATOM     21  N   UNL     1       2.103   3.313  20.345  0.00  0.00    +0.000 NA
ATOM     22  C   UNL     1       1.626   2.666  21.570  0.00  0.00    +0.000 C 
ENDBRANCH  19  21
ENDBRANCH  18  19
ENDBRANCH  17  18
ENDBRANCH  16  17
ENDBRANCH   1  16
TORSDOF 7
ENDMDL
