MODEL 1
REMARK VINA RESULT:      -7.4      0.000      0.000
REMARK  Name = 
REMARK  11 active torsions:
REMARK  status: ('A' for Active; 'I' for Inactive)
REMARK    1  A    between atoms: C_1  and  C_2
REMARK    2  A    between atoms: C_2  and  C_3
REMARK    3  A    between atoms: C_3  and  N_4
REMARK    4  A    between atoms: N_4  and  C_5
REMARK    5  A    between atoms: N_4  and  C_8
REMARK    6  A    between atoms: C_8  and  C_9
REMARK    7  A    between atoms: C_8  and  C_10
REMARK    8  A    between atoms: C_10  and  O_11
REMARK    9  A    between atoms: C_10  and  C_12
REMARK   10  A    between atoms: C_10  and  C_18
REMARK   11  A    between atoms: C_12  and  N_13
REMARK                            x       y       z     vdW  Elec       q    Type
REMARK                         _______ _______ _______ _____ _____    ______ ____
ROOT
ATOM      1  C   UNL     1       3.167   5.705  18.764  0.00  0.00    +0.000 C 
ENDROOT
BRANCH   1   2
ATOM      2  C   UNL     1       2.522   7.100  18.808  0.00  0.00    +0.000 A 
ATOM      3  C   UNL     1       2.587   7.998  17.720  0.00  0.00    +0.000 A 
ATOM      4  C   UNL     1       2.036   9.284  17.798  0.00  0.00    +0.000 A 
ATOM      5  C   UNL     1       1.433   9.704  18.973  0.00  0.00    +0.000 A 
ATOM      6  F   UNL     1       0.964  10.954  19.064  0.00  0.00    +0.000 F 
ATOM      7  C   UNL     1       1.329   8.849  20.059  0.00  0.00    +0.000 A 
ATOM      8  C   UNL     1       1.838   7.558  19.960  0.00  0.00    +0.000 A 
ATOM      9  F   UNL     1       1.758   6.785  21.054  0.00  0.00    +0.000 F 
ENDBRANCH   1   2
BRANCH   1  10
ATOM     10  C   UNL     1       3.877   5.331  17.349  0.00  0.00    +0.000 C 
ATOM     11  C   UNL     1       3.384   3.911  16.913  0.00  0.00    +0.000 C 
BRANCH  10  12
ATOM     12  N   UNL     1       5.388   5.339  17.202  0.00  0.00    +0.000 NA
BRANCH  12  13
ATOM     13  C   UNL     1       5.914   4.367  16.200  0.00  0.00    +0.000 C 
ATOM     14  C   UNL     1       5.737   4.619  14.712  0.00  0.00    +0.000 C 
ATOM     15  C   UNL     1       7.092   4.748  15.337  0.00  0.00    +0.000 C 
ENDBRANCH  12  13
BRANCH  12  16
ATOM     16  C   UNL     1       6.031   6.644  16.995  0.00  0.00    +0.000 C 
BRANCH  16  18
ATOM     17  C   UNL     1       7.486   5.869  18.891  0.00  0.00    +0.000 C 
ATOM     18  C   UNL     1       7.254   6.965  17.856  0.00  0.00    +0.000 C 
ENDBRANCH  16  18
ENDBRANCH  12  16
ENDBRANCH  10  12
ENDBRANCH   1  10
BRANCH   1  19
ATOM     19  O   UNL     1       4.169   5.582  19.795  0.00  0.00    +0.000 OA
ATOM     20  H   UNL     1       4.753   4.839  19.550  0.00  0.00    +0.000 HD
ENDBRANCH   1  19
BRANCH   1  21
ATOM     21  C   UNL     1       2.088   4.598  19.080  0.00  0.00    +0.000 C 
BRANCH  21  22
ATOM     22  N   UNL     1       2.316   3.760  20.245  0.00  0.00    +0.000 N 
ATOM     23  C   UNL     1       1.448   3.534  21.268  0.00  0.00    +0.000 A 
ATOM     24  N   UNL     1       1.928   2.591  22.045  0.00  0.00    +0.000 NA
ATOM     25  C   UNL     1       3.101   2.251  21.433  0.00  0.00    +0.000 A 
ATOM     26  N   UNL     1       3.383   2.941  20.327  0.00  0.00    +0.000 NA
ENDBRANCH  21  22
ENDBRANCH   1  21
TORSDOF 9
ENDMDL
MODEL 2
REMARK VINA RESULT:      -7.3      2.830      4.997
REMARK  Name = 
REMARK  11 active torsions:
REMARK  status: ('A' for Active; 'I' for Inactive)
REMARK    1  A    between atoms: C_1  and  C_2
REMARK    2  A    between atoms: C_2  and  C_3
REMARK    3  A    between atoms: C_3  and  N_4
REMARK    4  A    between atoms: N_4  and  C_5
REMARK    5  A    between atoms: N_4  and  C_8
REMARK    6  A    between atoms: C_8  and  C_9
REMARK    7  A    between atoms: C_8  and  C_10
REMARK    8  A    between atoms: C_10  and  O_11
REMARK    9  A    between atoms: C_10  and  C_12
REMARK   10  A    between atoms: C_10  and  C_18
REMARK   11  A    between atoms: C_12  and  N_13
REMARK                            x       y       z     vdW  Elec       q    Type
REMARK                         _______ _______ _______ _____ _____    ______ ____
ROOT
ATOM      1  C   UNL     1       2.615   5.456  18.247  0.00  0.00    +0.000 C 
ENDROOT
BRANCH   1   2
ATOM      2  C   UNL     1       2.189   4.534  19.399  0.00  0.00    +0.000 A 
ATOM      3  C   UNL     1       2.666   4.703  20.718  0.00  0.00    +0.000 A 
ATOM      4  C   UNL     1       2.305   3.821  21.746  0.00  0.00    +0.000 A 
ATOM      5  C   UNL     1       1.481   2.741  21.468  0.00  0.00    +0.000 A 
ATOM      6  F   UNL     1       1.190   1.867  22.438  0.00  0.00    +0.000 F 
ATOM      7  C   UNL     1       0.975   2.547  20.193  0.00  0.00    +0.000 A 
ATOM      8  C   UNL     1       1.300   3.452  19.187  0.00  0.00    +0.000 A 
ATOM      9  F   UNL     1       0.826   3.196  17.958  0.00  0.00    +0.000 F 
ENDBRANCH   1   2
BRANCH   1  10
ATOM     10  C   UNL     1       3.760   4.837  17.270  0.00  0.00    +0.000 C 
ATOM     11  C   UNL     1       4.148   3.419  17.807  0.00  0.00    +0.000 C 
BRANCH  10  12
ATOM     12  N   UNL     1       5.057   5.582  17.011  0.00  0.00    +0.000 NA
BRANCH  12  13
ATOM     13  C   UNL     1       6.243   5.018  17.721  0.00  0.00    +0.000 C 
ATOM     14  C   UNL     1       7.425   5.905  18.072  0.00  0.00    +0.000 C 
ATOM     15  C   UNL     1       6.513   5.412  19.153  0.00  0.00    +0.000 C 
ENDBRANCH  12  13
BRANCH  12  16
ATOM     16  C   UNL     1       5.410   5.838  15.607  0.00  0.00    +0.000 C 
BRANCH  16  18
ATOM     17  C   UNL     1       7.027   4.756  14.019  0.00  0.00    +0.000 C 
ATOM     18  C   UNL     1       5.680   4.621  14.721  0.00  0.00    +0.000 C 
ENDBRANCH  16  18
ENDBRANCH  12  16
ENDBRANCH  10  12
ENDBRANCH   1  10
BRANCH   1  19
ATOM     19  O   UNL     1       1.478   5.787  17.422  0.00  0.00    +0.000 OA
ATOM     20  H   UNL     1       1.650   6.661  17.021  0.00  0.00    +0.000 HD
ENDBRANCH   1  19
BRANCH   1  21
ATOM     21  C   UNL     1       3.145   6.829  18.817  0.00  0.00    +0.000 C 
BRANCH  21  22
ATOM     22  N   UNL     1       2.269   7.982  18.694  0.00  0.00    +0.000 N 
ATOM     23  C   UNL     1       1.544   8.564  19.688  0.00  0.00    +0.000 A 
ATOM     24  N   UNL     1       1.016   9.681  19.245  0.00  0.00    +0.000 NA
ATOM     25  C   UNL     1       1.473   9.752  17.960  0.00  0.00    +0.000 A 
ATOM     26  N   UNL     1       2.243   8.733  17.576  0.00  0.00    +0.000 NA
ENDBRANCH  21  22
ENDBRANCH   1  21
TORSDOF 9
ENDMDL
MODEL 3
REMARK VINA RESULT:      -7.1      0.687      1.695
REMARK  Name = 
REMARK  11 active torsions:
REMARK  status: ('A' for Active; 'I' for Inactive)
REMARK    1  A    between atoms: C_1  and  C_2
REMARK    2  A    between atoms: C_2  and  C_3
REMARK    3  A    between atoms: C_3  and  N_4
REMARK    4  A    between atoms: N_4  and  C_5
REMARK    5  A    between atoms: N_4  and  C_8
REMARK    6  A    between atoms: C_8  and  C_9
REMARK    7  A    between atoms: C_8  and  C_10
REMARK    8  A    between atoms: C_10  and  O_11
REMARK    9  A    between atoms: C_10  and  C_12
REMARK   10  A    between atoms: C_10  and  C_18
REMARK   11  A    between atoms: C_12  and  N_13
REMARK                            x       y       z     vdW  Elec       q    Type
REMARK                         _______ _______ _______ _____ _____    ______ ____
ROOT
ATOM      1  C   UNL     1       3.132   5.838  18.906  0.00  0.00    +0.000 C 
ENDROOT
BRANCH   1   2
ATOM      2  C   UNL     1       2.428   7.204  18.888  0.00  0.00    +0.000 A 
ATOM      3  C   UNL     1       2.483   8.068  17.772  0.00  0.00    +0.000 A 
ATOM      4  C   UNL     1       1.876   9.331  17.792  0.00  0.00    +0.000 A 
ATOM      5  C   UNL     1       1.223   9.761  18.938  0.00  0.00    +0.000 A 
ATOM      6  F   UNL     1       0.699  10.992  18.974  0.00  0.00    +0.000 F 
ATOM      7  C   UNL     1       1.128   8.939  20.049  0.00  0.00    +0.000 A 
ATOM      8  C   UNL     1       1.694   7.669  20.005  0.00  0.00    +0.000 A 
ATOM      9  F   UNL     1       1.618   6.929  21.122  0.00  0.00    +0.000 F 
ENDBRANCH   1   2
BRANCH   1  10
ATOM     10  C   UNL     1       4.062   5.537  17.605  0.00  0.00    +0.000 C 
ATOM     11  C   UNL     1       3.993   4.003  17.299  0.00  0.00    +0.000 C 
BRANCH  10  12
ATOM     12  N   UNL     1       5.528   5.927  17.580  0.00  0.00    +0.000 NA
BRANCH  12  13
ATOM     13  C   UNL     1       6.427   4.993  18.320  0.00  0.00    +0.000 C 
ATOM     14  C   UNL     1       7.777   4.602  17.744  0.00  0.00    +0.000 C 
ATOM     15  C   UNL     1       7.706   5.514  18.929  0.00  0.00    +0.000 C 
ENDBRANCH  12  13
BRANCH  12  16
ATOM     16  C   UNL     1       6.116   6.226  16.267  0.00  0.00    +0.000 C 
BRANCH  16  18
ATOM     17  C   UNL     1       6.267   4.562  14.391  0.00  0.00    +0.000 C 
ATOM     18  C   UNL     1       5.413   5.647  15.038  0.00  0.00    +0.000 C 
ENDBRANCH  16  18
ENDBRANCH  12  16
ENDBRANCH  10  12
ENDBRANCH   1  10
BRANCH   1  19
ATOM     19  O   UNL     1       3.974   5.723  20.073  0.00  0.00    +0.000 OA
ATOM     20  H   UNL     1       4.846   6.099  19.845  0.00  0.00    +0.000 HD
ENDBRANCH   1  19
BRANCH   1  21
ATOM     21  C   UNL     1       2.068   4.679  19.029  0.00  0.00    +0.000 C 
BRANCH  21  22
ATOM     22  N   UNL     1       2.140   3.833  20.208  0.00  0.00    +0.000 N 
ATOM     23  C   UNL     1       1.130   3.558  21.077  0.00  0.00    +0.000 A 
ATOM     24  N   UNL     1       1.516   2.621  21.911  0.00  0.00    +0.000 NA
ATOM     25  C   UNL     1       2.784   2.335  21.493  0.00  0.00    +0.000 A 
ATOM     26  N   UNL     1       3.212   3.053  20.453  0.00  0.00    +0.000 NA
ENDBRANCH  21  22
ENDBRANCH   1  21
TORSDOF 9
ENDMDL
MODEL 4
REMARK VINA RESULT:      -6.9      1.534      2.042
REMARK  Name = 
REMARK  11 active torsions:
REMARK  status: ('A' for Active; 'I' for Inactive)
REMARK    1  A    between atoms: C_1  and  C_2
REMARK    2  A    between atoms: C_2  and  C_3
REMARK    3  A    between atoms: C_3  and  N_4
REMARK    4  A    between atoms: N_4  and  C_5
REMARK    5  A    between atoms: N_4  and  C_8
REMARK    6  A    between atoms: C_8  and  C_9
REMARK    7  A    between atoms: C_8  and  C_10
REMARK    8  A    between atoms: C_10  and  O_11
REMARK    9  A    between atoms: C_10  and  C_12
REMARK   10  A    between atoms: C_10  and  C_18
REMARK   11  A    between atoms: C_12  and  N_13
REMARK                            x       y       z     vdW  Elec       q    Type
REMARK                         _______ _______ _______ _____ _____    ______ ____
ROOT
ATOM      1  C   UNL     1       3.873   6.234  18.142  0.00  0.00    +0.000 C 
ENDROOT
BRANCH   1   2
ATOM      2  C   UNL     1       2.852   7.280  18.614  0.00  0.00    +0.000 A 
ATOM      3  C   UNL     1       2.561   8.443  17.867  0.00  0.00    +0.000 A 
ATOM      4  C   UNL     1       1.663   9.411  18.338  0.00  0.00    +0.000 A 
ATOM      5  C   UNL     1       1.058   9.244  19.575  0.00  0.00    +0.000 A 
ATOM      6  F   UNL     1       0.250  10.200  20.048  0.00  0.00    +0.000 F 
ATOM      7  C   UNL     1       1.299   8.109  20.332  0.00  0.00    +0.000 A 
ATOM      8  C   UNL     1       2.157   7.131  19.839  0.00  0.00    +0.000 A 
ATOM      9  F   UNL     1       2.396   6.074  20.629  0.00  0.00    +0.000 F 
ENDBRANCH   1   2
BRANCH   1  10
ATOM     10  C   UNL     1       5.044   6.817  17.174  0.00  0.00    +0.000 C 
ATOM     11  C   UNL     1       4.933   6.103  15.786  0.00  0.00    +0.000 C 
BRANCH  10  12
ATOM     12  N   UNL     1       6.503   6.760  17.585  0.00  0.00    +0.000 NA
BRANCH  12  13
ATOM     13  C   UNL     1       7.261   5.610  17.010  0.00  0.00    +0.000 C 
ATOM     14  C   UNL     1       7.932   4.595  17.919  0.00  0.00    +0.000 C 
ATOM     15  C   UNL     1       6.710   4.211  17.144  0.00  0.00    +0.000 C 
ENDBRANCH  12  13
BRANCH  12  16
ATOM     16  C   UNL     1       7.292   7.989  17.420  0.00  0.00    +0.000 C 
BRANCH  16  18
ATOM     17  C   UNL     1       8.763   9.735  18.469  0.00  0.00    +0.000 C 
ATOM     18  C   UNL     1       8.395   8.255  18.445  0.00  0.00    +0.000 C 
ENDBRANCH  16  18
ENDBRANCH  12  16
ENDBRANCH  10  12
ENDBRANCH   1  10
BRANCH   1  19
ATOM     19  O   UNL     1       4.519   5.615  19.275  0.00  0.00    +0.000 OA
ATOM     20  H   UNL     1       4.057   5.921  20.079  0.00  0.00    +0.000 HD
ENDBRANCH   1  19
BRANCH   1  21
ATOM     21  C   UNL     1       3.140   5.065  17.376  0.00  0.00    +0.000 C 
BRANCH  21  22
ATOM     22  N   UNL     1       2.720   3.917  18.161  0.00  0.00    +0.000 N 
ATOM     23  C   UNL     1       1.444   3.582  18.497  0.00  0.00    +0.000 A 
ATOM     24  N   UNL     1       1.438   2.394  19.054  0.00  0.00    +0.000 NA
ATOM     25  C   UNL     1       2.753   2.026  19.016  0.00  0.00    +0.000 A 
ATOM     26  N   UNL     1       3.577   2.927  18.479  0.00  0.00    +0.000 NA
ENDBRANCH  21  22
ENDBRANCH   1  21
TORSDOF 9
ENDMDL
MODEL 5
REMARK VINA RESULT:      -6.8      0.950      1.357
REMARK  Name = 
REMARK  11 active torsions:
REMARK  status: ('A' for Active; 'I' for Inactive)
REMARK    1  A    between atoms: C_1  and  C_2
REMARK    2  A    between atoms: C_2  and  C_3
REMARK    3  A    between atoms: C_3  and  N_4
REMARK    4  A    between atoms: N_4  and  C_5
REMARK    5  A    between atoms: N_4  and  C_8
REMARK    6  A    between atoms: C_8  and  C_9
REMARK    7  A    between atoms: C_8  and  C_10
REMARK    8  A    between atoms: C_10  and  O_11
REMARK    9  A    between atoms: C_10  and  C_12
REMARK   10  A    between atoms: C_10  and  C_18
REMARK   11  A    between atoms: C_12  and  N_13
REMARK                            x       y       z     vdW  Elec       q    Type
REMARK                         _______ _______ _______ _____ _____    ______ ____
ROOT
ATOM      1  C   UNL     1       3.205   5.714  18.847  0.00  0.00    +0.000 C 
ENDROOT
BRANCH   1   2
ATOM      2  C   UNL     1       2.575   7.112  18.936  0.00  0.00    +0.000 A 
ATOM      3  C   UNL     1       1.875   7.554  20.081  0.00  0.00    +0.000 A 
ATOM      4  C   UNL     1       1.264   8.815  20.124  0.00  0.00    +0.000 A 
ATOM      5  C   UNL     1       1.321   9.645  19.015  0.00  0.00    +0.000 A 
ATOM      6  F   UNL     1       0.683  10.821  19.039  0.00  0.00    +0.000 F 
ATOM      7  C   UNL     1       2.013   9.260  17.878  0.00  0.00    +0.000 A 
ATOM      8  C   UNL     1       2.655   8.027  17.858  0.00  0.00    +0.000 A 
ATOM      9  F   UNL     1       3.270   7.677  16.717  0.00  0.00    +0.000 F 
ENDBRANCH   1   2
BRANCH   1  10
ATOM     10  C   UNL     1       3.946   5.392  17.434  0.00  0.00    +0.000 C 
ATOM     11  C   UNL     1       3.406   4.024  16.897  0.00  0.00    +0.000 C 
BRANCH  10  12
ATOM     12  N   UNL     1       5.459   5.339  17.335  0.00  0.00    +0.000 NA
BRANCH  12  13
ATOM     13  C   UNL     1       5.974   4.489  16.222  0.00  0.00    +0.000 C 
ATOM     14  C   UNL     1       5.731   4.880  14.775  0.00  0.00    +0.000 C 
ATOM     15  C   UNL     1       7.105   4.993  15.359  0.00  0.00    +0.000 C 
ENDBRANCH  12  13
BRANCH  12  16
ATOM     16  C   UNL     1       6.173   6.624  17.333  0.00  0.00    +0.000 C 
BRANCH  16  18
ATOM     17  C   UNL     1       7.545   5.769  19.256  0.00  0.00    +0.000 C 
ATOM     18  C   UNL     1       7.537   6.667  18.023  0.00  0.00    +0.000 C 
ENDBRANCH  16  18
ENDBRANCH  12  16
ENDBRANCH  10  12
ENDBRANCH   1  10
BRANCH   1  19
ATOM     19  O   UNL     1       4.180   5.535  19.895  0.00  0.00    +0.000 OA
ATOM     20  H   UNL     1       4.989   6.012  19.629  0.00  0.00    +0.000 HD
ENDBRANCH   1  19
BRANCH   1  21
ATOM     21  C   UNL     1       2.108   4.606  19.089  0.00  0.00    +0.000 C 
BRANCH  21  22
ATOM     22  N   UNL     1       2.259   3.766  20.264  0.00  0.00    +0.000 N 
ATOM     23  C   UNL     1       1.337   3.562  21.244  0.00  0.00    +0.000 A 
ATOM     24  N   UNL     1       1.756   2.609  22.044  0.00  0.00    +0.000 NA
ATOM     25  C   UNL     1       2.949   2.241  21.491  0.00  0.00    +0.000 A 
ATOM     26  N   UNL     1       3.301   2.922  20.399  0.00  0.00    +0.000 NA
ENDBRANCH  21  22
ENDBRANCH   1  21
TORSDOF 9
ENDMDL
MODEL 6
REMARK VINA RESULT:      -6.8      1.206      1.707
REMARK  Name = 
REMARK  11 active torsions:
REMARK  status: ('A' for Active; 'I' for Inactive)
REMARK    1  A    between atoms: C_1  and  C_2
REMARK    2  A    between atoms: C_2  and  C_3
REMARK    3  A    between atoms: C_3  and  N_4
REMARK    4  A    between atoms: N_4  and  C_5
REMARK    5  A    between atoms: N_4  and  C_8
REMARK    6  A    between atoms: C_8  and  C_9
REMARK    7  A    between atoms: C_8  and  C_10
REMARK    8  A    between atoms: C_10  and  O_11
REMARK    9  A    between atoms: C_10  and  C_12
REMARK   10  A    between atoms: C_10  and  C_18
REMARK   11  A    between atoms: C_12  and  N_13
REMARK                            x       y       z     vdW  Elec       q    Type
REMARK                         _______ _______ _______ _____ _____    ______ ____
ROOT
ATOM      1  C   UNL     1       3.066   6.111  18.734  0.00  0.00    +0.000 C 
ENDROOT
BRANCH   1   2
ATOM      2  C   UNL     1       2.380   7.484  18.812  0.00  0.00    +0.000 A 
ATOM      3  C   UNL     1       2.443   8.421  17.757  0.00  0.00    +0.000 A 
ATOM      4  C   UNL     1       1.852   9.688  17.866  0.00  0.00    +0.000 A 
ATOM      5  C   UNL     1       1.210  10.048  19.041  0.00  0.00    +0.000 A 
ATOM      6  F   UNL     1       0.703  11.280  19.164  0.00  0.00    +0.000 F 
ATOM      7  C   UNL     1       1.108   9.153  20.094  0.00  0.00    +0.000 A 
ATOM      8  C   UNL     1       1.657   7.882  19.962  0.00  0.00    +0.000 A 
ATOM      9  F   UNL     1       1.576   7.068  21.026  0.00  0.00    +0.000 F 
ENDBRANCH   1   2
BRANCH   1  10
ATOM     10  C   UNL     1       4.281   6.020  17.655  0.00  0.00    +0.000 C 
ATOM     11  C   UNL     1       4.258   4.594  17.010  0.00  0.00    +0.000 C 
BRANCH  10  12
ATOM     12  N   UNL     1       5.716   6.298  18.063  0.00  0.00    +0.000 NA
BRANCH  12  13
ATOM     13  C   UNL     1       6.466   5.095  18.531  0.00  0.00    +0.000 C 
ATOM     14  C   UNL     1       7.715   4.632  17.801  0.00  0.00    +0.000 C 
ATOM     15  C   UNL     1       7.831   5.263  19.154  0.00  0.00    +0.000 C 
ENDBRANCH  12  13
BRANCH  12  16
ATOM     16  C   UNL     1       6.547   7.047  17.110  0.00  0.00    +0.000 C 
BRANCH  16  18
ATOM     17  C   UNL     1       8.283   8.625  18.009  0.00  0.00    +0.000 C 
ATOM     18  C   UNL     1       6.868   8.502  17.456  0.00  0.00    +0.000 C 
ENDBRANCH  16  18
ENDBRANCH  12  16
ENDBRANCH  10  12
ENDBRANCH   1  10
BRANCH   1  19
ATOM     19  O   UNL     1       3.605   5.745  20.021  0.00  0.00    +0.000 OA
ATOM     20  H   UNL     1       3.908   6.565  20.457  0.00  0.00    +0.000 HD
ENDBRANCH   1  19
BRANCH   1  21
ATOM     21  C   UNL     1       2.009   4.995  18.378  0.00  0.00    +0.000 C 
BRANCH  21  22
ATOM     22  N   UNL     1       1.754   3.976  19.383  0.00  0.00    +0.000 N 
ATOM     23  C   UNL     1       2.243   2.706  19.399  0.00  0.00    +0.000 A 
ATOM     24  N   UNL     1       1.945   2.140  20.544  0.00  0.00    +0.000 NA
ATOM     25  C   UNL     1       1.282   3.126  21.216  0.00  0.00    +0.000 A 
ATOM     26  N   UNL     1       1.138   4.270  20.545  0.00  0.00    +0.000 NA
ENDBRANCH  21  22
ENDBRANCH   1  21
TORSDOF 9
ENDMDL
MODEL 7
REMARK VINA RESULT:      -6.8      2.895      6.251
REMARK  Name = 
REMARK  11 active torsions:
REMARK  status: ('A' for Active; 'I' for Inactive)
REMARK    1  A    between atoms: C_1  and  C_2
REMARK    2  A    between atoms: C_2  and  C_3
REMARK    3  A    between atoms: C_3  and  N_4
REMARK    4  A    between atoms: N_4  and  C_5
REMARK    5  A    between atoms: N_4  and  C_8
REMARK    6  A    between atoms: C_8  and  C_9
REMARK    7  A    between atoms: C_8  and  C_10
REMARK    8  A    between atoms: C_10  and  O_11
REMARK    9  A    between atoms: C_10  and  C_12
REMARK   10  A    between atoms: C_10  and  C_18
REMARK   11  A    between atoms: C_12  and  N_13
REMARK                            x       y       z     vdW  Elec       q    Type
REMARK                         _______ _______ _______ _____ _____    ______ ____
ROOT
ATOM      1  C   UNL     1       5.499   5.338  16.675  0.00  0.00    +0.000 C 
ENDROOT
BRANCH   1   2
ATOM      2  C   UNL     1       6.471   6.302  17.373  0.00  0.00    +0.000 A 
ATOM      3  C   UNL     1       6.631   7.644  16.960  0.00  0.00    +0.000 A 
ATOM      4  C   UNL     1       7.559   8.494  17.578  0.00  0.00    +0.000 A 
ATOM      5  C   UNL     1       8.359   8.010  18.602  0.00  0.00    +0.000 A 
ATOM      6  F   UNL     1       9.287   8.807  19.146  0.00  0.00    +0.000 F 
ATOM      7  C   UNL     1       8.222   6.707  19.052  0.00  0.00    +0.000 A 
ATOM      8  C   UNL     1       7.268   5.882  18.465  0.00  0.00    +0.000 A 
ATOM      9  F   UNL     1       7.206   4.615  18.901  0.00  0.00    +0.000 F 
ENDBRANCH   1   2
BRANCH   1  10
ATOM     10  C   UNL     1       4.340   4.727  17.639  0.00  0.00    +0.000 C 
ATOM     11  C   UNL     1       3.624   3.567  16.870  0.00  0.00    +0.000 C 
BRANCH  10  12
ATOM     12  N   UNL     1       3.251   5.612  18.217  0.00  0.00    +0.000 NA
BRANCH  12  13
ATOM     13  C   UNL     1       3.059   5.471  19.690  0.00  0.00    +0.000 C 
ATOM     14  C   UNL     1       1.769   4.896  20.249  0.00  0.00    +0.000 C 
ATOM     15  C   UNL     1       3.033   4.095  20.311  0.00  0.00    +0.000 C 
ENDBRANCH  12  13
BRANCH  12  16
ATOM     16  C   UNL     1       3.298   7.039  17.869  0.00  0.00    +0.000 C 
BRANCH  16  18
ATOM     17  C   UNL     1       1.997   9.185  17.741  0.00  0.00    +0.000 C 
ATOM     18  C   UNL     1       2.327   7.968  18.599  0.00  0.00    +0.000 C 
ENDBRANCH  16  18
ENDBRANCH  12  16
ENDBRANCH  10  12
ENDBRANCH   1  10
BRANCH   1  19
ATOM     19  O   UNL     1       4.839   5.999  15.574  0.00  0.00    +0.000 OA
ATOM     20  H   UNL     1       5.453   6.675  15.227  0.00  0.00    +0.000 HD
ENDBRANCH   1  19
BRANCH   1  21
ATOM     21  C   UNL     1       6.293   4.133  16.037  0.00  0.00    +0.000 C 
BRANCH  21  22
ATOM     22  N   UNL     1       6.746   4.287  14.665  0.00  0.00    +0.000 N 
ATOM     23  C   UNL     1       6.253   3.651  13.567  0.00  0.00    +0.000 A 
ATOM     24  N   UNL     1       6.786   4.171  12.487  0.00  0.00    +0.000 NA
ATOM     25  C   UNL     1       7.596   5.153  12.981  0.00  0.00    +0.000 A 
ATOM     26  N   UNL     1       7.606   5.262  14.311  0.00  0.00    +0.000 NA
ENDBRANCH  21  22
ENDBRANCH   1  21
TORSDOF 9
ENDMDL
MODEL 8
REMARK VINA RESULT:      -6.6      2.918      4.694
REMARK  Name = 
REMARK  11 active torsions:
REMARK  status: ('A' for Active; 'I' for Inactive)
REMARK    1  A    between atoms: C_1  and  C_2
REMARK    2  A    between atoms: C_2  and  C_3
REMARK    3  A    between atoms: C_3  and  N_4
REMARK    4  A    between atoms: N_4  and  C_5
REMARK    5  A    between atoms: N_4  and  C_8
REMARK    6  A    between atoms: C_8  and  C_9
REMARK    7  A    between atoms: C_8  and  C_10
REMARK    8  A    between atoms: C_10  and  O_11
REMARK    9  A    between atoms: C_10  and  C_12
REMARK   10  A    between atoms: C_10  and  C_18
REMARK   11  A    between atoms: C_12  and  N_13
REMARK                            x       y       z     vdW  Elec       q    Type
REMARK                         _______ _______ _______ _____ _____    ______ ____
ROOT
ATOM      1  C   UNL     1       3.602   5.229  18.264  0.00  0.00    +0.000 C 
ENDROOT
BRANCH   1   2
ATOM      2  C   UNL     1       2.872   4.379  19.314  0.00  0.00    +0.000 A 
ATOM      3  C   UNL     1       2.697   4.812  20.648  0.00  0.00    +0.000 A 
ATOM      4  C   UNL     1       2.071   4.001  21.605  0.00  0.00    +0.000 A 
ATOM      5  C   UNL     1       1.633   2.733  21.251  0.00  0.00    +0.000 A 
ATOM      6  F   UNL     1       1.093   1.939  22.183  0.00  0.00    +0.000 F 
ATOM      7  C   UNL     1       1.766   2.276  19.950  0.00  0.00    +0.000 A 
ATOM      8  C   UNL     1       2.347   3.104  18.995  0.00  0.00    +0.000 A 
ATOM      9  F   UNL     1       2.499   2.598  17.761  0.00  0.00    +0.000 F 
ENDBRANCH   1   2
BRANCH   1  10
ATOM     10  C   UNL     1       5.041   4.635  17.790  0.00  0.00    +0.000 C 
ATOM     11  C   UNL     1       5.847   4.228  19.069  0.00  0.00    +0.000 C 
BRANCH  10  12
ATOM     12  N   UNL     1       5.978   5.449  16.918  0.00  0.00    +0.000 NA
BRANCH  12  13
ATOM     13  C   UNL     1       5.651   5.411  15.462  0.00  0.00    +0.000 C 
ATOM     14  C   UNL     1       6.656   4.869  14.459  0.00  0.00    +0.000 C 
ATOM     15  C   UNL     1       5.423   4.083  14.781  0.00  0.00    +0.000 C 
ENDBRANCH  12  13
BRANCH  12  16
ATOM     16  C   UNL     1       6.227   6.839  17.322  0.00  0.00    +0.000 C 
BRANCH  16  18
ATOM     17  C   UNL     1       7.886   8.686  17.711  0.00  0.00    +0.000 C 
ATOM     18  C   UNL     1       7.635   7.184  17.808  0.00  0.00    +0.000 C 
ENDBRANCH  16  18
ENDBRANCH  12  16
ENDBRANCH  10  12
ENDBRANCH   1  10
BRANCH   1  19
ATOM     19  O   UNL     1       2.787   5.377  17.082  0.00  0.00    +0.000 OA
ATOM     20  H   UNL     1       1.920   4.970  17.271  0.00  0.00    +0.000 HD
ENDBRANCH   1  19
BRANCH   1  21
ATOM     21  C   UNL     1       3.831   6.692  18.811  0.00  0.00    +0.000 C 
BRANCH  21  22
ATOM     22  N   UNL     1       2.765   7.656  18.599  0.00  0.00    +0.000 N 
ATOM     23  C   UNL     1       1.910   8.146  19.538  0.00  0.00    +0.000 A 
ATOM     24  N   UNL     1       1.204   9.122  19.016  0.00  0.00    +0.000 NA
ATOM     25  C   UNL     1       1.686   9.207  17.741  0.00  0.00    +0.000 A 
ATOM     26  N   UNL     1       2.642   8.328  17.438  0.00  0.00    +0.000 NA
ENDBRANCH  21  22
ENDBRANCH   1  21
TORSDOF 9
ENDMDL
MODEL 9
REMARK VINA RESULT:      -6.6      1.717      4.788
REMARK  Name = 
REMARK  11 active torsions:
REMARK  status: ('A' for Active; 'I' for Inactive)
REMARK    1  A    between atoms: C_1  and  C_2
REMARK    2  A    between atoms: C_2  and  C_3
REMARK    3  A    between atoms: C_3  and  N_4
REMARK    4  A    between atoms: N_4  and  C_5
REMARK    5  A    between atoms: N_4  and  C_8
REMARK    6  A    between atoms: C_8  and  C_9
REMARK    7  A    between atoms: C_8  and  C_10
REMARK    8  A    between atoms: C_10  and  O_11
REMARK    9  A    between atoms: C_10  and  C_12
REMARK   10  A    between atoms: C_10  and  C_18
REMARK   11  A    between atoms: C_12  and  N_13
REMARK                            x       y       z     vdW  Elec       q    Type
REMARK                         _______ _______ _______ _____ _____    ______ ____
ROOT
ATOM      1  C   UNL     1       3.341   6.029  18.610  0.00  0.00    +0.000 C 
ENDROOT
BRANCH   1   2
ATOM      2  C   UNL     1       2.504   7.200  19.149  0.00  0.00    +0.000 A 
ATOM      3  C   UNL     1       1.994   7.220  20.467  0.00  0.00    +0.000 A 
ATOM      4  C   UNL     1       1.191   8.273  20.925  0.00  0.00    +0.000 A 
ATOM      5  C   UNL     1       0.863   9.312  20.066  0.00  0.00    +0.000 A 
ATOM      6  F   UNL     1       0.045  10.282  20.489  0.00  0.00    +0.000 F 
ATOM      7  C   UNL     1       1.357   9.342  18.772  0.00  0.00    +0.000 A 
ATOM      8  C   UNL     1       2.190   8.317  18.338  0.00  0.00    +0.000 A 
ATOM      9  F   UNL     1       2.603   8.365  17.062  0.00  0.00    +0.000 F 
ENDBRANCH   1   2
BRANCH   1  10
ATOM     10  C   UNL     1       3.811   4.954  19.737  0.00  0.00    +0.000 C 
ATOM     11  C   UNL     1       5.369   4.821  19.668  0.00  0.00    +0.000 C 
BRANCH  10  12
ATOM     12  N   UNL     1       3.247   3.546  19.762  0.00  0.00    +0.000 NA
BRANCH  12  13
ATOM     13  C   UNL     1       4.081   2.536  19.046  0.00  0.00    +0.000 C 
ATOM     14  C   UNL     1       3.582   1.113  18.861  0.00  0.00    +0.000 C 
ATOM     15  C   UNL     1       3.651   2.040  17.687  0.00  0.00    +0.000 C 
ENDBRANCH  12  13
BRANCH  12  16
ATOM     16  C   UNL     1       2.853   3.008  21.072  0.00  0.00    +0.000 C 
BRANCH  16  18
ATOM     17  C   UNL     1       0.530   3.181  20.132  0.00  0.00    +0.000 C 
ATOM     18  C   UNL     1       1.359   2.982  21.396  0.00  0.00    +0.000 C 
ENDBRANCH  16  18
ENDBRANCH  12  16
ENDBRANCH  10  12
ENDBRANCH   1  10
BRANCH   1  19
ATOM     19  O   UNL     1       2.602   5.304  17.604  0.00  0.00    +0.000 OA
ATOM     20  H   UNL     1       1.932   5.912  17.237  0.00  0.00    +0.000 HD
ENDBRANCH   1  19
BRANCH   1  21
ATOM     21  C   UNL     1       4.632   6.574  17.883  0.00  0.00    +0.000 C 
BRANCH  21  22
ATOM     22  N   UNL     1       4.953   6.007  16.584  0.00  0.00    +0.000 N 
ATOM     23  C   UNL     1       5.171   6.691  15.428  0.00  0.00    +0.000 A 
ATOM     24  N   UNL     1       5.607   5.862  14.508  0.00  0.00    +0.000 NA
ATOM     25  C   UNL     1       5.661   4.667  15.167  0.00  0.00    +0.000 A 
ATOM     26  N   UNL     1       5.268   4.705  16.441  0.00  0.00    +0.000 NA
ENDBRANCH  21  22
ENDBRANCH   1  21
TORSDOF 9
ENDMDL
