MODEL 1
REMARK VINA RESULT:      -6.8      0.000      0.000
REMARK  Name = 
REMARK  10 active torsions:
REMARK  status: ('A' for Active; 'I' for Inactive)
REMARK    1  A    between atoms: C_1  and  C_2
REMARK    2  A    between atoms: C_2  and  S_3
REMARK    3  A    between atoms: S_3  and  C_6
REMARK    4  A    between atoms: C_6  and  C_7
REMARK    5  A    between atoms: C_7  and  C_8
REMARK    6  A    between atoms: C_7  and  O_9
REMARK    7  A    between atoms: C_7  and  C_10
REMARK    8  A    between atoms: C_15  and  C_16
REMARK    9  A    between atoms: C_18  and  O_19
REMARK   10  A    between atoms: C_22  and  O_23
REMARK                            x       y       z     vdW  Elec       q    Type
REMARK                         _______ _______ _______ _____ _____    ______ ____
ROOT
ATOM      1  C   UNL     1       2.003   8.495  19.393  0.00  0.00    +0.000 C 
ATOM      2  C   UNL     1       1.248   7.636  20.427  0.00  0.00    +0.000 C 
ATOM      3  C   UNL     1       1.749   6.160  20.574  0.00  0.00    +0.000 C 
ATOM      4  C   UNL     1       2.892   5.594  19.700  0.00  0.00    +0.000 A 
ATOM      5  C   UNL     1       3.365   6.490  18.611  0.00  0.00    +0.000 A 
ATOM      6  C   UNL     1       4.480   6.281  17.870  0.00  0.00    +0.000 A 
ATOM      7  C   UNL     1       4.658   6.718  16.442  0.00  0.00    +0.000 C 
ATOM      8  C   UNL     1       5.529   5.416  18.404  0.00  0.00    +0.000 A 
ATOM      9  C   UNL     1       5.282   4.105  18.279  0.00  0.00    +0.000 A 
ATOM     10  C   UNL     1       4.523   3.575  19.430  0.00  0.00    +0.000 A 
ATOM     11  O   UNL     1       4.846   2.518  19.976  0.00  0.00    +0.000 OA
ATOM     12  C   UNL     1       3.272   4.280  19.921  0.00  0.00    +0.000 A 
ATOM     13  C   UNL     1       2.394   7.578  18.223  0.00  0.00    +0.000 C 
ENDROOT
BRANCH   1  14
ATOM     14  C   UNL     1       1.320   9.821  18.851  0.00  0.00    +0.000 C 
ATOM     15  C   UNL     1       2.219  10.596  17.865  0.00  0.00    +0.000 C 
BRANCH  14  16
ATOM     16  O   UNL     1       1.222  10.696  19.999  0.00  0.00    +0.000 OA
ATOM     17  H   UNL     1       1.516  11.590  19.769  0.00  0.00    +0.000 HD
ENDBRANCH  14  16
BRANCH  14  18
ATOM     18  C   UNL     1      -0.085   9.740  18.219  0.00  0.00    +0.000 C 
BRANCH  18  19
ATOM     19  S   UNL     1      -1.231  11.015  18.716  0.00  0.00    +0.000 S 
ATOM     20  O   UNL     1      -0.805  12.279  18.153  0.00  0.00    +0.000 OA
ATOM     21  O   UNL     1      -1.473  10.862  20.136  0.00  0.00    +0.000 OA
BRANCH  19  23
ATOM     22  C   UNL     1      -2.472  10.047  16.474  0.00  0.00    +0.000 C 
ATOM     23  C   UNL     1      -2.754  10.579  17.870  0.00  0.00    +0.000 C 
ENDBRANCH  19  23
ENDBRANCH  18  19
ENDBRANCH  14  18
ENDBRANCH   1  14
BRANCH   9  24
ATOM     24  O   UNL     1       5.060   3.488  17.061  0.00  0.00    +0.000 OA
ATOM     25  H   UNL     1       4.397   2.794  17.219  0.00  0.00    +0.000 HD
ENDBRANCH   9  24
BRANCH  12  26
ATOM     26  O   UNL     1       2.402   3.449  20.600  0.00  0.00    +0.000 OA
ATOM     27  H   UNL     1       2.320   3.874  21.479  0.00  0.00    +0.000 HD
ENDBRANCH  12  26
TORSDOF 7
ENDMDL
MODEL 2
REMARK VINA RESULT:      -6.7      1.662      2.311
REMARK  Name = 
REMARK  10 active torsions:
REMARK  status: ('A' for Active; 'I' for Inactive)
REMARK    1  A    between atoms: C_1  and  C_2
REMARK    2  A    between atoms: C_2  and  S_3
REMARK    3  A    between atoms: S_3  and  C_6
REMARK    4  A    between atoms: C_6  and  C_7
REMARK    5  A    between atoms: C_7  and  C_8
REMARK    6  A    between atoms: C_7  and  O_9
REMARK    7  A    between atoms: C_7  and  C_10
REMARK    8  A    between atoms: C_15  and  C_16
REMARK    9  A    between atoms: C_18  and  O_19
REMARK   10  A    between atoms: C_22  and  O_23
REMARK                            x       y       z     vdW  Elec       q    Type
REMARK                         _______ _______ _______ _____ _____    ______ ____
ROOT
ATOM      1  C   UNL     1       1.994   8.582  19.262  0.00  0.00    +0.000 C 
ATOM      2  C   UNL     1       1.275   7.717  20.318  0.00  0.00    +0.000 C 
ATOM      3  C   UNL     1       1.814   6.255  20.473  0.00  0.00    +0.000 C 
ATOM      4  C   UNL     1       2.956   5.706  19.588  0.00  0.00    +0.000 A 
ATOM      5  C   UNL     1       3.391   6.600  18.482  0.00  0.00    +0.000 A 
ATOM      6  C   UNL     1       4.499   6.408  17.726  0.00  0.00    +0.000 A 
ATOM      7  C   UNL     1       4.645   6.833  16.291  0.00  0.00    +0.000 C 
ATOM      8  C   UNL     1       5.576   5.575  18.253  0.00  0.00    +0.000 A 
ATOM      9  C   UNL     1       5.359   4.257  18.147  0.00  0.00    +0.000 A 
ATOM     10  C   UNL     1       4.630   3.723  19.316  0.00  0.00    +0.000 A 
ATOM     11  O   UNL     1       4.985   2.680  19.868  0.00  0.00    +0.000 OA
ATOM     12  C   UNL     1       3.370   4.404  19.818  0.00  0.00    +0.000 A 
ATOM     13  C   UNL     1       2.388   7.660  18.097  0.00  0.00    +0.000 C 
ENDROOT
BRANCH   1  14
ATOM     14  C   UNL     1       1.271   9.885  18.716  0.00  0.00    +0.000 C 
ATOM     15  C   UNL     1      -0.118   9.589  18.115  0.00  0.00    +0.000 C 
BRANCH  14  16
ATOM     16  O   UNL     1       2.061  10.310  17.581  0.00  0.00    +0.000 OA
ATOM     17  H   UNL     1       2.004   9.658  16.866  0.00  0.00    +0.000 HD
ENDBRANCH  14  16
BRANCH  14  18
ATOM     18  C   UNL     1       1.116  11.106  19.646  0.00  0.00    +0.000 C 
BRANCH  18  19
ATOM     19  S   UNL     1       1.348  12.699  18.875  0.00  0.00    +0.000 S 
ATOM     20  O   UNL     1       0.248  12.950  17.968  0.00  0.00    +0.000 OA
ATOM     21  O   UNL     1       2.726  12.780  18.435  0.00  0.00    +0.000 OA
BRANCH  19  23
ATOM     22  C   UNL     1       0.336  13.260  21.358  0.00  0.00    +0.000 C 
ATOM     23  C   UNL     1       1.156  13.864  20.229  0.00  0.00    +0.000 C 
ENDBRANCH  19  23
ENDBRANCH  18  19
ENDBRANCH  14  18
ENDBRANCH   1  14
BRANCH   9  24
ATOM     24  O   UNL     1       5.133   3.620  16.940  0.00  0.00    +0.000 OA
ATOM     25  H   UNL     1       4.255   3.909  16.635  0.00  0.00    +0.000 HD
ENDBRANCH   9  24
BRANCH  12  26
ATOM     26  O   UNL     1       2.531   3.560  20.519  0.00  0.00    +0.000 OA
ATOM     27  H   UNL     1       1.951   3.186  19.823  0.00  0.00    +0.000 HD
ENDBRANCH  12  26
TORSDOF 7
ENDMDL
MODEL 3
REMARK VINA RESULT:      -6.7      3.011      7.522
REMARK  Name = 
REMARK  10 active torsions:
REMARK  status: ('A' for Active; 'I' for Inactive)
REMARK    1  A    between atoms: C_1  and  C_2
REMARK    2  A    between atoms: C_2  and  S_3
REMARK    3  A    between atoms: S_3  and  C_6
REMARK    4  A    between atoms: C_6  and  C_7
REMARK    5  A    between atoms: C_7  and  C_8
REMARK    6  A    between atoms: C_7  and  O_9
REMARK    7  A    between atoms: C_7  and  C_10
REMARK    8  A    between atoms: C_15  and  C_16
REMARK    9  A    between atoms: C_18  and  O_19
REMARK   10  A    between atoms: C_22  and  O_23
REMARK                            x       y       z     vdW  Elec       q    Type
REMARK                         _______ _______ _______ _____ _____    ______ ____
ROOT
ATOM      1  C   UNL     1       4.240   5.856  17.969  0.00  0.00    +0.000 C 
ATOM      2  C   UNL     1       4.124   7.006  16.947  0.00  0.00    +0.000 C 
ATOM      3  C   UNL     1       3.123   8.148  17.326  0.00  0.00    +0.000 C 
ATOM      4  C   UNL     1       2.272   8.095  18.616  0.00  0.00    +0.000 A 
ATOM      5  C   UNL     1       2.350   6.820  19.378  0.00  0.00    +0.000 A 
ATOM      6  C   UNL     1       1.855   6.637  20.626  0.00  0.00    +0.000 A 
ATOM      7  C   UNL     1       1.334   5.332  21.163  0.00  0.00    +0.000 C 
ATOM      8  C   UNL     1       1.631   7.806  21.474  0.00  0.00    +0.000 A 
ATOM      9  C   UNL     1       0.505   8.479  21.200  0.00  0.00    +0.000 A 
ATOM     10  C   UNL     1       0.719   9.509  20.162  0.00  0.00    +0.000 A 
ATOM     11  O   UNL     1       0.269  10.650  20.293  0.00  0.00    +0.000 OA
ATOM     12  C   UNL     1       1.429   9.165  18.867  0.00  0.00    +0.000 A 
ATOM     13  C   UNL     1       2.847   5.639  18.582  0.00  0.00    +0.000 C 
ENDROOT
BRANCH   1  14
ATOM     14  C   UNL     1       4.859   4.472  17.501  0.00  0.00    +0.000 C 
ATOM     15  C   UNL     1       3.912   3.280  17.747  0.00  0.00    +0.000 C 
BRANCH  14  16
ATOM     16  O   UNL     1       5.969   4.230  18.397  0.00  0.00    +0.000 OA
ATOM     17  H   UNL     1       5.701   3.636  19.115  0.00  0.00    +0.000 HD
ENDBRANCH  14  16
BRANCH  14  18
ATOM     18  C   UNL     1       5.398   4.336  16.062  0.00  0.00    +0.000 C 
BRANCH  18  19
ATOM     19  S   UNL     1       7.050   4.957  15.793  0.00  0.00    +0.000 S 
ATOM     20  O   UNL     1       7.996   4.092  16.466  0.00  0.00    +0.000 OA
ATOM     21  O   UNL     1       7.028   6.386  16.031  0.00  0.00    +0.000 OA
BRANCH  19  23
ATOM     22  C   UNL     1       6.194   3.902  13.414  0.00  0.00    +0.000 C 
ATOM     23  C   UNL     1       7.318   4.718  14.033  0.00  0.00    +0.000 C 
ENDBRANCH  19  23
ENDBRANCH  18  19
ENDBRANCH  14  18
ENDBRANCH   1  14
BRANCH   9  24
ATOM     24  O   UNL     1      -0.753   7.905  21.246  0.00  0.00    +0.000 OA
ATOM     25  H   UNL     1      -1.382   8.596  20.976  0.00  0.00    +0.000 HD
ENDBRANCH   9  24
BRANCH  12  26
ATOM     26  O   UNL     1       1.103  10.006  17.820  0.00  0.00    +0.000 OA
ATOM     27  H   UNL     1       0.445  10.616  18.215  0.00  0.00    +0.000 HD
ENDBRANCH  12  26
TORSDOF 7
ENDMDL
MODEL 4
REMARK VINA RESULT:      -6.7      1.799      3.181
REMARK  Name = 
REMARK  10 active torsions:
REMARK  status: ('A' for Active; 'I' for Inactive)
REMARK    1  A    between atoms: C_1  and  C_2
REMARK    2  A    between atoms: C_2  and  S_3
REMARK    3  A    between atoms: S_3  and  C_6
REMARK    4  A    between atoms: C_6  and  C_7
REMARK    5  A    between atoms: C_7  and  C_8
REMARK    6  A    between atoms: C_7  and  O_9
REMARK    7  A    between atoms: C_7  and  C_10
REMARK    8  A    between atoms: C_15  and  C_16
REMARK    9  A    between atoms: C_18  and  O_19
REMARK   10  A    between atoms: C_22  and  O_23
REMARK                            x       y       z     vdW  Elec       q    Type
REMARK                         _______ _______ _______ _____ _____    ______ ____
ROOT
ATOM      1  C   UNL     1       1.357   8.437  19.357  0.00  0.00    +0.000 C 
ATOM      2  C   UNL     1       2.208   9.018  18.209  0.00  0.00    +0.000 C 
ATOM      3  C   UNL     1       3.167   8.005  17.498  0.00  0.00    +0.000 C 
ATOM      4  C   UNL     1       3.284   6.532  17.955  0.00  0.00    +0.000 A 
ATOM      5  C   UNL     1       2.554   6.193  19.206  0.00  0.00    +0.000 A 
ATOM      6  C   UNL     1       2.354   4.934  19.664  0.00  0.00    +0.000 A 
ATOM      7  C   UNL     1       2.233   4.556  21.115  0.00  0.00    +0.000 C 
ATOM      8  C   UNL     1       2.440   3.819  18.724  0.00  0.00    +0.000 A 
ATOM      9  C   UNL     1       3.691   3.441  18.428  0.00  0.00    +0.000 A 
ATOM     10  C   UNL     1       4.240   4.199  17.285  0.00  0.00    +0.000 A 
ATOM     11  O   UNL     1       4.841   3.631  16.371  0.00  0.00    +0.000 OA
ATOM     12  C   UNL     1       4.148   5.713  17.247  0.00  0.00    +0.000 A 
ATOM     13  C   UNL     1       2.208   7.377  20.075  0.00  0.00    +0.000 C 
ENDROOT
BRANCH   1  14
ATOM     14  C   UNL     1       0.707   9.429  20.410  0.00  0.00    +0.000 C 
ATOM     15  C   UNL     1       1.284   9.255  21.830  0.00  0.00    +0.000 C 
BRANCH  14  16
ATOM     16  O   UNL     1      -0.670   9.002  20.536  0.00  0.00    +0.000 OA
ATOM     17  H   UNL     1      -1.234   9.748  20.787  0.00  0.00    +0.000 HD
ENDBRANCH  14  16
BRANCH  14  18
ATOM     18  C   UNL     1       0.688  10.942  20.108  0.00  0.00    +0.000 C 
BRANCH  18  19
ATOM     19  S   UNL     1      -0.781  11.550  19.296  0.00  0.00    +0.000 S 
ATOM     20  O   UNL     1      -1.772  11.881  20.298  0.00  0.00    +0.000 OA
ATOM     21  O   UNL     1      -1.083  10.652  18.200  0.00  0.00    +0.000 OA
BRANCH  19  23
ATOM     22  C   UNL     1       1.252  13.264  18.636  0.00  0.00    +0.000 C 
ATOM     23  C   UNL     1      -0.259  13.110  18.574  0.00  0.00    +0.000 C 
ENDBRANCH  19  23
ENDBRANCH  18  19
ENDBRANCH  14  18
ENDBRANCH   1  14
BRANCH   9  24
ATOM     24  O   UNL     1       4.602   3.021  19.380  0.00  0.00    +0.000 OA
ATOM     25  H   UNL     1       4.824   2.099  19.162  0.00  0.00    +0.000 HD
ENDBRANCH   9  24
BRANCH  12  26
ATOM     26  O   UNL     1       5.115   6.303  16.456  0.00  0.00    +0.000 OA
ATOM     27  H   UNL     1       4.649   6.464  15.609  0.00  0.00    +0.000 HD
ENDBRANCH  12  26
TORSDOF 7
ENDMDL
MODEL 5
REMARK VINA RESULT:      -6.7      1.604      2.000
REMARK  Name = 
REMARK  10 active torsions:
REMARK  status: ('A' for Active; 'I' for Inactive)
REMARK    1  A    between atoms: C_1  and  C_2
REMARK    2  A    between atoms: C_2  and  S_3
REMARK    3  A    between atoms: S_3  and  C_6
REMARK    4  A    between atoms: C_6  and  C_7
REMARK    5  A    between atoms: C_7  and  C_8
REMARK    6  A    between atoms: C_7  and  O_9
REMARK    7  A    between atoms: C_7  and  C_10
REMARK    8  A    between atoms: C_15  and  C_16
REMARK    9  A    between atoms: C_18  and  O_19
REMARK   10  A    between atoms: C_22  and  O_23
REMARK                            x       y       z     vdW  Elec       q    Type
REMARK                         _______ _______ _______ _____ _____    ______ ____
ROOT
ATOM      1  C   UNL     1       1.853   8.295  19.618  0.00  0.00    +0.000 C 
ATOM      2  C   UNL     1       1.171   7.353  20.631  0.00  0.00    +0.000 C 
ATOM      3  C   UNL     1       1.758   5.904  20.708  0.00  0.00    +0.000 C 
ATOM      4  C   UNL     1       2.911   5.439  19.790  0.00  0.00    +0.000 A 
ATOM      5  C   UNL     1       3.308   6.403  18.729  0.00  0.00    +0.000 A 
ATOM      6  C   UNL     1       4.417   6.286  17.959  0.00  0.00    +0.000 A 
ATOM      7  C   UNL     1       4.540   6.789  16.546  0.00  0.00    +0.000 C 
ATOM      8  C   UNL     1       5.525   5.463  18.437  0.00  0.00    +0.000 A 
ATOM      9  C   UNL     1       5.350   4.146  18.264  0.00  0.00    +0.000 A 
ATOM     10  C   UNL     1       4.647   3.529  19.408  0.00  0.00    +0.000 A 
ATOM     11  O   UNL     1       5.040   2.471  19.904  0.00  0.00    +0.000 OA
ATOM     12  C   UNL     1       3.369   4.141  19.951  0.00  0.00    +0.000 A 
ATOM     13  C   UNL     1       2.270   7.447  18.405  0.00  0.00    +0.000 C 
ENDROOT
BRANCH   1  14
ATOM     14  C   UNL     1       1.085   9.599  19.143  0.00  0.00    +0.000 C 
ATOM     15  C   UNL     1       0.367   9.410  17.790  0.00  0.00    +0.000 C 
BRANCH  14  16
ATOM     16  O   UNL     1       2.121  10.569  18.858  0.00  0.00    +0.000 OA
ATOM     17  H   UNL     1       2.984  10.133  18.800  0.00  0.00    +0.000 HD
ENDBRANCH  14  16
BRANCH  14  18
ATOM     18  C   UNL     1       0.081  10.273  20.101  0.00  0.00    +0.000 C 
BRANCH  18  19
ATOM     19  S   UNL     1       0.387  11.996  20.455  0.00  0.00    +0.000 S 
ATOM     20  O   UNL     1       0.172  12.771  19.252  0.00  0.00    +0.000 OA
ATOM     21  O   UNL     1       1.628  12.080  21.198  0.00  0.00    +0.000 OA
BRANCH  19  23
ATOM     22  C   UNL     1      -1.081  11.418  22.695  0.00  0.00    +0.000 C 
ATOM     23  C   UNL     1      -0.937  12.445  21.583  0.00  0.00    +0.000 C 
ENDBRANCH  19  23
ENDBRANCH  18  19
ENDBRANCH  14  18
ENDBRANCH   1  14
BRANCH   9  24
ATOM     24  O   UNL     1       5.136   3.565  17.027  0.00  0.00    +0.000 OA
ATOM     25  H   UNL     1       4.988   4.294  16.400  0.00  0.00    +0.000 HD
ENDBRANCH   9  24
BRANCH  12  26
ATOM     26  O   UNL     1       2.563   3.236  20.613  0.00  0.00    +0.000 OA
ATOM     27  H   UNL     1       1.863   3.798  21.005  0.00  0.00    +0.000 HD
ENDBRANCH  12  26
TORSDOF 7
ENDMDL
MODEL 6
REMARK VINA RESULT:      -6.6      2.122      3.528
REMARK  Name = 
REMARK  10 active torsions:
REMARK  status: ('A' for Active; 'I' for Inactive)
REMARK    1  A    between atoms: C_1  and  C_2
REMARK    2  A    between atoms: C_2  and  S_3
REMARK    3  A    between atoms: S_3  and  C_6
REMARK    4  A    between atoms: C_6  and  C_7
REMARK    5  A    between atoms: C_7  and  C_8
REMARK    6  A    between atoms: C_7  and  O_9
REMARK    7  A    between atoms: C_7  and  C_10
REMARK    8  A    between atoms: C_15  and  C_16
REMARK    9  A    between atoms: C_18  and  O_19
REMARK   10  A    between atoms: C_22  and  O_23
REMARK                            x       y       z     vdW  Elec       q    Type
REMARK                         _______ _______ _______ _____ _____    ______ ____
ROOT
ATOM      1  C   UNL     1       1.428   8.597  18.520  0.00  0.00    +0.000 C 
ATOM      2  C   UNL     1       2.589   9.023  17.599  0.00  0.00    +0.000 C 
ATOM      3  C   UNL     1       3.614   7.896  17.238  0.00  0.00    +0.000 C 
ATOM      4  C   UNL     1       3.492   6.466  17.812  0.00  0.00    +0.000 A 
ATOM      5  C   UNL     1       2.439   6.283  18.848  0.00  0.00    +0.000 A 
ATOM      6  C   UNL     1       2.029   5.083  19.326  0.00  0.00    +0.000 A 
ATOM      7  C   UNL     1       1.508   4.843  20.717  0.00  0.00    +0.000 C 
ATOM      8  C   UNL     1       2.264   3.886  18.522  0.00  0.00    +0.000 A 
ATOM      9  C   UNL     1       3.514   3.410  18.593  0.00  0.00    +0.000 A 
ATOM     10  C   UNL     1       4.398   4.030  17.583  0.00  0.00    +0.000 A 
ATOM     11  O   UNL     1       5.167   3.348  16.903  0.00  0.00    +0.000 OA
ATOM     12  C   UNL     1       4.440   5.538  17.416  0.00  0.00    +0.000 A 
ATOM     13  C   UNL     1       1.978   7.557  19.510  0.00  0.00    +0.000 C 
ENDROOT
BRANCH   1  14
ATOM     14  C   UNL     1       0.610   9.716  19.293  0.00  0.00    +0.000 C 
ATOM     15  C   UNL     1      -0.471  10.380  18.414  0.00  0.00    +0.000 C 
BRANCH  14  16
ATOM     16  O   UNL     1       1.560  10.778  19.543  0.00  0.00    +0.000 OA
ATOM     17  H   UNL     1       2.207  10.830  18.823  0.00  0.00    +0.000 HD
ENDBRANCH  14  16
BRANCH  14  18
ATOM     18  C   UNL     1      -0.050   9.369  20.643  0.00  0.00    +0.000 C 
BRANCH  18  19
ATOM     19  S   UNL     1       0.469  10.358  22.035  0.00  0.00    +0.000 S 
ATOM     20  O   UNL     1       0.465  11.755  21.651  0.00  0.00    +0.000 OA
ATOM     21  O   UNL     1       1.645   9.734  22.606  0.00  0.00    +0.000 OA
BRANCH  19  23
ATOM     22  C   UNL     1      -1.777  11.379  23.227  0.00  0.00    +0.000 C 
ATOM     23  C   UNL     1      -0.863  10.163  23.224  0.00  0.00    +0.000 C 
ENDBRANCH  19  23
ENDBRANCH  18  19
ENDBRANCH  14  18
ENDBRANCH   1  14
BRANCH   9  24
ATOM     24  O   UNL     1       4.114   3.023  19.778  0.00  0.00    +0.000 OA
ATOM     25  H   UNL     1       4.960   3.500  19.829  0.00  0.00    +0.000 HD
ENDBRANCH   9  24
BRANCH  12  26
ATOM     26  O   UNL     1       5.622   5.997  16.868  0.00  0.00    +0.000 OA
ATOM     27  H   UNL     1       5.620   6.952  17.089  0.00  0.00    +0.000 HD
ENDBRANCH  12  26
TORSDOF 7
ENDMDL
MODEL 7
REMARK VINA RESULT:      -6.5      2.017      3.585
REMARK  Name = 
REMARK  10 active torsions:
REMARK  status: ('A' for Active; 'I' for Inactive)
REMARK    1  A    between atoms: C_1  and  C_2
REMARK    2  A    between atoms: C_2  and  S_3
REMARK    3  A    between atoms: S_3  and  C_6
REMARK    4  A    between atoms: C_6  and  C_7
REMARK    5  A    between atoms: C_7  and  C_8
REMARK    6  A    between atoms: C_7  and  O_9
REMARK    7  A    between atoms: C_7  and  C_10
REMARK    8  A    between atoms: C_15  and  C_16
REMARK    9  A    between atoms: C_18  and  O_19
REMARK   10  A    between atoms: C_22  and  O_23
REMARK                            x       y       z     vdW  Elec       q    Type
REMARK                         _______ _______ _______ _____ _____    ______ ____
ROOT
ATOM      1  C   UNL     1       1.233   8.606  19.290  0.00  0.00    +0.000 C 
ATOM      2  C   UNL     1       2.159   9.199  18.209  0.00  0.00    +0.000 C 
ATOM      3  C   UNL     1       3.166   8.194  17.556  0.00  0.00    +0.000 C 
ATOM      4  C   UNL     1       3.255   6.718  18.005  0.00  0.00    +0.000 A 
ATOM      5  C   UNL     1       2.442   6.366  19.200  0.00  0.00    +0.000 A 
ATOM      6  C   UNL     1       2.215   5.102  19.632  0.00  0.00    +0.000 A 
ATOM      7  C   UNL     1       1.995   4.710  21.068  0.00  0.00    +0.000 C 
ATOM      8  C   UNL     1       2.367   3.996  18.690  0.00  0.00    +0.000 A 
ATOM      9  C   UNL     1       3.636   3.622  18.476  0.00  0.00    +0.000 A 
ATOM     10  C   UNL     1       4.260   4.393  17.380  0.00  0.00    +0.000 A 
ATOM     11  O   UNL     1       4.924   3.834  16.505  0.00  0.00    +0.000 OA
ATOM     12  C   UNL     1       4.167   5.907  17.351  0.00  0.00    +0.000 A 
ATOM     13  C   UNL     1       2.035   7.540  20.055  0.00  0.00    +0.000 C 
ENDROOT
BRANCH   1  14
ATOM     14  C   UNL     1       0.509   9.587  20.306  0.00  0.00    +0.000 C 
ATOM     15  C   UNL     1       0.174   8.913  21.652  0.00  0.00    +0.000 C 
BRANCH  14  16
ATOM     16  O   UNL     1      -0.784   9.858  19.717  0.00  0.00    +0.000 OA
ATOM     17  H   UNL     1      -0.891  10.807  19.556  0.00  0.00    +0.000 HD
ENDBRANCH  14  16
BRANCH  14  18
ATOM     18  C   UNL     1       1.158  10.949  20.627  0.00  0.00    +0.000 C 
BRANCH  18  19
ATOM     19  S   UNL     1       0.283  12.384  20.025  0.00  0.00    +0.000 S 
ATOM     20  O   UNL     1      -0.949  12.534  20.771  0.00  0.00    +0.000 OA
ATOM     21  O   UNL     1       0.289  12.329  18.577  0.00  0.00    +0.000 OA
BRANCH  19  23
ATOM     22  C   UNL     1       0.835  14.401  21.794  0.00  0.00    +0.000 C 
ATOM     23  C   UNL     1       1.330  13.761  20.507  0.00  0.00    +0.000 C 
ENDBRANCH  19  23
ENDBRANCH  18  19
ENDBRANCH  14  18
ENDBRANCH   1  14
BRANCH   9  24
ATOM     24  O   UNL     1       4.481   3.195  19.485  0.00  0.00    +0.000 OA
ATOM     25  H   UNL     1       5.174   2.664  19.057  0.00  0.00    +0.000 HD
ENDBRANCH   9  24
BRANCH  12  26
ATOM     26  O   UNL     1       5.185   6.506  16.633  0.00  0.00    +0.000 OA
ATOM     27  H   UNL     1       5.130   6.073  15.756  0.00  0.00    +0.000 HD
ENDBRANCH  12  26
TORSDOF 7
ENDMDL
MODEL 8
REMARK VINA RESULT:      -6.5      2.354      3.604
REMARK  Name = 
REMARK  10 active torsions:
REMARK  status: ('A' for Active; 'I' for Inactive)
REMARK    1  A    between atoms: C_1  and  C_2
REMARK    2  A    between atoms: C_2  and  S_3
REMARK    3  A    between atoms: S_3  and  C_6
REMARK    4  A    between atoms: C_6  and  C_7
REMARK    5  A    between atoms: C_7  and  C_8
REMARK    6  A    between atoms: C_7  and  O_9
REMARK    7  A    between atoms: C_7  and  C_10
REMARK    8  A    between atoms: C_15  and  C_16
REMARK    9  A    between atoms: C_18  and  O_19
REMARK   10  A    between atoms: C_22  and  O_23
REMARK                            x       y       z     vdW  Elec       q    Type
REMARK                         _______ _______ _______ _____ _____    ______ ____
ROOT
ATOM      1  C   UNL     1       1.002   8.229  19.909  0.00  0.00    +0.000 C 
ATOM      2  C   UNL     1       1.734   8.995  18.788  0.00  0.00    +0.000 C 
ATOM      3  C   UNL     1       2.725   8.144  17.925  0.00  0.00    +0.000 C 
ATOM      4  C   UNL     1       2.987   6.648  18.216  0.00  0.00    +0.000 A 
ATOM      5  C   UNL     1       2.362   6.123  19.460  0.00  0.00    +0.000 A 
ATOM      6  C   UNL     1       2.292   4.811  19.792  0.00  0.00    +0.000 A 
ATOM      7  C   UNL     1       2.288   4.279  21.199  0.00  0.00    +0.000 C 
ATOM      8  C   UNL     1       2.409   3.809  18.735  0.00  0.00    +0.000 A 
ATOM      9  C   UNL     1       3.666   3.571  18.337  0.00  0.00    +0.000 A 
ATOM     10  C   UNL     1       4.083   4.485  17.254  0.00  0.00    +0.000 A 
ATOM     11  O   UNL     1       4.672   4.066  16.255  0.00  0.00    +0.000 OA
ATOM     12  C   UNL     1       3.869   5.982  17.381  0.00  0.00    +0.000 A 
ATOM     13  C   UNL     1       1.977   7.178  20.466  0.00  0.00    +0.000 C 
ENDROOT
BRANCH   1  14
ATOM     14  C   UNL     1       0.340   9.051  21.094  0.00  0.00    +0.000 C 
ATOM     15  C   UNL     1       1.318   9.318  22.256  0.00  0.00    +0.000 C 
BRANCH  14  16
ATOM     16  O   UNL     1      -0.650   8.163  21.666  0.00  0.00    +0.000 OA
ATOM     17  H   UNL     1      -0.267   7.656  22.398  0.00  0.00    +0.000 HD
ENDBRANCH  14  16
BRANCH  14  18
ATOM     18  C   UNL     1      -0.371  10.383  20.781  0.00  0.00    +0.000 C 
BRANCH  18  19
ATOM     19  S   UNL     1      -0.865  11.349  22.199  0.00  0.00    +0.000 S 
ATOM     20  O   UNL     1       0.105  12.402  22.416  0.00  0.00    +0.000 OA
ATOM     21  O   UNL     1      -1.229  10.426  23.255  0.00  0.00    +0.000 OA
BRANCH  19  23
ATOM     22  C   UNL     1      -3.206  12.613  22.852  0.00  0.00    +0.000 C 
ATOM     23  C   UNL     1      -2.374  12.162  21.662  0.00  0.00    +0.000 C 
ENDBRANCH  19  23
ENDBRANCH  18  19
ENDBRANCH  14  18
ENDBRANCH   1  14
BRANCH   9  24
ATOM     24  O   UNL     1       4.663   3.135  19.191  0.00  0.00    +0.000 OA
ATOM     25  H   UNL     1       4.848   3.872  19.799  0.00  0.00    +0.000 HD
ENDBRANCH   9  24
BRANCH  12  26
ATOM     26  O   UNL     1       4.737   6.730  16.609  0.00  0.00    +0.000 OA
ATOM     27  H   UNL     1       5.343   7.128  17.268  0.00  0.00    +0.000 HD
ENDBRANCH  12  26
TORSDOF 7
ENDMDL
MODEL 9
REMARK VINA RESULT:      -6.5      1.841      3.287
REMARK  Name = 
REMARK  10 active torsions:
REMARK  status: ('A' for Active; 'I' for Inactive)
REMARK    1  A    between atoms: C_1  and  C_2
REMARK    2  A    between atoms: C_2  and  S_3
REMARK    3  A    between atoms: S_3  and  C_6
REMARK    4  A    between atoms: C_6  and  C_7
REMARK    5  A    between atoms: C_7  and  C_8
REMARK    6  A    between atoms: C_7  and  O_9
REMARK    7  A    between atoms: C_7  and  C_10
REMARK    8  A    between atoms: C_15  and  C_16
REMARK    9  A    between atoms: C_18  and  O_19
REMARK   10  A    between atoms: C_22  and  O_23
REMARK                            x       y       z     vdW  Elec       q    Type
REMARK                         _______ _______ _______ _____ _____    ______ ____
ROOT
ATOM      1  C   UNL     1       1.222   8.428  19.779  0.00  0.00    +0.000 C 
ATOM      2  C   UNL     1       2.008   9.113  18.642  0.00  0.00    +0.000 C 
ATOM      3  C   UNL     1       2.933   8.173  17.798  0.00  0.00    +0.000 C 
ATOM      4  C   UNL     1       3.083   6.668  18.121  0.00  0.00    +0.000 A 
ATOM      5  C   UNL     1       2.422   6.217  19.375  0.00  0.00    +0.000 A 
ATOM      6  C   UNL     1       2.254   4.922  19.735  0.00  0.00    +0.000 A 
ATOM      7  C   UNL     1       2.212   4.421  21.153  0.00  0.00    +0.000 C 
ATOM      8  C   UNL     1       2.296   3.892  18.701  0.00  0.00    +0.000 A 
ATOM      9  C   UNL     1       3.532   3.552  18.308  0.00  0.00    +0.000 A 
ATOM     10  C   UNL     1       4.015   4.410  17.206  0.00  0.00    +0.000 A 
ATOM     11  O   UNL     1       4.570   3.927  16.218  0.00  0.00    +0.000 OA
ATOM     12  C   UNL     1       3.913   5.921  17.302  0.00  0.00    +0.000 A 
ATOM     13  C   UNL     1       2.116   7.320  20.359  0.00  0.00    +0.000 C 
ENDROOT
BRANCH   1  14
ATOM     14  C   UNL     1       0.623   9.321  20.945  0.00  0.00    +0.000 C 
ATOM     15  C   UNL     1       1.379   9.148  22.279  0.00  0.00    +0.000 C 
BRANCH  14  16
ATOM     16  O   UNL     1      -0.688   8.771  21.211  0.00  0.00    +0.000 OA
ATOM     17  H   UNL     1      -0.967   8.981  22.115  0.00  0.00    +0.000 HD
ENDBRANCH  14  16
BRANCH  14  18
ATOM     18  C   UNL     1       0.444  10.836  20.717  0.00  0.00    +0.000 C 
BRANCH  18  19
ATOM     19  S   UNL     1      -0.728  11.294  19.450  0.00  0.00    +0.000 S 
ATOM     20  O   UNL     1      -1.402  10.103  18.976  0.00  0.00    +0.000 OA
ATOM     21  O   UNL     1      -0.060  12.199  18.537  0.00  0.00    +0.000 OA
BRANCH  19  23
ATOM     22  C   UNL     1      -1.770  12.142  21.837  0.00  0.00    +0.000 C 
ATOM     23  C   UNL     1      -1.965  12.250  20.333  0.00  0.00    +0.000 C 
ENDBRANCH  19  23
ENDBRANCH  18  19
ENDBRANCH  14  18
ENDBRANCH   1  14
BRANCH   9  24
ATOM     24  O   UNL     1       4.494   3.062  19.172  0.00  0.00    +0.000 OA
ATOM     25  H   UNL     1       5.064   3.815  19.407  0.00  0.00    +0.000 HD
ENDBRANCH   9  24
BRANCH  12  26
ATOM     26  O   UNL     1       4.833   6.585  16.515  0.00  0.00    +0.000 OA
ATOM     27  H   UNL     1       4.443   6.535  15.617  0.00  0.00    +0.000 HD
ENDBRANCH  12  26
TORSDOF 7
ENDMDL
