MODEL 1
REMARK VINA RESULT:      -5.8      0.000      0.000
REMARK  Name = 
REMARK  5 active torsions:
REMARK  status: ('A' for Active; 'I' for Inactive)
REMARK    1  A    between atoms: C_1  and  N_2
REMARK    2  A    between atoms: N_2  and  C_3
REMARK    3  A    between atoms: N_2  and  C_4
REMARK    4  A    between atoms: C_5  and  C_6
REMARK    5  A    between atoms: C_6  and  C_8
REMARK                            x       y       z     vdW  Elec       q    Type
REMARK                         _______ _______ _______ _____ _____    ______ ____
ROOT
ATOM      1  C   UNL     1       2.979   6.226  18.136  0.00  0.00    +0.000 C 
ATOM      2  O   UNL     1       2.600   7.385  18.252  0.00  0.00    +0.000 OA
ENDROOT
BRANCH   1   3
ATOM      3  C   UNL     1       2.243   5.109  18.785  0.00  0.00    +0.000 A 
ATOM      4  C   UNL     1       2.111   5.039  20.180  0.00  0.00    +0.000 A 
ATOM      5  C   UNL     1       1.444   3.965  20.770  0.00  0.00    +0.000 A 
ATOM      6  C   UNL     1       0.890   2.967  19.971  0.00  0.00    +0.000 A 
ATOM      7  C   UNL     1       0.992   3.046  18.580  0.00  0.00    +0.000 A 
ATOM      8  C   UNL     1       1.662   4.119  17.986  0.00  0.00    +0.000 A 
ENDBRANCH   1   3
BRANCH   1  10
ATOM      9  C   UNL     1       5.100   5.009  17.769  0.00  0.00    +0.000 C 
ATOM     10  C   UNL     1       4.157   5.841  17.313  0.00  0.00    +0.000 C 
BRANCH   9  12
ATOM     11  C   UNL     1       6.097   3.935  15.769  0.00  0.00    +0.000 C 
ATOM     12  N   UNL     1       6.223   4.548  17.090  0.00  0.00    +0.000 N 
ATOM     13  C   UNL     1       7.572   4.634  17.646  0.00  0.00    +0.000 C 
ENDBRANCH   9  12
ENDBRANCH   1  10
TORSDOF 3
ENDMDL
MODEL 2
REMARK VINA RESULT:      -5.8      0.497      1.717
REMARK  Name = 
REMARK  5 active torsions:
REMARK  status: ('A' for Active; 'I' for Inactive)
REMARK    1  A    between atoms: C_1  and  N_2
REMARK    2  A    between atoms: N_2  and  C_3
REMARK    3  A    between atoms: N_2  and  C_4
REMARK    4  A    between atoms: C_5  and  C_6
REMARK    5  A    between atoms: C_6  and  C_8
REMARK                            x       y       z     vdW  Elec       q    Type
REMARK                         _______ _______ _______ _____ _____    ______ ____
ROOT
ATOM      1  C   UNL     1       2.911   5.838  18.137  0.00  0.00    +0.000 C 
ATOM      2  O   UNL     1       2.493   6.989  18.099  0.00  0.00    +0.000 OA
ENDROOT
BRANCH   1   3
ATOM      3  C   UNL     1       2.304   4.831  19.049  0.00  0.00    +0.000 A 
ATOM      4  C   UNL     1       1.478   3.810  18.558  0.00  0.00    +0.000 A 
ATOM      5  C   UNL     1       0.894   2.895  19.435  0.00  0.00    +0.000 A 
ATOM      6  C   UNL     1       1.146   2.985  20.802  0.00  0.00    +0.000 A 
ATOM      7  C   UNL     1       1.992   3.981  21.295  0.00  0.00    +0.000 A 
ATOM      8  C   UNL     1       2.577   4.900  20.420  0.00  0.00    +0.000 A 
ENDBRANCH   1   3
BRANCH   1  10
ATOM      9  C   UNL     1       5.222   5.060  17.733  0.00  0.00    +0.000 C 
ATOM     10  C   UNL     1       4.005   5.347  17.258  0.00  0.00    +0.000 C 
BRANCH   9  12
ATOM     11  C   UNL     1       7.655   4.602  17.603  0.00  0.00    +0.000 C 
ATOM     12  N   UNL     1       6.313   4.565  17.025  0.00  0.00    +0.000 N 
ATOM     13  C   UNL     1       6.192   3.997  15.684  0.00  0.00    +0.000 C 
ENDBRANCH   9  12
ENDBRANCH   1  10
TORSDOF 3
ENDMDL
MODEL 3
REMARK VINA RESULT:      -5.7      3.667      5.414
REMARK  Name = 
REMARK  5 active torsions:
REMARK  status: ('A' for Active; 'I' for Inactive)
REMARK    1  A    between atoms: C_1  and  N_2
REMARK    2  A    between atoms: N_2  and  C_3
REMARK    3  A    between atoms: N_2  and  C_4
REMARK    4  A    between atoms: C_5  and  C_6
REMARK    5  A    between atoms: C_6  and  C_8
REMARK                            x       y       z     vdW  Elec       q    Type
REMARK                         _______ _______ _______ _____ _____    ______ ____
ROOT
ATOM      1  C   UNL     1       6.813   4.729  14.904  0.00  0.00    +0.000 C 
ATOM      2  O   UNL     1       7.767   5.361  14.466  0.00  0.00    +0.000 OA
ENDROOT
BRANCH   1   3
ATOM      3  C   UNL     1       6.434   4.809  16.340  0.00  0.00    +0.000 A 
ATOM      4  C   UNL     1       7.296   5.377  17.289  0.00  0.00    +0.000 A 
ATOM      5  C   UNL     1       6.933   5.414  18.636  0.00  0.00    +0.000 A 
ATOM      6  C   UNL     1       5.702   4.901  19.038  0.00  0.00    +0.000 A 
ATOM      7  C   UNL     1       4.826   4.360  18.094  0.00  0.00    +0.000 A 
ATOM      8  C   UNL     1       5.187   4.320  16.745  0.00  0.00    +0.000 A 
ENDBRANCH   1   3
BRANCH   1  10
ATOM      9  C   UNL     1       6.229   3.644  12.761  0.00  0.00    +0.000 C 
ATOM     10  C   UNL     1       5.943   3.882  14.046  0.00  0.00    +0.000 C 
BRANCH   9  12
ATOM     11  C   UNL     1       6.074   1.579  11.397  0.00  0.00    +0.000 C 
ATOM     12  N   UNL     1       5.519   2.848  11.867  0.00  0.00    +0.000 N 
ATOM     13  C   UNL     1       4.207   3.223  11.345  0.00  0.00    +0.000 C 
ENDBRANCH   9  12
ENDBRANCH   1  10
TORSDOF 3
ENDMDL
MODEL 4
REMARK VINA RESULT:      -5.7      1.962      2.348
REMARK  Name = 
REMARK  5 active torsions:
REMARK  status: ('A' for Active; 'I' for Inactive)
REMARK    1  A    between atoms: C_1  and  N_2
REMARK    2  A    between atoms: N_2  and  C_3
REMARK    3  A    between atoms: N_2  and  C_4
REMARK    4  A    between atoms: C_5  and  C_6
REMARK    5  A    between atoms: C_6  and  C_8
REMARK                            x       y       z     vdW  Elec       q    Type
REMARK                         _______ _______ _______ _____ _____    ______ ____
ROOT
ATOM      1  C   UNL     1       3.062   3.376  17.581  0.00  0.00    +0.000 C 
ATOM      2  O   UNL     1       2.311   3.255  16.621  0.00  0.00    +0.000 OA
ENDROOT
BRANCH   1   3
ATOM      3  C   UNL     1       2.563   3.209  18.972  0.00  0.00    +0.000 A 
ATOM      4  C   UNL     1       1.245   3.542  19.316  0.00  0.00    +0.000 A 
ATOM      5  C   UNL     1       0.806   3.406  20.634  0.00  0.00    +0.000 A 
ATOM      6  C   UNL     1       1.675   2.922  21.609  0.00  0.00    +0.000 A 
ATOM      7  C   UNL     1       2.980   2.561  21.268  0.00  0.00    +0.000 A 
ATOM      8  C   UNL     1       3.424   2.697  19.949  0.00  0.00    +0.000 A 
ENDBRANCH   1   3
BRANCH   1  10
ATOM      9  C   UNL     1       5.042   4.135  16.308  0.00  0.00    +0.000 C 
ATOM     10  C   UNL     1       4.517   3.648  17.439  0.00  0.00    +0.000 C 
BRANCH   9  12
ATOM     11  C   UNL     1       6.842   4.691  14.697  0.00  0.00    +0.000 C 
ATOM     12  N   UNL     1       6.371   4.462  16.062  0.00  0.00    +0.000 N 
ATOM     13  C   UNL     1       7.365   4.585  17.127  0.00  0.00    +0.000 C 
ENDBRANCH   9  12
ENDBRANCH   1  10
TORSDOF 3
ENDMDL
MODEL 5
REMARK VINA RESULT:      -5.7      3.437      5.311
REMARK  Name = 
REMARK  5 active torsions:
REMARK  status: ('A' for Active; 'I' for Inactive)
REMARK    1  A    between atoms: C_1  and  N_2
REMARK    2  A    between atoms: N_2  and  C_3
REMARK    3  A    between atoms: N_2  and  C_4
REMARK    4  A    between atoms: C_5  and  C_6
REMARK    5  A    between atoms: C_6  and  C_8
REMARK                            x       y       z     vdW  Elec       q    Type
REMARK                         _______ _______ _______ _____ _____    ______ ____
ROOT
ATOM      1  C   UNL     1       6.616   4.787  14.666  0.00  0.00    +0.000 C 
ATOM      2  O   UNL     1       7.652   5.438  14.611  0.00  0.00    +0.000 OA
ENDROOT
BRANCH   1   3
ATOM      3  C   UNL     1       5.599   5.051  15.719  0.00  0.00    +0.000 A 
ATOM      4  C   UNL     1       4.954   3.999  16.386  0.00  0.00    +0.000 A 
ATOM      5  C   UNL     1       3.980   4.269  17.348  0.00  0.00    +0.000 A 
ATOM      6  C   UNL     1       3.659   5.588  17.660  0.00  0.00    +0.000 A 
ATOM      7  C   UNL     1       4.318   6.640  17.021  0.00  0.00    +0.000 A 
ATOM      8  C   UNL     1       5.293   6.374  16.055  0.00  0.00    +0.000 A 
ENDBRANCH   1   3
BRANCH   1  10
ATOM      9  C   UNL     1       5.333   3.912  12.743  0.00  0.00    +0.000 C 
ATOM     10  C   UNL     1       6.273   3.731  13.677  0.00  0.00    +0.000 C 
BRANCH   9  12
ATOM     11  C   UNL     1       5.761   1.851  11.434  0.00  0.00    +0.000 C 
ATOM     12  N   UNL     1       4.945   3.023  11.746  0.00  0.00    +0.000 N 
ATOM     13  C   UNL     1       3.729   3.203  10.956  0.00  0.00    +0.000 C 
ENDBRANCH   9  12
ENDBRANCH   1  10
TORSDOF 3
ENDMDL
MODEL 6
REMARK VINA RESULT:      -5.6      3.807      5.419
REMARK  Name = 
REMARK  5 active torsions:
REMARK  status: ('A' for Active; 'I' for Inactive)
REMARK    1  A    between atoms: C_1  and  N_2
REMARK    2  A    between atoms: N_2  and  C_3
REMARK    3  A    between atoms: N_2  and  C_4
REMARK    4  A    between atoms: C_5  and  C_6
REMARK    5  A    between atoms: C_6  and  C_8
REMARK                            x       y       z     vdW  Elec       q    Type
REMARK                         _______ _______ _______ _____ _____    ______ ____
ROOT
ATOM      1  C   UNL     1       6.629   4.899  14.717  0.00  0.00    +0.000 C 
ATOM      2  O   UNL     1       7.717   5.349  14.378  0.00  0.00    +0.000 OA
ENDROOT
BRANCH   1   3
ATOM      3  C   UNL     1       6.082   5.158  16.075  0.00  0.00    +0.000 A 
ATOM      4  C   UNL     1       5.006   6.037  16.270  0.00  0.00    +0.000 A 
ATOM      5  C   UNL     1       4.529   6.289  17.557  0.00  0.00    +0.000 A 
ATOM      6  C   UNL     1       5.110   5.652  18.651  0.00  0.00    +0.000 A 
ATOM      7  C   UNL     1       6.162   4.754  18.461  0.00  0.00    +0.000 A 
ATOM      8  C   UNL     1       6.645   4.500  17.174  0.00  0.00    +0.000 A 
ENDBRANCH   1   3
BRANCH   1  10
ATOM      9  C   UNL     1       6.242   3.507  12.711  0.00  0.00    +0.000 C 
ATOM     10  C   UNL     1       5.760   4.114  13.801  0.00  0.00    +0.000 C 
BRANCH   9  12
ATOM     11  C   UNL     1       4.227   3.129  11.317  0.00  0.00    +0.000 C 
ATOM     12  N   UNL     1       5.544   2.720  11.800  0.00  0.00    +0.000 N 
ATOM     13  C   UNL     1       6.067   1.456  11.286  0.00  0.00    +0.000 C 
ENDBRANCH   9  12
ENDBRANCH   1  10
TORSDOF 3
ENDMDL
MODEL 7
REMARK VINA RESULT:      -5.5      1.098      1.868
REMARK  Name = 
REMARK  5 active torsions:
REMARK  status: ('A' for Active; 'I' for Inactive)
REMARK    1  A    between atoms: C_1  and  N_2
REMARK    2  A    between atoms: N_2  and  C_3
REMARK    3  A    between atoms: N_2  and  C_4
REMARK    4  A    between atoms: C_5  and  C_6
REMARK    5  A    between atoms: C_6  and  C_8
REMARK                            x       y       z     vdW  Elec       q    Type
REMARK                         _______ _______ _______ _____ _____    ______ ____
ROOT
ATOM      1  C   UNL     1       2.964   6.133  18.129  0.00  0.00    +0.000 C 
ATOM      2  O   UNL     1       2.298   7.144  18.321  0.00  0.00    +0.000 OA
ENDROOT
BRANCH   1   3
ATOM      3  C   UNL     1       2.421   4.785  18.445  0.00  0.00    +0.000 A 
ATOM      4  C   UNL     1       2.642   3.694  17.591  0.00  0.00    +0.000 A 
ATOM      5  C   UNL     1       2.096   2.445  17.891  0.00  0.00    +0.000 A 
ATOM      6  C   UNL     1       1.345   2.276  19.052  0.00  0.00    +0.000 A 
ATOM      7  C   UNL     1       1.146   3.351  19.921  0.00  0.00    +0.000 A 
ATOM      8  C   UNL     1       1.688   4.604  19.623  0.00  0.00    +0.000 A 
ENDBRANCH   1   3
BRANCH   1  10
ATOM      9  C   UNL     1       5.423   5.913  18.250  0.00  0.00    +0.000 C 
ATOM     10  C   UNL     1       4.325   6.165  17.530  0.00  0.00    +0.000 C 
BRANCH   9  12
ATOM     11  C   UNL     1       7.455   7.113  17.489  0.00  0.00    +0.000 C 
ATOM     12  N   UNL     1       6.740   5.877  17.803  0.00  0.00    +0.000 N 
ATOM     13  C   UNL     1       7.477   4.629  17.614  0.00  0.00    +0.000 C 
ENDBRANCH   9  12
ENDBRANCH   1  10
TORSDOF 3
ENDMDL
MODEL 8
REMARK VINA RESULT:      -5.5      1.083      1.365
REMARK  Name = 
REMARK  5 active torsions:
REMARK  status: ('A' for Active; 'I' for Inactive)
REMARK    1  A    between atoms: C_1  and  N_2
REMARK    2  A    between atoms: N_2  and  C_3
REMARK    3  A    between atoms: N_2  and  C_4
REMARK    4  A    between atoms: C_5  and  C_6
REMARK    5  A    between atoms: C_6  and  C_8
REMARK                            x       y       z     vdW  Elec       q    Type
REMARK                         _______ _______ _______ _____ _____    ______ ____
ROOT
ATOM      1  C   UNL     1       3.134   6.213  18.969  0.00  0.00    +0.000 C 
ATOM      2  O   UNL     1       2.627   7.324  18.883  0.00  0.00    +0.000 OA
ENDROOT
BRANCH   1   3
ATOM      3  C   UNL     1       2.300   5.005  19.209  0.00  0.00    +0.000 A 
ATOM      4  C   UNL     1       1.864   4.668  20.500  0.00  0.00    +0.000 A 
ATOM      5  C   UNL     1       1.109   3.513  20.707  0.00  0.00    +0.000 A 
ATOM      6  C   UNL     1       0.770   2.701  19.628  0.00  0.00    +0.000 A 
ATOM      7  C   UNL     1       1.175   3.046  18.337  0.00  0.00    +0.000 A 
ATOM      8  C   UNL     1       1.934   4.201  18.125  0.00  0.00    +0.000 A 
ENDBRANCH   1   3
BRANCH   1  10
ATOM      9  C   UNL     1       5.207   6.162  17.622  0.00  0.00    +0.000 C 
ATOM     10  C   UNL     1       4.592   5.975  18.795  0.00  0.00    +0.000 C 
BRANCH   9  12
ATOM     11  C   UNL     1       7.482   7.135  17.472  0.00  0.00    +0.000 C 
ATOM     12  N   UNL     1       6.560   6.008  17.340  0.00  0.00    +0.000 N 
ATOM     13  C   UNL     1       7.135   4.741  16.894  0.00  0.00    +0.000 C 
ENDBRANCH   9  12
ENDBRANCH   1  10
TORSDOF 3
ENDMDL
MODEL 9
REMARK VINA RESULT:      -5.5      1.716      2.377
REMARK  Name = 
REMARK  5 active torsions:
REMARK  status: ('A' for Active; 'I' for Inactive)
REMARK    1  A    between atoms: C_1  and  N_2
REMARK    2  A    between atoms: N_2  and  C_3
REMARK    3  A    between atoms: N_2  and  C_4
REMARK    4  A    between atoms: C_5  and  C_6
REMARK    5  A    between atoms: C_6  and  C_8
REMARK                            x       y       z     vdW  Elec       q    Type
REMARK                         _______ _______ _______ _____ _____    ______ ____
ROOT
ATOM      1  C   UNL     1       2.848   3.785  17.446  0.00  0.00    +0.000 C 
ATOM      2  O   UNL     1       2.146   3.261  16.590  0.00  0.00    +0.000 OA
ENDROOT
BRANCH   1   3
ATOM      3  C   UNL     1       2.505   3.683  18.890  0.00  0.00    +0.000 A 
ATOM      4  C   UNL     1       2.093   2.467  19.454  0.00  0.00    +0.000 A 
ATOM      5  C   UNL     1       1.745   2.400  20.804  0.00  0.00    +0.000 A 
ATOM      6  C   UNL     1       1.823   3.542  21.598  0.00  0.00    +0.000 A 
ATOM      7  C   UNL     1       2.260   4.749  21.050  0.00  0.00    +0.000 A 
ATOM      8  C   UNL     1       2.607   4.820  19.698  0.00  0.00    +0.000 A 
ENDBRANCH   1   3
BRANCH   1  10
ATOM      9  C   UNL     1       5.269   3.877  16.951  0.00  0.00    +0.000 C 
ATOM     10  C   UNL     1       4.105   4.512  17.124  0.00  0.00    +0.000 C 
BRANCH   9  12
ATOM     11  C   UNL     1       7.522   4.651  17.636  0.00  0.00    +0.000 C 
ATOM     12  N   UNL     1       6.498   4.434  16.615  0.00  0.00    +0.000 N 
ATOM     13  C   UNL     1       6.836   4.840  15.253  0.00  0.00    +0.000 C 
ENDBRANCH   9  12
ENDBRANCH   1  10
TORSDOF 3
ENDMDL
