MODEL 1
REMARK VINA RESULT:      -8.6      0.000      0.000
REMARK  Name = 
REMARK  5 active torsions:
REMARK  status: ('A' for Active; 'I' for Inactive)
REMARK    1  A    between atoms: C_6  and  C_7
REMARK    2  A    between atoms: C_7  and  C_8
REMARK    3  A    between atoms: C_11  and  N_12
REMARK    4  A    between atoms: N_13  and  C_14
REMARK    5  A    between atoms: C_17  and  C_18
REMARK                            x       y       z     vdW  Elec       q    Type
REMARK                         _______ _______ _______ _____ _____    ______ ____
ROOT
ATOM      1  C   UNL     1       3.952   5.335  18.131  0.00  0.00    +0.000 A 
ATOM      2  C   UNL     1       3.728   6.516  17.411  0.00  0.00    +0.000 A 
ATOM      3  C   UNL     1       2.965   7.555  17.948  0.00  0.00    +0.000 A 
ATOM      4  C   UNL     1       2.353   7.424  19.194  0.00  0.00    +0.000 A 
ATOM      5  C   UNL     1       2.574   6.246  19.919  0.00  0.00    +0.000 A 
ATOM      6  C   UNL     1       3.364   5.214  19.397  0.00  0.00    +0.000 A 
ENDROOT
BRANCH   4   7
ATOM      7  N   UNL     1       1.547   8.491  19.645  0.00  0.00    +0.000 NA
ATOM      8  N   UNL     1       1.500   8.547  20.890  0.00  0.00    +0.000 NA
BRANCH   8   9
ATOM      9  C   UNL     1       0.578   9.502  21.362  0.00  0.00    +0.000 A 
ATOM     10  C   UNL     1       0.048   9.304  22.642  0.00  0.00    +0.000 A 
ATOM     11  C   UNL     1      -0.873  10.201  23.190  0.00  0.00    +0.000 A 
ATOM     12  C   UNL     1      -1.280  11.330  22.467  0.00  0.00    +0.000 A 
ATOM     13  C   UNL     1      -0.747  11.539  21.186  0.00  0.00    +0.000 A 
ATOM     14  C   UNL     1       0.176  10.637  20.644  0.00  0.00    +0.000 A 
BRANCH  12  15
ATOM     15  C   UNL     1      -2.260  12.317  23.053  0.00  0.00    +0.000 C 
ATOM     16  F   UNL     1      -3.011  12.959  22.116  0.00  0.00    +0.000 F 
ATOM     17  F   UNL     1      -3.148  11.725  23.900  0.00  0.00    +0.000 F 
ATOM     18  F   UNL     1      -1.649  13.296  23.775  0.00  0.00    +0.000 F 
ENDBRANCH  12  15
ENDBRANCH   8   9
ENDBRANCH   4   7
BRANCH   1  19
ATOM     19  C   UNL     1       4.732   4.181  17.536  0.00  0.00    +0.000 C 
BRANCH  19  25
ATOM     20  O   UNL     1       7.827   7.780  17.159  0.00  0.00    +0.000 OA
ATOM     21  C   UNL     1       7.427   6.631  17.097  0.00  0.00    +0.000 C 
ATOM     22  N   UNL     1       7.256   5.916  15.966  0.00  0.00    +0.000 N 
ATOM     23  C   UNL     1       6.646   4.696  16.044  0.00  0.00    +0.000 C 
ATOM     24  O   UNL     1       6.404   4.005  15.058  0.00  0.00    +0.000 OA
ATOM     25  C   UNL     1       6.262   4.325  17.464  0.00  0.00    +0.000 C 
ATOM     26  S   UNL     1       6.973   5.679  18.473  0.00  0.00    +0.000 S 
ATOM     27  H   UNL     1       7.501   6.314  15.070  0.00  0.00    +0.000 HD
ENDBRANCH  19  25
ENDBRANCH   1  19
TORSDOF 5
ENDMDL
MODEL 2
REMARK VINA RESULT:      -8.6      0.299      1.553
REMARK  Name = 
REMARK  5 active torsions:
REMARK  status: ('A' for Active; 'I' for Inactive)
REMARK    1  A    between atoms: C_6  and  C_7
REMARK    2  A    between atoms: C_7  and  C_8
REMARK    3  A    between atoms: C_11  and  N_12
REMARK    4  A    between atoms: N_13  and  C_14
REMARK    5  A    between atoms: C_17  and  C_18
REMARK                            x       y       z     vdW  Elec       q    Type
REMARK                         _______ _______ _______ _____ _____    ______ ____
ROOT
ATOM      1  C   UNL     1       4.019   5.348  18.039  0.00  0.00    +0.000 A 
ATOM      2  C   UNL     1       3.426   5.266  19.306  0.00  0.00    +0.000 A 
ATOM      3  C   UNL     1       2.642   6.309  19.805  0.00  0.00    +0.000 A 
ATOM      4  C   UNL     1       2.475   7.488  19.081  0.00  0.00    +0.000 A 
ATOM      5  C   UNL     1       3.065   7.576  17.813  0.00  0.00    +0.000 A 
ATOM      6  C   UNL     1       3.827   6.521  17.297  0.00  0.00    +0.000 A 
ENDROOT
BRANCH   4   7
ATOM      7  N   UNL     1       1.719   8.521  19.675  0.00  0.00    +0.000 NA
ATOM      8  N   UNL     1       1.486   8.296  20.879  0.00  0.00    +0.000 NA
BRANCH   8   9
ATOM      9  C   UNL     1       0.601   9.232  21.451  0.00  0.00    +0.000 A 
ATOM     10  C   UNL     1       0.150  10.272  20.630  0.00  0.00    +0.000 A 
ATOM     11  C   UNL     1      -0.728  11.246  21.114  0.00  0.00    +0.000 A 
ATOM     12  C   UNL     1      -1.186  11.194  22.437  0.00  0.00    +0.000 A 
ATOM     13  C   UNL     1      -0.744  10.150  23.263  0.00  0.00    +0.000 A 
ATOM     14  C   UNL     1       0.134   9.177  22.772  0.00  0.00    +0.000 A 
BRANCH  12  15
ATOM     15  C   UNL     1      -2.149  12.227  22.967  0.00  0.00    +0.000 C 
ATOM     16  F   UNL     1      -3.064  11.722  23.841  0.00  0.00    +0.000 F 
ATOM     17  F   UNL     1      -1.515  13.233  23.634  0.00  0.00    +0.000 F 
ATOM     18  F   UNL     1      -2.869  12.828  21.980  0.00  0.00    +0.000 F 
ENDBRANCH  12  15
ENDBRANCH   8   9
ENDBRANCH   4   7
BRANCH   1  19
ATOM     19  C   UNL     1       4.917   4.247  17.512  0.00  0.00    +0.000 C 
BRANCH  19  25
ATOM     20  O   UNL     1       7.786   8.043  17.705  0.00  0.00    +0.000 OA
ATOM     21  C   UNL     1       7.468   6.884  17.505  0.00  0.00    +0.000 C 
ATOM     22  N   UNL     1       7.421   6.275  16.303  0.00  0.00    +0.000 N 
ATOM     23  C   UNL     1       6.889   5.019  16.220  0.00  0.00    +0.000 C 
ATOM     24  O   UNL     1       6.760   4.415  15.158  0.00  0.00    +0.000 OA
ATOM     25  C   UNL     1       6.435   4.488  17.567  0.00  0.00    +0.000 C 
ATOM     26  S   UNL     1       6.986   5.776  18.748  0.00  0.00    +0.000 S 
ATOM     27  H   UNL     1       7.700   6.772  15.468  0.00  0.00    +0.000 HD
ENDBRANCH  19  25
ENDBRANCH   1  19
TORSDOF 5
ENDMDL
MODEL 3
REMARK VINA RESULT:      -8.4      0.655      1.392
REMARK  Name = 
REMARK  5 active torsions:
REMARK  status: ('A' for Active; 'I' for Inactive)
REMARK    1  A    between atoms: C_6  and  C_7
REMARK    2  A    between atoms: C_7  and  C_8
REMARK    3  A    between atoms: C_11  and  N_12
REMARK    4  A    between atoms: N_13  and  C_14
REMARK    5  A    between atoms: C_17  and  C_18
REMARK                            x       y       z     vdW  Elec       q    Type
REMARK                         _______ _______ _______ _____ _____    ______ ____
ROOT
ATOM      1  C   UNL     1       4.289   4.956  18.118  0.00  0.00    +0.000 A 
ATOM      2  C   UNL     1       3.796   6.178  17.644  0.00  0.00    +0.000 A 
ATOM      3  C   UNL     1       2.911   6.945  18.406  0.00  0.00    +0.000 A 
ATOM      4  C   UNL     1       2.445   6.486  19.638  0.00  0.00    +0.000 A 
ATOM      5  C   UNL     1       2.935   5.265  20.117  0.00  0.00    +0.000 A 
ATOM      6  C   UNL     1       3.846   4.508  19.370  0.00  0.00    +0.000 A 
ENDROOT
BRANCH   4   7
ATOM      7  N   UNL     1       1.506   7.285  20.323  0.00  0.00    +0.000 NA
ATOM      8  N   UNL     1       1.548   8.476  19.953  0.00  0.00    +0.000 NA
BRANCH   8   9
ATOM      9  C   UNL     1       0.733   9.322  20.733  0.00  0.00    +0.000 A 
ATOM     10  C   UNL     1       0.193  10.449  20.104  0.00  0.00    +0.000 A 
ATOM     11  C   UNL     1      -0.626  11.342  20.800  0.00  0.00    +0.000 A 
ATOM     12  C   UNL     1      -0.933  11.119  22.149  0.00  0.00    +0.000 A 
ATOM     13  C   UNL     1      -0.400   9.988  22.784  0.00  0.00    +0.000 A 
ATOM     14  C   UNL     1       0.418   9.096  22.080  0.00  0.00    +0.000 A 
BRANCH  12  15
ATOM     15  C   UNL     1      -1.830  12.065  22.908  0.00  0.00    +0.000 C 
ATOM     16  F   UNL     1      -2.658  11.440  23.791  0.00  0.00    +0.000 F 
ATOM     17  F   UNL     1      -1.125  12.974  23.640  0.00  0.00    +0.000 F 
ATOM     18  F   UNL     1      -2.639  12.791  22.089  0.00  0.00    +0.000 F 
ENDBRANCH  12  15
ENDBRANCH   8   9
ENDBRANCH   4   7
BRANCH   1  19
ATOM     19  C   UNL     1       5.206   4.092  17.276  0.00  0.00    +0.000 C 
BRANCH  19  25
ATOM     20  O   UNL     1       7.827   8.018  17.902  0.00  0.00    +0.000 OA
ATOM     21  C   UNL     1       7.574   6.882  17.544  0.00  0.00    +0.000 C 
ATOM     22  N   UNL     1       7.492   6.458  16.266  0.00  0.00    +0.000 N 
ATOM     23  C   UNL     1       7.039   5.193  16.018  0.00  0.00    +0.000 C 
ATOM     24  O   UNL     1       6.883   4.747  14.884  0.00  0.00    +0.000 OA
ATOM     25  C   UNL     1       6.706   4.434  17.289  0.00  0.00    +0.000 C 
ATOM     26  S   UNL     1       7.244   5.567  18.624  0.00  0.00    +0.000 S 
ATOM     27  H   UNL     1       7.684   7.094  15.504  0.00  0.00    +0.000 HD
ENDBRANCH  19  25
ENDBRANCH   1  19
TORSDOF 5
ENDMDL
MODEL 4
REMARK VINA RESULT:      -8.3      0.468      1.305
REMARK  Name = 
REMARK  5 active torsions:
REMARK  status: ('A' for Active; 'I' for Inactive)
REMARK    1  A    between atoms: C_6  and  C_7
REMARK    2  A    between atoms: C_7  and  C_8
REMARK    3  A    between atoms: C_11  and  N_12
REMARK    4  A    between atoms: N_13  and  C_14
REMARK    5  A    between atoms: C_17  and  C_18
REMARK                            x       y       z     vdW  Elec       q    Type
REMARK                         _______ _______ _______ _____ _____    ______ ____
ROOT
ATOM      1  C   UNL     1       3.789   5.660  17.800  0.00  0.00    +0.000 A 
ATOM      2  C   UNL     1       3.663   6.943  17.250  0.00  0.00    +0.000 A 
ATOM      3  C   UNL     1       2.955   7.947  17.914  0.00  0.00    +0.000 A 
ATOM      4  C   UNL     1       2.301   7.685  19.118  0.00  0.00    +0.000 A 
ATOM      5  C   UNL     1       2.424   6.405  19.673  0.00  0.00    +0.000 A 
ATOM      6  C   UNL     1       3.158   5.404  19.025  0.00  0.00    +0.000 A 
ENDROOT
BRANCH   4   7
ATOM      7  N   UNL     1       1.555   8.731  19.700  0.00  0.00    +0.000 NA
ATOM      8  N   UNL     1       1.215   8.467  20.871  0.00  0.00    +0.000 NA
BRANCH   8   9
ATOM      9  C   UNL     1       0.337   9.425  21.417  0.00  0.00    +0.000 A 
ATOM     10  C   UNL     1      -0.209  10.368  20.539  0.00  0.00    +0.000 A 
ATOM     11  C   UNL     1      -1.088  11.355  20.993  0.00  0.00    +0.000 A 
ATOM     12  C   UNL     1      -1.452  11.413  22.345  0.00  0.00    +0.000 A 
ATOM     13  C   UNL     1      -0.914  10.467  23.230  0.00  0.00    +0.000 A 
ATOM     14  C   UNL     1      -0.035   9.480  22.768  0.00  0.00    +0.000 A 
BRANCH  12  15
ATOM     15  C   UNL     1      -2.413  12.462  22.846  0.00  0.00    +0.000 C 
ATOM     16  F   UNL     1      -1.911  13.222  23.860  0.00  0.00    +0.000 F 
ATOM     17  F   UNL     1      -2.780  13.340  21.871  0.00  0.00    +0.000 F 
ATOM     18  F   UNL     1      -3.571  11.926  23.322  0.00  0.00    +0.000 F 
ENDBRANCH  12  15
ENDBRANCH   8   9
ENDBRANCH   4   7
BRANCH   1  19
ATOM     19  C   UNL     1       4.507   4.549  17.062  0.00  0.00    +0.000 C 
BRANCH  19  25
ATOM     20  O   UNL     1       7.986   7.660  18.011  0.00  0.00    +0.000 OA
ATOM     21  C   UNL     1       7.480   6.634  17.593  0.00  0.00    +0.000 C 
ATOM     22  N   UNL     1       7.387   6.272  16.297  0.00  0.00    +0.000 N 
ATOM     23  C   UNL     1       6.647   5.171  15.971  0.00  0.00    +0.000 C 
ATOM     24  O   UNL     1       6.468   4.803  14.813  0.00  0.00    +0.000 OA
ATOM     25  C   UNL     1       6.040   4.496  17.187  0.00  0.00    +0.000 C 
ATOM     26  S   UNL     1       6.748   5.426  18.597  0.00  0.00    +0.000 S 
ATOM     27  H   UNL     1       7.790   6.854  15.575  0.00  0.00    +0.000 HD
ENDBRANCH  19  25
ENDBRANCH   1  19
TORSDOF 5
ENDMDL
MODEL 5
REMARK VINA RESULT:      -8.1      7.067      8.844
REMARK  Name = 
REMARK  5 active torsions:
REMARK  status: ('A' for Active; 'I' for Inactive)
REMARK    1  A    between atoms: C_6  and  C_7
REMARK    2  A    between atoms: C_7  and  C_8
REMARK    3  A    between atoms: C_11  and  N_12
REMARK    4  A    between atoms: N_13  and  C_14
REMARK    5  A    between atoms: C_17  and  C_18
REMARK                            x       y       z     vdW  Elec       q    Type
REMARK                         _______ _______ _______ _____ _____    ______ ____
ROOT
ATOM      1  C   UNL     1       6.038   5.126  18.344  0.00  0.00    +0.000 A 
ATOM      2  C   UNL     1       5.488   6.100  17.501  0.00  0.00    +0.000 A 
ATOM      3  C   UNL     1       6.177   7.280  17.213  0.00  0.00    +0.000 A 
ATOM      4  C   UNL     1       7.411   7.551  17.804  0.00  0.00    +0.000 A 
ATOM      5  C   UNL     1       7.967   6.581  18.648  0.00  0.00    +0.000 A 
ATOM      6  C   UNL     1       7.292   5.383  18.916  0.00  0.00    +0.000 A 
ENDROOT
BRANCH   4   7
ATOM      7  N   UNL     1       8.020   8.790  17.514  0.00  0.00    +0.000 NA
ATOM      8  N   UNL     1       8.566   9.289  18.518  0.00  0.00    +0.000 NA
BRANCH   8   9
ATOM      9  C   UNL     1       9.042  10.596  18.291  0.00  0.00    +0.000 A 
ATOM     10  C   UNL     1      10.368  10.866  18.649  0.00  0.00    +0.000 A 
ATOM     11  C   UNL     1      10.923  12.135  18.461  0.00  0.00    +0.000 A 
ATOM     12  C   UNL     1      10.162  13.165  17.895  0.00  0.00    +0.000 A 
ATOM     13  C   UNL     1       8.835  12.899  17.526  0.00  0.00    +0.000 A 
ATOM     14  C   UNL     1       8.285  11.626  17.717  0.00  0.00    +0.000 A 
BRANCH  12  15
ATOM     15  C   UNL     1      10.754  14.534  17.668  0.00  0.00    +0.000 C 
ATOM     16  F   UNL     1      11.593  14.595  16.597  0.00  0.00    +0.000 F 
ATOM     17  F   UNL     1       9.800  15.483  17.447  0.00  0.00    +0.000 F 
ATOM     18  F   UNL     1      11.479  14.974  18.733  0.00  0.00    +0.000 F 
ENDBRANCH  12  15
ENDBRANCH   8   9
ENDBRANCH   4   7
BRANCH   1  19
ATOM     19  C   UNL     1       5.275   3.869  18.707  0.00  0.00    +0.000 C 
BRANCH  19  25
ATOM     20  O   UNL     1       1.407   3.328  21.431  0.00  0.00    +0.000 OA
ATOM     21  C   UNL     1       2.063   3.357  20.405  0.00  0.00    +0.000 C 
ATOM     22  N   UNL     1       2.356   2.295  19.626  0.00  0.00    +0.000 N 
ATOM     23  C   UNL     1       3.239   2.456  18.596  0.00  0.00    +0.000 C 
ATOM     24  O   UNL     1       3.600   1.532  17.872  0.00  0.00    +0.000 OA
ATOM     25  C   UNL     1       3.753   3.880  18.486  0.00  0.00    +0.000 C 
ATOM     26  S   UNL     1       2.781   4.790  19.745  0.00  0.00    +0.000 S 
ATOM     27  H   UNL     1       1.990   1.380  19.852  0.00  0.00    +0.000 HD
ENDBRANCH  19  25
ENDBRANCH   1  19
TORSDOF 5
ENDMDL
MODEL 6
REMARK VINA RESULT:      -8.1      6.977      8.734
REMARK  Name = 
REMARK  5 active torsions:
REMARK  status: ('A' for Active; 'I' for Inactive)
REMARK    1  A    between atoms: C_6  and  C_7
REMARK    2  A    between atoms: C_7  and  C_8
REMARK    3  A    between atoms: C_11  and  N_12
REMARK    4  A    between atoms: N_13  and  C_14
REMARK    5  A    between atoms: C_17  and  C_18
REMARK                            x       y       z     vdW  Elec       q    Type
REMARK                         _______ _______ _______ _____ _____    ______ ____
ROOT
ATOM      1  C   UNL     1       5.546   5.050  17.899  0.00  0.00    +0.000 A 
ATOM      2  C   UNL     1       5.029   6.209  17.305  0.00  0.00    +0.000 A 
ATOM      3  C   UNL     1       5.823   7.343  17.119  0.00  0.00    +0.000 A 
ATOM      4  C   UNL     1       7.141   7.375  17.573  0.00  0.00    +0.000 A 
ATOM      5  C   UNL     1       7.665   6.219  18.167  0.00  0.00    +0.000 A 
ATOM      6  C   UNL     1       6.880   5.071  18.329  0.00  0.00    +0.000 A 
ENDROOT
BRANCH   4   7
ATOM      7  N   UNL     1       7.864   8.575  17.405  0.00  0.00    +0.000 NA
ATOM      8  N   UNL     1       8.348   8.983  18.480  0.00  0.00    +0.000 NA
BRANCH   8   9
ATOM      9  C   UNL     1       8.938  10.258  18.367  0.00  0.00    +0.000 A 
ATOM     10  C   UNL     1       8.228  11.231  17.655  0.00  0.00    +0.000 A 
ATOM     11  C   UNL     1       8.738  12.523  17.491  0.00  0.00    +0.000 A 
ATOM     12  C   UNL     1       9.973  12.874  18.051  0.00  0.00    +0.000 A 
ATOM     13  C   UNL     1      10.687  11.905  18.773  0.00  0.00    +0.000 A 
ATOM     14  C   UNL     1      10.170  10.614  18.933  0.00  0.00    +0.000 A 
BRANCH  12  15
ATOM     15  C   UNL     1      10.527  14.269  17.899  0.00  0.00    +0.000 C 
ATOM     16  F   UNL     1       9.588  15.246  18.039  0.00  0.00    +0.000 F 
ATOM     17  F   UNL     1      11.493  14.548  18.818  0.00  0.00    +0.000 F 
ATOM     18  F   UNL     1      11.098  14.475  16.681  0.00  0.00    +0.000 F 
ENDBRANCH  12  15
ENDBRANCH   8   9
ENDBRANCH   4   7
BRANCH   1  19
ATOM     19  C   UNL     1       4.678   3.836  18.155  0.00  0.00    +0.000 C 
BRANCH  19  25
ATOM     20  O   UNL     1       1.914   2.813  21.896  0.00  0.00    +0.000 OA
ATOM     21  C   UNL     1       2.182   3.122  20.749  0.00  0.00    +0.000 C 
ATOM     22  N   UNL     1       1.949   2.369  19.655  0.00  0.00    +0.000 N 
ATOM     23  C   UNL     1       2.453   2.779  18.452  0.00  0.00    +0.000 C 
ATOM     24  O   UNL     1       2.332   2.127  17.418  0.00  0.00    +0.000 OA
ATOM     25  C   UNL     1       3.213   4.088  18.555  0.00  0.00    +0.000 C 
ATOM     26  S   UNL     1       2.949   4.608  20.291  0.00  0.00    +0.000 S 
ATOM     27  H   UNL     1       1.479   1.478  19.739  0.00  0.00    +0.000 HD
ENDBRANCH  19  25
ENDBRANCH   1  19
TORSDOF 5
ENDMDL
MODEL 7
REMARK VINA RESULT:      -8.0      2.691      3.418
REMARK  Name = 
REMARK  5 active torsions:
REMARK  status: ('A' for Active; 'I' for Inactive)
REMARK    1  A    between atoms: C_6  and  C_7
REMARK    2  A    between atoms: C_7  and  C_8
REMARK    3  A    between atoms: C_11  and  N_12
REMARK    4  A    between atoms: N_13  and  C_14
REMARK    5  A    between atoms: C_17  and  C_18
REMARK                            x       y       z     vdW  Elec       q    Type
REMARK                         _______ _______ _______ _____ _____    ______ ____
ROOT
ATOM      1  C   UNL     1       3.779   5.716  18.605  0.00  0.00    +0.000 A 
ATOM      2  C   UNL     1       3.112   5.757  19.837  0.00  0.00    +0.000 A 
ATOM      3  C   UNL     1       2.280   6.828  20.173  0.00  0.00    +0.000 A 
ATOM      4  C   UNL     1       2.135   7.918  19.315  0.00  0.00    +0.000 A 
ATOM      5  C   UNL     1       2.799   7.882  18.082  0.00  0.00    +0.000 A 
ATOM      6  C   UNL     1       3.611   6.797  17.729  0.00  0.00    +0.000 A 
ENDROOT
BRANCH   4   7
ATOM      7  N   UNL     1       1.326   8.989  19.747  0.00  0.00    +0.000 NA
ATOM      8  N   UNL     1       0.986   8.866  20.941  0.00  0.00    +0.000 NA
BRANCH   8   9
ATOM      9  C   UNL     1       0.051   9.838  21.349  0.00  0.00    +0.000 A 
ATOM     10  C   UNL     1      -0.310   9.854  22.701  0.00  0.00    +0.000 A 
ATOM     11  C   UNL     1      -1.231  10.783  23.193  0.00  0.00    +0.000 A 
ATOM     12  C   UNL     1      -1.807  11.732  22.337  0.00  0.00    +0.000 A 
ATOM     13  C   UNL     1      -1.445  11.726  20.982  0.00  0.00    +0.000 A 
ATOM     14  C   UNL     1      -0.521  10.793  20.497  0.00  0.00    +0.000 A 
BRANCH  12  15
ATOM     15  C   UNL     1      -2.789  12.752  22.858  0.00  0.00    +0.000 C 
ATOM     16  F   UNL     1      -3.894  12.894  22.074  0.00  0.00    +0.000 F 
ATOM     17  F   UNL     1      -3.253  12.440  24.100  0.00  0.00    +0.000 F 
ATOM     18  F   UNL     1      -2.245  13.996  22.962  0.00  0.00    +0.000 F 
ENDBRANCH  12  15
ENDBRANCH   8   9
ENDBRANCH   4   7
BRANCH   1  19
ATOM     19  C   UNL     1       4.727   4.588  18.255  0.00  0.00    +0.000 C 
BRANCH  19  25
ATOM     20  O   UNL     1       0.506   2.496  18.949  0.00  0.00    +0.000 OA
ATOM     21  C   UNL     1       1.702   2.567  18.730  0.00  0.00    +0.000 C 
ATOM     22  N   UNL     1       2.681   2.145  19.555  0.00  0.00    +0.000 N 
ATOM     23  C   UNL     1       3.979   2.439  19.244  0.00  0.00    +0.000 C 
ATOM     24  O   UNL     1       4.926   2.139  19.967  0.00  0.00    +0.000 OA
ATOM     25  C   UNL     1       4.105   3.215  17.946  0.00  0.00    +0.000 C 
ATOM     26  S   UNL     1       2.393   3.254  17.296  0.00  0.00    +0.000 S 
ATOM     27  H   UNL     1       2.452   1.690  20.429  0.00  0.00    +0.000 HD
ENDBRANCH  19  25
ENDBRANCH   1  19
TORSDOF 5
ENDMDL
MODEL 8
REMARK VINA RESULT:      -8.0      6.852      8.805
REMARK  Name = 
REMARK  5 active torsions:
REMARK  status: ('A' for Active; 'I' for Inactive)
REMARK    1  A    between atoms: C_6  and  C_7
REMARK    2  A    between atoms: C_7  and  C_8
REMARK    3  A    between atoms: C_11  and  N_12
REMARK    4  A    between atoms: N_13  and  C_14
REMARK    5  A    between atoms: C_17  and  C_18
REMARK                            x       y       z     vdW  Elec       q    Type
REMARK                         _______ _______ _______ _____ _____    ______ ____
ROOT
ATOM      1  C   UNL     1       6.041   5.241  18.321  0.00  0.00    +0.000 A 
ATOM      2  C   UNL     1       5.581   6.252  17.467  0.00  0.00    +0.000 A 
ATOM      3  C   UNL     1       6.321   7.420  17.265  0.00  0.00    +0.000 A 
ATOM      4  C   UNL     1       7.513   7.640  17.954  0.00  0.00    +0.000 A 
ATOM      5  C   UNL     1       7.978   6.632  18.809  0.00  0.00    +0.000 A 
ATOM      6  C   UNL     1       7.254   5.447  18.991  0.00  0.00    +0.000 A 
ENDROOT
BRANCH   4   7
ATOM      7  N   UNL     1       8.175   8.868  17.745  0.00  0.00    +0.000 NA
ATOM      8  N   UNL     1       8.767   9.260  18.771  0.00  0.00    +0.000 NA
BRANCH   8   9
ATOM      9  C   UNL     1       9.301  10.557  18.634  0.00  0.00    +0.000 A 
ATOM     10  C   UNL     1       8.651  11.427  17.751  0.00  0.00    +0.000 A 
ATOM     11  C   UNL     1       9.112  12.732  17.553  0.00  0.00    +0.000 A 
ATOM     12  C   UNL     1      10.234  13.201  18.247  0.00  0.00    +0.000 A 
ATOM     13  C   UNL     1      10.886  12.336  19.139  0.00  0.00    +0.000 A 
ATOM     14  C   UNL     1      10.419  11.032  19.334  0.00  0.00    +0.000 A 
BRANCH  12  15
ATOM     15  C   UNL     1      10.732  14.613  18.056  0.00  0.00    +0.000 C 
ATOM     16  F   UNL     1      10.956  14.940  16.753  0.00  0.00    +0.000 F 
ATOM     17  F   UNL     1       9.852  15.541  18.526  0.00  0.00    +0.000 F 
ATOM     18  F   UNL     1      11.905  14.846  18.705  0.00  0.00    +0.000 F 
ENDBRANCH  12  15
ENDBRANCH   8   9
ENDBRANCH   4   7
BRANCH   1  19
ATOM     19  C   UNL     1       5.220   3.997  18.590  0.00  0.00    +0.000 C 
BRANCH  19  25
ATOM     20  O   UNL     1       0.878   3.994  20.548  0.00  0.00    +0.000 OA
ATOM     21  C   UNL     1       1.721   3.831  19.683  0.00  0.00    +0.000 C 
ATOM     22  N   UNL     1       2.109   2.644  19.175  0.00  0.00    +0.000 N 
ATOM     23  C   UNL     1       3.181   2.608  18.327  0.00  0.00    +0.000 C 
ATOM     24  O   UNL     1       3.632   1.565  17.862  0.00  0.00    +0.000 OA
ATOM     25  C   UNL     1       3.770   3.983  18.074  0.00  0.00    +0.000 C 
ATOM     26  S   UNL     1       2.616   5.115  18.938  0.00  0.00    +0.000 S 
ATOM     27  H   UNL     1       1.666   1.788  19.480  0.00  0.00    +0.000 HD
ENDBRANCH  19  25
ENDBRANCH   1  19
TORSDOF 5
ENDMDL
MODEL 9
REMARK VINA RESULT:      -7.9      1.360      2.165
REMARK  Name = 
REMARK  5 active torsions:
REMARK  status: ('A' for Active; 'I' for Inactive)
REMARK    1  A    between atoms: C_6  and  C_7
REMARK    2  A    between atoms: C_7  and  C_8
REMARK    3  A    between atoms: C_11  and  N_12
REMARK    4  A    between atoms: N_13  and  C_14
REMARK    5  A    between atoms: C_17  and  C_18
REMARK                            x       y       z     vdW  Elec       q    Type
REMARK                         _______ _______ _______ _____ _____    ______ ____
ROOT
ATOM      1  C   UNL     1       3.734   6.239  18.372  0.00  0.00    +0.000 A 
ATOM      2  C   UNL     1       3.019   6.136  19.573  0.00  0.00    +0.000 A 
ATOM      3  C   UNL     1       2.095   7.113  19.949  0.00  0.00    +0.000 A 
ATOM      4  C   UNL     1       1.899   8.252  19.168  0.00  0.00    +0.000 A 
ATOM      5  C   UNL     1       2.610   8.360  17.966  0.00  0.00    +0.000 A 
ATOM      6  C   UNL     1       3.516   7.368  17.570  0.00  0.00    +0.000 A 
ENDROOT
BRANCH   4   7
ATOM      7  N   UNL     1       0.994   9.224  19.642  0.00  0.00    +0.000 NA
ATOM      8  N   UNL     1       1.096   9.398  20.873  0.00  0.00    +0.000 NA
BRANCH   8   9
ATOM      9  C   UNL     1       0.098  10.246  21.393  0.00  0.00    +0.000 A 
ATOM     10  C   UNL     1      -0.300  10.031  22.717  0.00  0.00    +0.000 A 
ATOM     11  C   UNL     1      -1.284  10.824  23.314  0.00  0.00    +0.000 A 
ATOM     12  C   UNL     1      -1.888  11.864  22.597  0.00  0.00    +0.000 A 
ATOM     13  C   UNL     1      -1.489  12.090  21.271  0.00  0.00    +0.000 A 
ATOM     14  C   UNL     1      -0.502  11.293  20.680  0.00  0.00    +0.000 A 
BRANCH  12  15
ATOM     15  C   UNL     1      -2.939  12.739  23.234  0.00  0.00    +0.000 C 
ATOM     16  F   UNL     1      -3.854  12.046  23.967  0.00  0.00    +0.000 F 
ATOM     17  F   UNL     1      -2.403  13.660  24.084  0.00  0.00    +0.000 F 
ATOM     18  F   UNL     1      -3.656  13.447  22.319  0.00  0.00    +0.000 F 
ENDBRANCH  12  15
ENDBRANCH   8   9
ENDBRANCH   4   7
BRANCH   1  19
ATOM     19  C   UNL     1       4.779   5.213  17.981  0.00  0.00    +0.000 C 
BRANCH  19  25
ATOM     20  O   UNL     1       6.716   3.771  13.878  0.00  0.00    +0.000 OA
ATOM     21  C   UNL     1       6.650   4.356  14.944  0.00  0.00    +0.000 C 
ATOM     22  N   UNL     1       7.387   4.084  16.040  0.00  0.00    +0.000 N 
ATOM     23  C   UNL     1       7.085   4.719  17.212  0.00  0.00    +0.000 C 
ATOM     24  O   UNL     1       7.671   4.491  18.267  0.00  0.00    +0.000 OA
ATOM     25  C   UNL     1       5.924   5.686  17.069  0.00  0.00    +0.000 C 
ATOM     26  S   UNL     1       5.560   5.663  15.273  0.00  0.00    +0.000 S 
ATOM     27  H   UNL     1       8.096   3.364  16.012  0.00  0.00    +0.000 HD
ENDBRANCH  19  25
ENDBRANCH   1  19
TORSDOF 5
ENDMDL
