MODEL 1
REMARK VINA RESULT:      -7.9      0.000      0.000
REMARK  Name = 
REMARK  5 active torsions:
REMARK  status: ('A' for Active; 'I' for Inactive)
REMARK    1  A    between atoms: C_1  and  N_2
REMARK    2  A    between atoms: C_4  and  C_5
REMARK    3  A    between atoms: C_5  and  C_6
REMARK    4  A    between atoms: C_8  and  C_9
REMARK    5  A    between atoms: N_21  and  C_22
REMARK                            x       y       z     vdW  Elec       q    Type
REMARK                         _______ _______ _______ _____ _____    ______ ____
ROOT
ATOM      1  C   UNL     1      -0.299  13.735  20.886  0.00  0.00    +0.000 C 
ATOM      2  N   UNL     1      -0.994  13.070  19.787  0.00  0.00    +0.000 NA
ATOM      3  C   UNL     1      -1.278  11.816  19.840  0.00  0.00    +0.000 C 
ATOM      4  C   UNL     1      -0.923  10.922  20.979  0.00  0.00    +0.000 A 
ATOM      5  C   UNL     1      -0.447   9.630  20.679  0.00  0.00    +0.000 A 
ATOM      6  C   UNL     1      -0.188   8.709  21.692  0.00  0.00    +0.000 A 
ATOM      7  C   UNL     1      -0.384   9.075  23.017  0.00  0.00    +0.000 A 
ATOM      8  C   UNL     1      -0.848  10.357  23.322  0.00  0.00    +0.000 A 
ATOM      9  C   UNL     1      -1.125  11.304  22.317  0.00  0.00    +0.000 A 
ATOM     10  N   UNL     1      -1.609  12.588  22.704  0.00  0.00    +0.000 N 
ATOM     11  C   UNL     1      -2.484  12.703  23.864  0.00  0.00    +0.000 C 
ATOM     12  C   UNL     1      -1.233  13.794  22.107  0.00  0.00    +0.000 C 
ATOM     13  O   UNL     1      -1.577  14.875  22.601  0.00  0.00    +0.000 OA
ENDROOT
BRANCH   3  14
ATOM     14  C   UNL     1      -2.019  11.256  18.662  0.00  0.00    +0.000 A 
ATOM     15  C   UNL     1      -1.353  10.379  17.795  0.00  0.00    +0.000 A 
ATOM     16  C   UNL     1      -1.999   9.884  16.661  0.00  0.00    +0.000 A 
ATOM     17  C   UNL     1      -3.311  10.268  16.386  0.00  0.00    +0.000 A 
ATOM     18  C   UNL     1      -3.977  11.144  17.244  0.00  0.00    +0.000 A 
ATOM     19  C   UNL     1      -3.334  11.643  18.377  0.00  0.00    +0.000 A 
ENDBRANCH   3  14
BRANCH   1  20
ATOM     20  C   UNL     1       0.015  15.168  20.400  0.00  0.00    +0.000 C 
BRANCH  20  24
ATOM     21  C   UNL     1       4.227  16.653  18.339  0.00  0.00    +0.000 C 
ATOM     22  N   UNL     1       2.912  16.058  18.187  0.00  0.00    +0.000 N 
ATOM     23  C   UNL     1       2.348  15.322  19.333  0.00  0.00    +0.000 C 
ATOM     24  C   UNL     1       0.825  15.217  19.102  0.00  0.00    +0.000 C 
ATOM     25  C   UNL     1       0.615  16.447  18.267  0.00  0.00    +0.000 A 
ATOM     26  C   UNL     1      -0.574  17.086  17.929  0.00  0.00    +0.000 A 
ATOM     27  C   UNL     1      -0.515  18.193  17.079  0.00  0.00    +0.000 A 
ATOM     28  C   UNL     1       0.716  18.630  16.573  0.00  0.00    +0.000 A 
ATOM     29  C   UNL     1       1.903  17.970  16.911  0.00  0.00    +0.000 A 
ATOM     30  C   UNL     1       1.849  16.878  17.765  0.00  0.00    +0.000 A 
ENDBRANCH  20  24
ENDBRANCH   1  20
TORSDOF 3
ENDMDL
MODEL 2
REMARK VINA RESULT:      -7.9      4.040      7.543
REMARK  Name = 
REMARK  5 active torsions:
REMARK  status: ('A' for Active; 'I' for Inactive)
REMARK    1  A    between atoms: C_1  and  N_2
REMARK    2  A    between atoms: C_4  and  C_5
REMARK    3  A    between atoms: C_5  and  C_6
REMARK    4  A    between atoms: C_8  and  C_9
REMARK    5  A    between atoms: N_21  and  C_22
REMARK                            x       y       z     vdW  Elec       q    Type
REMARK                         _______ _______ _______ _____ _____    ______ ____
ROOT
ATOM      1  C   UNL     1       1.116   9.666  18.540  0.00  0.00    +0.000 C 
ATOM      2  N   UNL     1      -0.240   9.912  18.058  0.00  0.00    +0.000 NA
ATOM      3  C   UNL     1      -0.984  10.816  18.594  0.00  0.00    +0.000 C 
ATOM      4  C   UNL     1      -0.571  11.669  19.744  0.00  0.00    +0.000 A 
ATOM      5  C   UNL     1      -1.520  11.912  20.758  0.00  0.00    +0.000 A 
ATOM      6  C   UNL     1      -1.235  12.778  21.812  0.00  0.00    +0.000 A 
ATOM      7  C   UNL     1       0.007  13.395  21.875  0.00  0.00    +0.000 A 
ATOM      8  C   UNL     1       0.956  13.151  20.879  0.00  0.00    +0.000 A 
ATOM      9  C   UNL     1       0.690  12.287  19.799  0.00  0.00    +0.000 A 
ATOM     10  N   UNL     1       1.702  12.098  18.812  0.00  0.00    +0.000 N 
ATOM     11  C   UNL     1       2.577  13.210  18.462  0.00  0.00    +0.000 C 
ATOM     12  C   UNL     1       1.998  10.878  18.198  0.00  0.00    +0.000 C 
ATOM     13  O   UNL     1       2.991  10.765  17.469  0.00  0.00    +0.000 OA
ENDROOT
BRANCH   3  14
ATOM     14  C   UNL     1      -2.346  10.993  17.991  0.00  0.00    +0.000 A 
ATOM     15  C   UNL     1      -2.564  10.575  16.671  0.00  0.00    +0.000 A 
ATOM     16  C   UNL     1      -3.804  10.776  16.065  0.00  0.00    +0.000 A 
ATOM     17  C   UNL     1      -4.831  11.399  16.773  0.00  0.00    +0.000 A 
ATOM     18  C   UNL     1      -4.618  11.821  18.086  0.00  0.00    +0.000 A 
ATOM     19  C   UNL     1      -3.378  11.625  18.695  0.00  0.00    +0.000 A 
ENDBRANCH   3  14
BRANCH   1  20
ATOM     20  C   UNL     1       1.628   8.419  17.784  0.00  0.00    +0.000 C 
BRANCH  20  24
ATOM     21  C   UNL     1       5.260   5.173  17.099  0.00  0.00    +0.000 C 
ATOM     22  N   UNL     1       4.585   6.115  17.972  0.00  0.00    +0.000 N 
ATOM     23  C   UNL     1       3.875   7.249  17.352  0.00  0.00    +0.000 C 
ATOM     24  C   UNL     1       2.883   7.794  18.401  0.00  0.00    +0.000 C 
ATOM     25  C   UNL     1       2.644   6.541  19.193  0.00  0.00    +0.000 A 
ATOM     26  C   UNL     1       1.655   6.270  20.133  0.00  0.00    +0.000 A 
ATOM     27  C   UNL     1       1.679   5.037  20.787  0.00  0.00    +0.000 A 
ATOM     28  C   UNL     1       2.690   4.108  20.507  0.00  0.00    +0.000 A 
ATOM     29  C   UNL     1       3.687   4.399  19.569  0.00  0.00    +0.000 A 
ATOM     30  C   UNL     1       3.659   5.618  18.908  0.00  0.00    +0.000 A 
ENDBRANCH  20  24
ENDBRANCH   1  20
TORSDOF 3
ENDMDL
MODEL 3
REMARK VINA RESULT:      -7.9      3.360      5.194
REMARK  Name = 
REMARK  5 active torsions:
REMARK  status: ('A' for Active; 'I' for Inactive)
REMARK    1  A    between atoms: C_1  and  N_2
REMARK    2  A    between atoms: C_4  and  C_5
REMARK    3  A    between atoms: C_5  and  C_6
REMARK    4  A    between atoms: C_8  and  C_9
REMARK    5  A    between atoms: N_21  and  C_22
REMARK                            x       y       z     vdW  Elec       q    Type
REMARK                         _______ _______ _______ _____ _____    ______ ____
ROOT
ATOM      1  C   UNL     1      -0.281  12.005  21.215  0.00  0.00    +0.000 C 
ATOM      2  N   UNL     1      -1.209  11.846  20.100  0.00  0.00    +0.000 NA
ATOM      3  C   UNL     1      -1.022  10.944  19.200  0.00  0.00    +0.000 C 
ATOM      4  C   UNL     1       0.136  10.006  19.180  0.00  0.00    +0.000 A 
ATOM      5  C   UNL     1       0.749   9.742  17.939  0.00  0.00    +0.000 A 
ATOM      6  C   UNL     1       1.773   8.803  17.831  0.00  0.00    +0.000 A 
ATOM      7  C   UNL     1       2.208   8.131  18.965  0.00  0.00    +0.000 A 
ATOM      8  C   UNL     1       1.611   8.394  20.201  0.00  0.00    +0.000 A 
ATOM      9  C   UNL     1       0.569   9.332  20.336  0.00  0.00    +0.000 A 
ATOM     10  N   UNL     1      -0.001   9.537  21.626  0.00  0.00    +0.000 N 
ATOM     11  C   UNL     1      -0.113   8.412  22.546  0.00  0.00    +0.000 C 
ATOM     12  C   UNL     1      -0.390  10.779  22.137  0.00  0.00    +0.000 C 
ATOM     13  O   UNL     1      -0.731  10.893  23.321  0.00  0.00    +0.000 OA
ENDROOT
BRANCH   3  14
ATOM     14  C   UNL     1      -2.061  10.862  18.121  0.00  0.00    +0.000 A 
ATOM     15  C   UNL     1      -3.239  11.609  18.254  0.00  0.00    +0.000 A 
ATOM     16  C   UNL     1      -4.247  11.512  17.294  0.00  0.00    +0.000 A 
ATOM     17  C   UNL     1      -4.084  10.664  16.199  0.00  0.00    +0.000 A 
ATOM     18  C   UNL     1      -2.914   9.914  16.064  0.00  0.00    +0.000 A 
ATOM     19  C   UNL     1      -1.906  10.006  17.024  0.00  0.00    +0.000 A 
ENDBRANCH   3  14
BRANCH   1  20
ATOM     20  C   UNL     1      -0.728  13.272  21.979  0.00  0.00    +0.000 C 
BRANCH  20  24
ATOM     21  C   UNL     1      -3.523  17.318  21.888  0.00  0.00    +0.000 C 
ATOM     22  N   UNL     1      -3.350  15.921  21.539  0.00  0.00    +0.000 N 
ATOM     23  C   UNL     1      -1.978  15.422  21.333  0.00  0.00    +0.000 C 
ATOM     24  C   UNL     1      -2.029  13.884  21.452  0.00  0.00    +0.000 C 
ATOM     25  C   UNL     1      -3.213  13.745  22.364  0.00  0.00    +0.000 A 
ATOM     26  C   UNL     1      -3.648  12.630  23.075  0.00  0.00    +0.000 A 
ATOM     27  C   UNL     1      -4.826  12.734  23.817  0.00  0.00    +0.000 A 
ATOM     28  C   UNL     1      -5.554  13.931  23.825  0.00  0.00    +0.000 A 
ATOM     29  C   UNL     1      -5.113  15.040  23.094  0.00  0.00    +0.000 A 
ATOM     30  C   UNL     1      -3.935  14.945  22.367  0.00  0.00    +0.000 A 
ENDBRANCH  20  24
ENDBRANCH   1  20
TORSDOF 3
ENDMDL
MODEL 4
REMARK VINA RESULT:      -7.7      4.507      7.687
REMARK  Name = 
REMARK  5 active torsions:
REMARK  status: ('A' for Active; 'I' for Inactive)
REMARK    1  A    between atoms: C_1  and  N_2
REMARK    2  A    between atoms: C_4  and  C_5
REMARK    3  A    between atoms: C_5  and  C_6
REMARK    4  A    between atoms: C_8  and  C_9
REMARK    5  A    between atoms: N_21  and  C_22
REMARK                            x       y       z     vdW  Elec       q    Type
REMARK                         _______ _______ _______ _____ _____    ______ ____
ROOT
ATOM      1  C   UNL     1       1.238   9.458  18.313  0.00  0.00    +0.000 C 
ATOM      2  N   UNL     1      -0.117   9.711  17.835  0.00  0.00    +0.000 NA
ATOM      3  C   UNL     1      -0.889  10.552  18.430  0.00  0.00    +0.000 C 
ATOM      4  C   UNL     1      -0.509  11.322  19.648  0.00  0.00    +0.000 A 
ATOM      5  C   UNL     1      -1.475  11.464  20.665  0.00  0.00    +0.000 A 
ATOM      6  C   UNL     1      -1.222  12.251  21.787  0.00  0.00    +0.000 A 
ATOM      7  C   UNL     1       0.004  12.889  21.915  0.00  0.00    +0.000 A 
ATOM      8  C   UNL     1       0.969  12.745  20.915  0.00  0.00    +0.000 A 
ATOM      9  C   UNL     1       0.736  11.963  19.767  0.00  0.00    +0.000 A 
ATOM     10  N   UNL     1       1.763  11.875  18.782  0.00  0.00    +0.000 N 
ATOM     11  C   UNL     1       2.616  13.030  18.532  0.00  0.00    +0.000 C 
ATOM     12  C   UNL     1       2.096  10.713  18.079  0.00  0.00    +0.000 C 
ATOM     13  O   UNL     1       3.099  10.681  17.357  0.00  0.00    +0.000 OA
ENDROOT
BRANCH   3  14
ATOM     14  C   UNL     1      -2.247  10.745  17.824  0.00  0.00    +0.000 A 
ATOM     15  C   UNL     1      -2.512  10.201  16.560  0.00  0.00    +0.000 A 
ATOM     16  C   UNL     1      -3.748  10.409  15.948  0.00  0.00    +0.000 A 
ATOM     17  C   UNL     1      -4.724  11.167  16.594  0.00  0.00    +0.000 A 
ATOM     18  C   UNL     1      -4.465  11.716  17.851  0.00  0.00    +0.000 A 
ATOM     19  C   UNL     1      -3.228  11.512  18.465  0.00  0.00    +0.000 A 
ENDBRANCH   3  14
BRANCH   1  20
ATOM     20  C   UNL     1       1.789   8.287  17.470  0.00  0.00    +0.000 C 
BRANCH  20  24
ATOM     21  C   UNL     1       6.116   5.965  17.191  0.00  0.00    +0.000 C 
ATOM     22  N   UNL     1       4.902   6.243  17.935  0.00  0.00    +0.000 N 
ATOM     23  C   UNL     1       4.236   7.539  17.714  0.00  0.00    +0.000 C 
ATOM     24  C   UNL     1       2.784   7.398  18.220  0.00  0.00    +0.000 C 
ATOM     25  C   UNL     1       2.594   5.922  18.022  0.00  0.00    +0.000 A 
ATOM     26  C   UNL     1       1.419   5.177  18.043  0.00  0.00    +0.000 A 
ATOM     27  C   UNL     1       1.509   3.792  17.890  0.00  0.00    +0.000 A 
ATOM     28  C   UNL     1       2.758   3.176  17.737  0.00  0.00    +0.000 A 
ATOM     29  C   UNL     1       3.932   3.936  17.732  0.00  0.00    +0.000 A 
ATOM     30  C   UNL     1       3.847   5.314  17.870  0.00  0.00    +0.000 A 
ENDBRANCH  20  24
ENDBRANCH   1  20
TORSDOF 3
ENDMDL
MODEL 5
REMARK VINA RESULT:      -7.5      3.140      4.799
REMARK  Name = 
REMARK  5 active torsions:
REMARK  status: ('A' for Active; 'I' for Inactive)
REMARK    1  A    between atoms: C_1  and  N_2
REMARK    2  A    between atoms: C_4  and  C_5
REMARK    3  A    between atoms: C_5  and  C_6
REMARK    4  A    between atoms: C_8  and  C_9
REMARK    5  A    between atoms: N_21  and  C_22
REMARK                            x       y       z     vdW  Elec       q    Type
REMARK                         _______ _______ _______ _____ _____    ______ ____
ROOT
ATOM      1  C   UNL     1      -0.121  12.205  21.025  0.00  0.00    +0.000 C 
ATOM      2  N   UNL     1      -1.076  11.992  19.941  0.00  0.00    +0.000 NA
ATOM      3  C   UNL     1      -0.955  10.999  19.131  0.00  0.00    +0.000 C 
ATOM      4  C   UNL     1       0.150  10.000  19.188  0.00  0.00    +0.000 A 
ATOM      5  C   UNL     1       0.725   9.585  17.970  0.00  0.00    +0.000 A 
ATOM      6  C   UNL     1       1.694   8.583  17.941  0.00  0.00    +0.000 A 
ATOM      7  C   UNL     1       2.112   8.000  19.130  0.00  0.00    +0.000 A 
ATOM      8  C   UNL     1       1.553   8.414  20.341  0.00  0.00    +0.000 A 
ATOM      9  C   UNL     1       0.566   9.417  20.397  0.00  0.00    +0.000 A 
ATOM     10  N   UNL     1       0.031   9.777  21.669  0.00  0.00    +0.000 N 
ATOM     11  C   UNL     1      -0.126   8.754  22.695  0.00  0.00    +0.000 C 
ATOM     12  C   UNL     1      -0.280  11.082  22.062  0.00  0.00    +0.000 C 
ATOM     13  O   UNL     1      -0.593  11.328  23.233  0.00  0.00    +0.000 OA
ENDROOT
BRANCH   3  14
ATOM     14  C   UNL     1      -2.016  10.872  18.079  0.00  0.00    +0.000 A 
ATOM     15  C   UNL     1      -1.831   9.956  17.034  0.00  0.00    +0.000 A 
ATOM     16  C   UNL     1      -2.775   9.854  16.012  0.00  0.00    +0.000 A 
ATOM     17  C   UNL     1      -3.905  10.669  16.026  0.00  0.00    +0.000 A 
ATOM     18  C   UNL     1      -4.093  11.586  17.061  0.00  0.00    +0.000 A 
ATOM     19  C   UNL     1      -3.149  11.694  18.084  0.00  0.00    +0.000 A 
ENDBRANCH   3  14
BRANCH   1  20
ATOM     20  C   UNL     1      -0.485  13.563  21.667  0.00  0.00    +0.000 C 
BRANCH  20  24
ATOM     21  C   UNL     1      -3.542  17.219  20.449  0.00  0.00    +0.000 C 
ATOM     22  N   UNL     1      -3.358  15.862  20.929  0.00  0.00    +0.000 N 
ATOM     23  C   UNL     1      -2.151  15.132  20.499  0.00  0.00    +0.000 C 
ATOM     24  C   UNL     1      -1.952  13.961  21.484  0.00  0.00    +0.000 C 
ATOM     25  C   UNL     1      -2.610  14.544  22.701  0.00  0.00    +0.000 A 
ATOM     26  C   UNL     1      -2.557  14.109  24.021  0.00  0.00    +0.000 A 
ATOM     27  C   UNL     1      -3.313  14.792  24.976  0.00  0.00    +0.000 A 
ATOM     28  C   UNL     1      -4.114  15.878  24.599  0.00  0.00    +0.000 A 
ATOM     29  C   UNL     1      -4.168  16.297  23.265  0.00  0.00    +0.000 A 
ATOM     30  C   UNL     1      -3.408  15.628  22.316  0.00  0.00    +0.000 A 
ENDBRANCH  20  24
ENDBRANCH   1  20
TORSDOF 3
ENDMDL
MODEL 6
REMARK VINA RESULT:      -7.4      2.049      3.108
REMARK  Name = 
REMARK  5 active torsions:
REMARK  status: ('A' for Active; 'I' for Inactive)
REMARK    1  A    between atoms: C_1  and  N_2
REMARK    2  A    between atoms: C_4  and  C_5
REMARK    3  A    between atoms: C_5  and  C_6
REMARK    4  A    between atoms: C_8  and  C_9
REMARK    5  A    between atoms: N_21  and  C_22
REMARK                            x       y       z     vdW  Elec       q    Type
REMARK                         _______ _______ _______ _____ _____    ______ ____
ROOT
ATOM      1  C   UNL     1      -0.339  12.287  20.995  0.00  0.00    +0.000 C 
ATOM      2  N   UNL     1      -1.230  12.052  19.862  0.00  0.00    +0.000 NA
ATOM      3  C   UNL     1      -1.044  11.061  19.062  0.00  0.00    +0.000 C 
ATOM      4  C   UNL     1       0.077  10.087  19.180  0.00  0.00    +0.000 A 
ATOM      5  C   UNL     1       0.725   9.682  17.995  0.00  0.00    +0.000 A 
ATOM      6  C   UNL     1       1.716   8.702  18.020  0.00  0.00    +0.000 A 
ATOM      7  C   UNL     1       2.082   8.129  19.230  0.00  0.00    +0.000 A 
ATOM      8  C   UNL     1       1.450   8.532  20.409  0.00  0.00    +0.000 A 
ATOM      9  C   UNL     1       0.441   9.514  20.411  0.00  0.00    +0.000 A 
ATOM     10  N   UNL     1      -0.169   9.864  21.652  0.00  0.00    +0.000 N 
ATOM     11  C   UNL     1      -0.358   8.838  22.670  0.00  0.00    +0.000 C 
ATOM     12  C   UNL     1      -0.528  11.161  22.025  0.00  0.00    +0.000 C 
ATOM     13  O   UNL     1      -0.908  11.402  23.177  0.00  0.00    +0.000 OA
ENDROOT
BRANCH   3  14
ATOM     14  C   UNL     1      -2.045  10.910  17.955  0.00  0.00    +0.000 A 
ATOM     15  C   UNL     1      -3.179  11.734  17.947  0.00  0.00    +0.000 A 
ATOM     16  C   UNL     1      -4.154  11.580  16.960  0.00  0.00    +0.000 A 
ATOM     17  C   UNL     1      -4.002  10.600  15.981  0.00  0.00    +0.000 A 
ATOM     18  C   UNL     1      -2.877   9.774  15.986  0.00  0.00    +0.000 A 
ATOM     19  C   UNL     1      -1.902   9.923  16.973  0.00  0.00    +0.000 A 
ENDBRANCH   3  14
BRANCH   1  20
ATOM     20  C   UNL     1      -0.765  13.637  21.614  0.00  0.00    +0.000 C 
BRANCH  20  24
ATOM     21  C   UNL     1       0.519  18.161  23.055  0.00  0.00    +0.000 C 
ATOM     22  N   UNL     1       0.789  16.997  22.233  0.00  0.00    +0.000 N 
ATOM     23  C   UNL     1       0.328  15.683  22.719  0.00  0.00    +0.000 C 
ATOM     24  C   UNL     1       0.300  14.732  21.504  0.00  0.00    +0.000 C 
ATOM     25  C   UNL     1       0.071  15.733  20.409  0.00  0.00    +0.000 A 
ATOM     26  C   UNL     1      -0.307  15.519  19.087  0.00  0.00    +0.000 A 
ATOM     27  C   UNL     1      -0.396  16.622  18.235  0.00  0.00    +0.000 A 
ATOM     28  C   UNL     1      -0.094  17.906  18.706  0.00  0.00    +0.000 A 
ATOM     29  C   UNL     1       0.298  18.105  20.035  0.00  0.00    +0.000 A 
ATOM     30  C   UNL     1       0.375  17.014  20.887  0.00  0.00    +0.000 A 
ENDBRANCH  20  24
ENDBRANCH   1  20
TORSDOF 3
ENDMDL
MODEL 7
REMARK VINA RESULT:      -7.4      1.773      3.353
REMARK  Name = 
REMARK  5 active torsions:
REMARK  status: ('A' for Active; 'I' for Inactive)
REMARK    1  A    between atoms: C_1  and  N_2
REMARK    2  A    between atoms: C_4  and  C_5
REMARK    3  A    between atoms: C_5  and  C_6
REMARK    4  A    between atoms: C_8  and  C_9
REMARK    5  A    between atoms: N_21  and  C_22
REMARK                            x       y       z     vdW  Elec       q    Type
REMARK                         _______ _______ _______ _____ _____    ______ ____
ROOT
ATOM      1  C   UNL     1      -0.420  12.211  21.117  0.00  0.00    +0.000 C 
ATOM      2  N   UNL     1      -1.316  12.009  19.982  0.00  0.00    +0.000 NA
ATOM      3  C   UNL     1      -1.115  11.062  19.133  0.00  0.00    +0.000 C 
ATOM      4  C   UNL     1       0.031  10.111  19.194  0.00  0.00    +0.000 A 
ATOM      5  C   UNL     1       0.676   9.780  17.985  0.00  0.00    +0.000 A 
ATOM      6  C   UNL     1       1.691   8.825  17.954  0.00  0.00    +0.000 A 
ATOM      7  C   UNL     1       2.083   8.204  19.131  0.00  0.00    +0.000 A 
ATOM      8  C   UNL     1       1.454   8.533  20.334  0.00  0.00    +0.000 A 
ATOM      9  C   UNL     1       0.421   9.489  20.392  0.00  0.00    +0.000 A 
ATOM     10  N   UNL     1      -0.184   9.763  21.654  0.00  0.00    +0.000 N 
ATOM     11  C   UNL     1      -0.338   8.685  22.623  0.00  0.00    +0.000 C 
ATOM     12  C   UNL     1      -0.571  11.032  22.093  0.00  0.00    +0.000 C 
ATOM     13  O   UNL     1      -0.945  11.208  23.259  0.00  0.00    +0.000 OA
ENDROOT
BRANCH   3  14
ATOM     14  C   UNL     1      -2.123  10.940  18.029  0.00  0.00    +0.000 A 
ATOM     15  C   UNL     1      -3.288  11.717  18.084  0.00  0.00    +0.000 A 
ATOM     16  C   UNL     1      -4.268  11.585  17.100  0.00  0.00    +0.000 A 
ATOM     17  C   UNL     1      -4.091  10.674  16.060  0.00  0.00    +0.000 A 
ATOM     18  C   UNL     1      -2.935   9.895  16.002  0.00  0.00    +0.000 A 
ATOM     19  C   UNL     1      -1.953  10.021  16.987  0.00  0.00    +0.000 A 
ENDBRANCH   3  14
BRANCH   1  20
ATOM     20  C   UNL     1      -0.872  13.518  21.804  0.00  0.00    +0.000 C 
BRANCH  20  24
ATOM     21  C   UNL     1      -0.652  17.009  18.345  0.00  0.00    +0.000 C 
ATOM     22  N   UNL     1      -0.074  16.390  19.523  0.00  0.00    +0.000 N 
ATOM     23  C   UNL     1      -0.982  15.709  20.465  0.00  0.00    +0.000 C 
ATOM     24  C   UNL     1      -0.118  14.762  21.325  0.00  0.00    +0.000 C 
ATOM     25  C   UNL     1       0.999  14.496  20.359  0.00  0.00    +0.000 A 
ATOM     26  C   UNL     1       1.989  13.519  20.407  0.00  0.00    +0.000 A 
ATOM     27  C   UNL     1       2.965  13.513  19.409  0.00  0.00    +0.000 A 
ATOM     28  C   UNL     1       2.948  14.481  18.397  0.00  0.00    +0.000 A 
ATOM     29  C   UNL     1       1.954  15.466  18.368  0.00  0.00    +0.000 A 
ATOM     30  C   UNL     1       0.975  15.468  19.350  0.00  0.00    +0.000 A 
ENDBRANCH  20  24
ENDBRANCH   1  20
TORSDOF 3
ENDMDL
MODEL 8
REMARK VINA RESULT:      -7.4      1.822      3.061
REMARK  Name = 
REMARK  5 active torsions:
REMARK  status: ('A' for Active; 'I' for Inactive)
REMARK    1  A    between atoms: C_1  and  N_2
REMARK    2  A    between atoms: C_4  and  C_5
REMARK    3  A    between atoms: C_5  and  C_6
REMARK    4  A    between atoms: C_8  and  C_9
REMARK    5  A    between atoms: N_21  and  C_22
REMARK                            x       y       z     vdW  Elec       q    Type
REMARK                         _______ _______ _______ _____ _____    ______ ____
ROOT
ATOM      1  C   UNL     1      -0.110  12.316  20.910  0.00  0.00    +0.000 C 
ATOM      2  N   UNL     1      -1.064  12.068  19.833  0.00  0.00    +0.000 NA
ATOM      3  C   UNL     1      -0.951  11.042  19.065  0.00  0.00    +0.000 C 
ATOM      4  C   UNL     1       0.143  10.034  19.167  0.00  0.00    +0.000 A 
ATOM      5  C   UNL     1       0.717   9.563  17.969  0.00  0.00    +0.000 A 
ATOM      6  C   UNL     1       1.676   8.551  17.984  0.00  0.00    +0.000 A 
ATOM      7  C   UNL     1       2.085   8.014  19.197  0.00  0.00    +0.000 A 
ATOM      8  C   UNL     1       1.527   8.483  20.389  0.00  0.00    +0.000 A 
ATOM      9  C   UNL     1       0.550   9.498  20.400  0.00  0.00    +0.000 A 
ATOM     10  N   UNL     1       0.015   9.915  21.654  0.00  0.00    +0.000 N 
ATOM     11  C   UNL     1      -0.155   8.937  22.721  0.00  0.00    +0.000 C 
ATOM     12  C   UNL     1      -0.283  11.238  21.992  0.00  0.00    +0.000 C 
ATOM     13  O   UNL     1      -0.596  11.536  23.151  0.00  0.00    +0.000 OA
ENDROOT
BRANCH   3  14
ATOM     14  C   UNL     1      -2.010  10.882  18.016  0.00  0.00    +0.000 A 
ATOM     15  C   UNL     1      -1.799   9.974  16.968  0.00  0.00    +0.000 A 
ATOM     16  C   UNL     1      -2.742   9.843  15.949  0.00  0.00    +0.000 A 
ATOM     17  C   UNL     1      -3.899  10.621  15.968  0.00  0.00    +0.000 A 
ATOM     18  C   UNL     1      -4.113  11.530  17.006  0.00  0.00    +0.000 A 
ATOM     19  C   UNL     1      -3.170  11.666  18.026  0.00  0.00    +0.000 A 
ENDBRANCH   3  14
BRANCH   1  20
ATOM     20  C   UNL     1      -0.461  13.703  21.494  0.00  0.00    +0.000 C 
BRANCH  20  24
ATOM     21  C   UNL     1       0.784  18.109  19.696  0.00  0.00    +0.000 C 
ATOM     22  N   UNL     1       1.178  16.888  20.374  0.00  0.00    +0.000 N 
ATOM     23  C   UNL     1       0.159  16.175  21.166  0.00  0.00    +0.000 C 
ATOM     24  C   UNL     1       0.667  14.731  21.368  0.00  0.00    +0.000 C 
ATOM     25  C   UNL     1       1.518  14.593  20.139  0.00  0.00    +0.000 A 
ATOM     26  C   UNL     1       2.066  13.446  19.574  0.00  0.00    +0.000 A 
ATOM     27  C   UNL     1       2.883  13.583  18.450  0.00  0.00    +0.000 A 
ATOM     28  C   UNL     1       3.152  14.853  17.923  0.00  0.00    +0.000 A 
ATOM     29  C   UNL     1       2.606  16.000  18.510  0.00  0.00    +0.000 A 
ATOM     30  C   UNL     1       1.783  15.866  19.618  0.00  0.00    +0.000 A 
ENDBRANCH  20  24
ENDBRANCH   1  20
TORSDOF 3
ENDMDL
MODEL 9
REMARK VINA RESULT:      -7.3      3.956      7.095
REMARK  Name = 
REMARK  5 active torsions:
REMARK  status: ('A' for Active; 'I' for Inactive)
REMARK    1  A    between atoms: C_1  and  N_2
REMARK    2  A    between atoms: C_4  and  C_5
REMARK    3  A    between atoms: C_5  and  C_6
REMARK    4  A    between atoms: C_8  and  C_9
REMARK    5  A    between atoms: N_21  and  C_22
REMARK                            x       y       z     vdW  Elec       q    Type
REMARK                         _______ _______ _______ _____ _____    ______ ____
ROOT
ATOM      1  C   UNL     1       1.613  10.541  18.728  0.00  0.00    +0.000 C 
ATOM      2  N   UNL     1       0.264  10.466  18.175  0.00  0.00    +0.000 NA
ATOM      3  C   UNL     1      -0.731  11.032  18.764  0.00  0.00    +0.000 C 
ATOM      4  C   UNL     1      -0.629  11.784  20.047  0.00  0.00    +0.000 A 
ATOM      5  C   UNL     1      -1.647  11.595  21.004  0.00  0.00    +0.000 A 
ATOM      6  C   UNL     1      -1.667  12.337  22.183  0.00  0.00    +0.000 A 
ATOM      7  C   UNL     1      -0.661  13.261  22.429  0.00  0.00    +0.000 A 
ATOM      8  C   UNL     1       0.357  13.447  21.489  0.00  0.00    +0.000 A 
ATOM      9  C   UNL     1       0.396  12.716  20.286  0.00  0.00    +0.000 A 
ATOM     10  N   UNL     1       1.457  12.970  19.368  0.00  0.00    +0.000 N 
ATOM     11  C   UNL     1       1.985  14.323  19.241  0.00  0.00    +0.000 C 
ATOM     12  C   UNL     1       2.119  11.989  18.624  0.00  0.00    +0.000 C 
ATOM     13  O   UNL     1       3.129  12.271  17.969  0.00  0.00    +0.000 OA
ENDROOT
BRANCH   3  14
ATOM     14  C   UNL     1      -2.060  10.909  18.082  0.00  0.00    +0.000 A 
ATOM     15  C   UNL     1      -2.186  10.036  16.991  0.00  0.00    +0.000 A 
ATOM     16  C   UNL     1      -3.396   9.940  16.303  0.00  0.00    +0.000 A 
ATOM     17  C   UNL     1      -4.484  10.718  16.697  0.00  0.00    +0.000 A 
ATOM     18  C   UNL     1      -4.363  11.591  17.779  0.00  0.00    +0.000 A 
ATOM     19  C   UNL     1      -3.154  11.693  18.468  0.00  0.00    +0.000 A 
ENDBRANCH   3  14
BRANCH   1  20
ATOM     20  C   UNL     1       2.494   9.617  17.858  0.00  0.00    +0.000 C 
BRANCH  20  24
ATOM     21  C   UNL     1       2.321   5.782  20.933  0.00  0.00    +0.000 C 
ATOM     22  N   UNL     1       2.174   6.301  19.586  0.00  0.00    +0.000 N 
ATOM     23  C   UNL     1       1.777   7.712  19.427  0.00  0.00    +0.000 C 
ATOM     24  C   UNL     1       2.150   8.131  17.988  0.00  0.00    +0.000 C 
ATOM     25  C   UNL     1       3.293   7.190  17.744  0.00  0.00    +0.000 A 
ATOM     26  C   UNL     1       4.248   7.210  16.731  0.00  0.00    +0.000 A 
ATOM     27  C   UNL     1       5.186   6.178  16.681  0.00  0.00    +0.000 A 
ATOM     28  C   UNL     1       5.148   5.142  17.624  0.00  0.00    +0.000 A 
ATOM     29  C   UNL     1       4.175   5.126  18.629  0.00  0.00    +0.000 A 
ATOM     30  C   UNL     1       3.249   6.157  18.689  0.00  0.00    +0.000 A 
ENDBRANCH  20  24
ENDBRANCH   1  20
TORSDOF 3
ENDMDL
