MODEL 1
REMARK VINA RESULT:      -8.7      0.000      0.000
REMARK  Name = 
REMARK  6 active torsions:
REMARK  status: ('A' for Active; 'I' for Inactive)
REMARK    1  A    between atoms: C_1  and  O_2
REMARK    2  A    between atoms: O_2  and  C_3
REMARK    3  A    between atoms: C_3  and  C_4
REMARK    4  A    between atoms: C_4  and  N_5
REMARK    5  A    between atoms: N_5  and  C_6
REMARK    6  A    between atoms: C_8  and  C_9
REMARK                            x       y       z     vdW  Elec       q    Type
REMARK                         _______ _______ _______ _____ _____    ______ ____
ROOT
ATOM      1  C   UNL     1       6.591   5.989  17.508  0.00  0.00    +0.000 A 
ATOM      2  N   UNL     1       5.505   5.687  18.258  0.00  0.00    +0.000 NA
ATOM      3  C   UNL     1       4.495   4.947  17.738  0.00  0.00    +0.000 A 
ATOM      4  N   UNL     1       4.447   4.431  16.493  0.00  0.00    +0.000 NA
ATOM      5  C   UNL     1       5.536   4.723  15.746  0.00  0.00    +0.000 A 
ATOM      6  C   UNL     1       6.594   5.479  16.218  0.00  0.00    +0.000 A 
ATOM      7  O   UNL     1       7.558   5.611  15.261  0.00  0.00    +0.000 OA
ATOM      8  C   UNL     1       7.106   4.940  14.163  0.00  0.00    +0.000 A 
ATOM      9  C   UNL     1       7.785   4.827  12.952  0.00  0.00    +0.000 A 
ATOM     10  C   UNL     1       7.147   4.100  11.941  0.00  0.00    +0.000 A 
ATOM     11  C   UNL     1       5.892   3.519  12.147  0.00  0.00    +0.000 A 
ATOM     12  C   UNL     1       5.233   3.645  13.378  0.00  0.00    +0.000 A 
ATOM     13  C   UNL     1       5.858   4.374  14.409  0.00  0.00    +0.000 A 
ENDROOT
BRANCH   3  14
ATOM     14  C   UNL     1       3.364   4.651  18.645  0.00  0.00    +0.000 A 
ATOM     15  C   UNL     1       2.347   3.745  18.278  0.00  0.00    +0.000 A 
ATOM     16  C   UNL     1       1.249   3.496  19.108  0.00  0.00    +0.000 A 
ATOM     17  C   UNL     1       1.146   4.143  20.333  0.00  0.00    +0.000 A 
ATOM     18  C   UNL     1       2.146   5.023  20.737  0.00  0.00    +0.000 A 
ATOM     19  C   UNL     1       3.240   5.272  19.903  0.00  0.00    +0.000 A 
ENDBRANCH   3  14
BRANCH   1  20
ATOM     20  N   UNL     1       7.606   6.788  18.019  0.00  0.00    +0.000 N 
ATOM     21  H   UNL     1       7.735   6.659  19.023  0.00  0.00    +0.000 HD
BRANCH  20  22
ATOM     22  C   UNL     1       7.610   8.194  17.618  0.00  0.00    +0.000 C 
BRANCH  22  23
ATOM     23  C   UNL     1       8.565   9.009  18.496  0.00  0.00    +0.000 C 
BRANCH  23  25
ATOM     24  C   UNL     1       9.544  11.140  18.759  0.00  0.00    +0.000 C 
ATOM     25  O   UNL     1       8.699  10.329  17.952  0.00  0.00    +0.000 OA
ENDBRANCH  23  25
ENDBRANCH  22  23
ENDBRANCH  20  22
ENDBRANCH   1  20
TORSDOF 5
ENDMDL
MODEL 2
REMARK VINA RESULT:      -8.5      1.603      5.881
REMARK  Name = 
REMARK  6 active torsions:
REMARK  status: ('A' for Active; 'I' for Inactive)
REMARK    1  A    between atoms: C_1  and  O_2
REMARK    2  A    between atoms: O_2  and  C_3
REMARK    3  A    between atoms: C_3  and  C_4
REMARK    4  A    between atoms: C_4  and  N_5
REMARK    5  A    between atoms: N_5  and  C_6
REMARK    6  A    between atoms: C_8  and  C_9
REMARK                            x       y       z     vdW  Elec       q    Type
REMARK                         _______ _______ _______ _____ _____    ______ ____
ROOT
ATOM      1  C   UNL     1       6.766   4.529  17.892  0.00  0.00    +0.000 A 
ATOM      2  N   UNL     1       6.999   4.487  16.559  0.00  0.00    +0.000 NA
ATOM      3  C   UNL     1       5.986   4.236  15.692  0.00  0.00    +0.000 A 
ATOM      4  N   UNL     1       4.696   4.025  16.018  0.00  0.00    +0.000 NA
ATOM      5  C   UNL     1       4.460   4.077  17.350  0.00  0.00    +0.000 A 
ATOM      6  C   UNL     1       5.451   4.322  18.282  0.00  0.00    +0.000 A 
ATOM      7  O   UNL     1       4.936   4.327  19.545  0.00  0.00    +0.000 OA
ATOM      8  C   UNL     1       3.602   4.073  19.418  0.00  0.00    +0.000 A 
ATOM      9  C   UNL     1       2.694   3.986  20.472  0.00  0.00    +0.000 A 
ATOM     10  C   UNL     1       1.365   3.708  20.133  0.00  0.00    +0.000 A 
ATOM     11  C   UNL     1       0.978   3.532  18.802  0.00  0.00    +0.000 A 
ATOM     12  C   UNL     1       1.911   3.631  17.760  0.00  0.00    +0.000 A 
ATOM     13  C   UNL     1       3.255   3.907  18.080  0.00  0.00    +0.000 A 
ENDROOT
BRANCH   3  14
ATOM     14  C   UNL     1       6.339   4.234  14.255  0.00  0.00    +0.000 A 
ATOM     15  C   UNL     1       5.661   3.406  13.335  0.00  0.00    +0.000 A 
ATOM     16  C   UNL     1       6.019   3.362  11.983  0.00  0.00    +0.000 A 
ATOM     17  C   UNL     1       7.061   4.154  11.517  0.00  0.00    +0.000 A 
ATOM     18  C   UNL     1       7.732   5.002  12.393  0.00  0.00    +0.000 A 
ATOM     19  C   UNL     1       7.374   5.041  13.744  0.00  0.00    +0.000 A 
ENDBRANCH   3  14
BRANCH   1  20
ATOM     20  N   UNL     1       7.808   4.738  18.787  0.00  0.00    +0.000 N 
ATOM     21  H   UNL     1       7.881   3.992  19.480  0.00  0.00    +0.000 HD
BRANCH  20  22
ATOM     22  C   UNL     1       7.926   6.074  19.369  0.00  0.00    +0.000 C 
BRANCH  22  23
ATOM     23  C   UNL     1       7.909   7.149  18.277  0.00  0.00    +0.000 C 
BRANCH  23  25
ATOM     24  C   UNL     1       8.303   9.458  18.003  0.00  0.00    +0.000 C 
ATOM     25  O   UNL     1       8.666   8.284  18.718  0.00  0.00    +0.000 OA
ENDBRANCH  23  25
ENDBRANCH  22  23
ENDBRANCH  20  22
ENDBRANCH   1  20
TORSDOF 5
ENDMDL
MODEL 3
REMARK VINA RESULT:      -8.3      1.086      1.240
REMARK  Name = 
REMARK  6 active torsions:
REMARK  status: ('A' for Active; 'I' for Inactive)
REMARK    1  A    between atoms: C_1  and  O_2
REMARK    2  A    between atoms: O_2  and  C_3
REMARK    3  A    between atoms: C_3  and  C_4
REMARK    4  A    between atoms: C_4  and  N_5
REMARK    5  A    between atoms: N_5  and  C_6
REMARK    6  A    between atoms: C_8  and  C_9
REMARK                            x       y       z     vdW  Elec       q    Type
REMARK                         _______ _______ _______ _____ _____    ______ ____
ROOT
ATOM      1  C   UNL     1       6.636   4.685  17.853  0.00  0.00    +0.000 A 
ATOM      2  N   UNL     1       5.499   4.395  18.528  0.00  0.00    +0.000 NA
ATOM      3  C   UNL     1       4.389   3.989  17.862  0.00  0.00    +0.000 A 
ATOM      4  N   UNL     1       4.282   3.814  16.530  0.00  0.00    +0.000 NA
ATOM      5  C   UNL     1       5.421   4.093  15.855  0.00  0.00    +0.000 A 
ATOM      6  C   UNL     1       6.581   4.518  16.477  0.00  0.00    +0.000 A 
ATOM      7  O   UNL     1       7.573   4.717  15.563  0.00  0.00    +0.000 OA
ATOM      8  C   UNL     1       7.038   4.426  14.342  0.00  0.00    +0.000 A 
ATOM      9  C   UNL     1       7.714   4.502  13.127  0.00  0.00    +0.000 A 
ATOM     10  C   UNL     1       6.984   4.168  11.981  0.00  0.00    +0.000 A 
ATOM     11  C   UNL     1       5.645   3.776  12.063  0.00  0.00    +0.000 A 
ATOM     12  C   UNL     1       4.991   3.703  13.301  0.00  0.00    +0.000 A 
ATOM     13  C   UNL     1       5.707   4.037  14.467  0.00  0.00    +0.000 A 
ENDROOT
BRANCH   3  14
ATOM     14  C   UNL     1       3.205   3.675  18.692  0.00  0.00    +0.000 A 
ATOM     15  C   UNL     1       2.154   2.875  18.196  0.00  0.00    +0.000 A 
ATOM     16  C   UNL     1       1.009   2.612  18.955  0.00  0.00    +0.000 A 
ATOM     17  C   UNL     1       0.891   3.138  20.235  0.00  0.00    +0.000 A 
ATOM     18  C   UNL     1       1.921   3.909  20.765  0.00  0.00    +0.000 A 
ATOM     19  C   UNL     1       3.063   4.172  20.002  0.00  0.00    +0.000 A 
ENDBRANCH   3  14
BRANCH   1  20
ATOM     20  N   UNL     1       7.760   5.148  18.524  0.00  0.00    +0.000 N 
ATOM     21  H   UNL     1       7.942   4.629  19.384  0.00  0.00    +0.000 HD
BRANCH  20  22
ATOM     22  C   UNL     1       7.885   6.595  18.693  0.00  0.00    +0.000 C 
BRANCH  22  23
ATOM     23  C   UNL     1       7.113   7.340  17.598  0.00  0.00    +0.000 C 
BRANCH  23  25
ATOM     24  C   UNL     1       8.398   9.215  18.229  0.00  0.00    +0.000 C 
ATOM     25  O   UNL     1       7.895   8.452  17.140  0.00  0.00    +0.000 OA
ENDBRANCH  23  25
ENDBRANCH  22  23
ENDBRANCH  20  22
ENDBRANCH   1  20
TORSDOF 5
ENDMDL
MODEL 4
REMARK VINA RESULT:      -8.3      3.178      7.252
REMARK  Name = 
REMARK  6 active torsions:
REMARK  status: ('A' for Active; 'I' for Inactive)
REMARK    1  A    between atoms: C_1  and  O_2
REMARK    2  A    between atoms: O_2  and  C_3
REMARK    3  A    between atoms: C_3  and  C_4
REMARK    4  A    between atoms: C_4  and  N_5
REMARK    5  A    between atoms: N_5  and  C_6
REMARK    6  A    between atoms: C_8  and  C_9
REMARK                            x       y       z     vdW  Elec       q    Type
REMARK                         _______ _______ _______ _____ _____    ______ ____
ROOT
ATOM      1  C   UNL     1       4.945   4.033  18.351  0.00  0.00    +0.000 A 
ATOM      2  N   UNL     1       5.503   3.908  17.124  0.00  0.00    +0.000 NA
ATOM      3  C   UNL     1       5.265   4.835  16.164  0.00  0.00    +0.000 A 
ATOM      4  N   UNL     1       4.505   5.941  16.298  0.00  0.00    +0.000 NA
ATOM      5  C   UNL     1       3.954   6.072  17.526  0.00  0.00    +0.000 A 
ATOM      6  C   UNL     1       4.154   5.157  18.544  0.00  0.00    +0.000 A 
ATOM      7  O   UNL     1       3.492   5.538  19.673  0.00  0.00    +0.000 OA
ATOM      8  C   UNL     1       2.853   6.705  19.371  0.00  0.00    +0.000 A 
ATOM      9  C   UNL     1       2.054   7.437  20.247  0.00  0.00    +0.000 A 
ATOM     10  C   UNL     1       1.480   8.608  19.741  0.00  0.00    +0.000 A 
ATOM     11  C   UNL     1       1.705   9.016  18.423  0.00  0.00    +0.000 A 
ATOM     12  C   UNL     1       2.518   8.262  17.564  0.00  0.00    +0.000 A 
ATOM     13  C   UNL     1       3.105   7.078  18.053  0.00  0.00    +0.000 A 
ENDROOT
BRANCH   3  14
ATOM     14  C   UNL     1       5.941   4.622  14.864  0.00  0.00    +0.000 A 
ATOM     15  C   UNL     1       7.148   5.281  14.549  0.00  0.00    +0.000 A 
ATOM     16  C   UNL     1       7.769   5.122  13.306  0.00  0.00    +0.000 A 
ATOM     17  C   UNL     1       7.199   4.293  12.348  0.00  0.00    +0.000 A 
ATOM     18  C   UNL     1       6.022   3.608  12.636  0.00  0.00    +0.000 A 
ATOM     19  C   UNL     1       5.403   3.771  13.880  0.00  0.00    +0.000 A 
ENDBRANCH   3  14
BRANCH   1  20
ATOM     20  N   UNL     1       5.145   3.061  19.323  0.00  0.00    +0.000 N 
ATOM     21  H   UNL     1       5.984   2.506  19.152  0.00  0.00    +0.000 HD
BRANCH  20  22
ATOM     22  C   UNL     1       3.989   2.249  19.700  0.00  0.00    +0.000 C 
BRANCH  22  23
ATOM     23  C   UNL     1       3.503   1.409  18.514  0.00  0.00    +0.000 C 
BRANCH  23  25
ATOM     24  C   UNL     1       1.428   2.442  18.952  0.00  0.00    +0.000 C 
ATOM     25  O   UNL     1       2.339   2.021  17.944  0.00  0.00    +0.000 OA
ENDBRANCH  23  25
ENDBRANCH  22  23
ENDBRANCH  20  22
ENDBRANCH   1  20
TORSDOF 5
ENDMDL
MODEL 5
REMARK VINA RESULT:      -8.2      0.638      1.117
REMARK  Name = 
REMARK  6 active torsions:
REMARK  status: ('A' for Active; 'I' for Inactive)
REMARK    1  A    between atoms: C_1  and  O_2
REMARK    2  A    between atoms: O_2  and  C_3
REMARK    3  A    between atoms: C_3  and  C_4
REMARK    4  A    between atoms: C_4  and  N_5
REMARK    5  A    between atoms: N_5  and  C_6
REMARK    6  A    between atoms: C_8  and  C_9
REMARK                            x       y       z     vdW  Elec       q    Type
REMARK                         _______ _______ _______ _____ _____    ______ ____
ROOT
ATOM      1  C   UNL     1       6.310   5.794  17.577  0.00  0.00    +0.000 A 
ATOM      2  N   UNL     1       5.238   5.371  18.287  0.00  0.00    +0.000 NA
ATOM      3  C   UNL     1       4.309   4.566  17.714  0.00  0.00    +0.000 A 
ATOM      4  N   UNL     1       4.334   4.098  16.451  0.00  0.00    +0.000 NA
ATOM      5  C   UNL     1       5.410   4.512  15.742  0.00  0.00    +0.000 A 
ATOM      6  C   UNL     1       6.386   5.338  16.269  0.00  0.00    +0.000 A 
ATOM      7  O   UNL     1       7.356   5.590  15.343  0.00  0.00    +0.000 OA
ATOM      8  C   UNL     1       6.989   4.926  14.209  0.00  0.00    +0.000 A 
ATOM      9  C   UNL     1       7.702   4.919  13.013  0.00  0.00    +0.000 A 
ATOM     10  C   UNL     1       7.152   4.180  11.959  0.00  0.00    +0.000 A 
ATOM     11  C   UNL     1       5.950   3.485  12.112  0.00  0.00    +0.000 A 
ATOM     12  C   UNL     1       5.255   3.505  13.329  0.00  0.00    +0.000 A 
ATOM     13  C   UNL     1       5.790   4.245  14.402  0.00  0.00    +0.000 A 
ENDROOT
BRANCH   3  14
ATOM     14  C   UNL     1       3.188   4.139  18.581  0.00  0.00    +0.000 A 
ATOM     15  C   UNL     1       3.308   4.138  19.987  0.00  0.00    +0.000 A 
ATOM     16  C   UNL     1       2.271   3.691  20.813  0.00  0.00    +0.000 A 
ATOM     17  C   UNL     1       1.084   3.238  20.251  0.00  0.00    +0.000 A 
ATOM     18  C   UNL     1       0.923   3.251  18.869  0.00  0.00    +0.000 A 
ATOM     19  C   UNL     1       1.963   3.697  18.046  0.00  0.00    +0.000 A 
ENDBRANCH   3  14
BRANCH   1  20
ATOM     20  N   UNL     1       7.239   6.658  18.143  0.00  0.00    +0.000 N 
ATOM     21  H   UNL     1       6.921   7.044  19.032  0.00  0.00    +0.000 HD
BRANCH  20  22
ATOM     22  C   UNL     1       7.836   7.662  17.263  0.00  0.00    +0.000 C 
BRANCH  22  23
ATOM     23  C   UNL     1       7.812   9.046  17.919  0.00  0.00    +0.000 C 
BRANCH  23  25
ATOM     24  C   UNL     1       9.343  10.498  18.974  0.00  0.00    +0.000 C 
ATOM     25  O   UNL     1       8.903   9.152  18.843  0.00  0.00    +0.000 OA
ENDBRANCH  23  25
ENDBRANCH  22  23
ENDBRANCH  20  22
ENDBRANCH   1  20
TORSDOF 5
ENDMDL
MODEL 6
REMARK VINA RESULT:      -8.2      1.520      5.919
REMARK  Name = 
REMARK  6 active torsions:
REMARK  status: ('A' for Active; 'I' for Inactive)
REMARK    1  A    between atoms: C_1  and  O_2
REMARK    2  A    between atoms: O_2  and  C_3
REMARK    3  A    between atoms: C_3  and  C_4
REMARK    4  A    between atoms: C_4  and  N_5
REMARK    5  A    between atoms: N_5  and  C_6
REMARK    6  A    between atoms: C_8  and  C_9
REMARK                            x       y       z     vdW  Elec       q    Type
REMARK                         _______ _______ _______ _____ _____    ______ ____
ROOT
ATOM      1  C   UNL     1       6.649   4.795  17.942  0.00  0.00    +0.000 A 
ATOM      2  N   UNL     1       6.905   4.669  16.618  0.00  0.00    +0.000 NA
ATOM      3  C   UNL     1       5.928   4.273  15.765  0.00  0.00    +0.000 A 
ATOM      4  N   UNL     1       4.653   3.988  16.094  0.00  0.00    +0.000 NA
ATOM      5  C   UNL     1       4.393   4.124  17.415  0.00  0.00    +0.000 A 
ATOM      6  C   UNL     1       5.348   4.516  18.335  0.00  0.00    +0.000 A 
ATOM      7  O   UNL     1       4.815   4.579  19.588  0.00  0.00    +0.000 OA
ATOM      8  C   UNL     1       3.506   4.212  19.469  0.00  0.00    +0.000 A 
ATOM      9  C   UNL     1       2.592   4.135  20.518  0.00  0.00    +0.000 A 
ATOM     10  C   UNL     1       1.293   3.730  20.189  0.00  0.00    +0.000 A 
ATOM     11  C   UNL     1       0.941   3.422  18.872  0.00  0.00    +0.000 A 
ATOM     12  C   UNL     1       1.881   3.513  17.835  0.00  0.00    +0.000 A 
ATOM     13  C   UNL     1       3.194   3.917  18.145  0.00  0.00    +0.000 A 
ENDROOT
BRANCH   3  14
ATOM     14  C   UNL     1       6.302   4.189  14.335  0.00  0.00    +0.000 A 
ATOM     15  C   UNL     1       7.355   4.964  13.806  0.00  0.00    +0.000 A 
ATOM     16  C   UNL     1       7.684   4.927  12.447  0.00  0.00    +0.000 A 
ATOM     17  C   UNL     1       6.970   4.106  11.583  0.00  0.00    +0.000 A 
ATOM     18  C   UNL     1       5.942   3.308  12.078  0.00  0.00    +0.000 A 
ATOM     19  C   UNL     1       5.615   3.350  13.437  0.00  0.00    +0.000 A 
ENDBRANCH   3  14
BRANCH   1  20
ATOM     20  N   UNL     1       7.658   5.153  18.828  0.00  0.00    +0.000 N 
ATOM     21  H   UNL     1       7.542   4.721  19.745  0.00  0.00    +0.000 HD
BRANCH  20  22
ATOM     22  C   UNL     1       8.004   6.571  18.903  0.00  0.00    +0.000 C 
BRANCH  22  23
ATOM     23  C   UNL     1       7.753   7.266  17.561  0.00  0.00    +0.000 C 
BRANCH  23  25
ATOM     24  C   UNL     1       8.504   9.398  18.236  0.00  0.00    +0.000 C 
ATOM     25  O   UNL     1       7.389   8.634  17.795  0.00  0.00    +0.000 OA
ENDBRANCH  23  25
ENDBRANCH  22  23
ENDBRANCH  20  22
ENDBRANCH   1  20
TORSDOF 5
ENDMDL
MODEL 7
REMARK VINA RESULT:      -8.0      1.197      5.813
REMARK  Name = 
REMARK  6 active torsions:
REMARK  status: ('A' for Active; 'I' for Inactive)
REMARK    1  A    between atoms: C_1  and  O_2
REMARK    2  A    between atoms: O_2  and  C_3
REMARK    3  A    between atoms: C_3  and  C_4
REMARK    4  A    between atoms: C_4  and  N_5
REMARK    5  A    between atoms: N_5  and  C_6
REMARK    6  A    between atoms: C_8  and  C_9
REMARK                            x       y       z     vdW  Elec       q    Type
REMARK                         _______ _______ _______ _____ _____    ______ ____
ROOT
ATOM      1  C   UNL     1       6.439   6.059  17.556  0.00  0.00    +0.000 A 
ATOM      2  N   UNL     1       6.727   5.669  16.292  0.00  0.00    +0.000 NA
ATOM      3  C   UNL     1       5.883   4.851  15.616  0.00  0.00    +0.000 A 
ATOM      4  N   UNL     1       4.713   4.363  16.075  0.00  0.00    +0.000 NA
ATOM      5  C   UNL     1       4.419   4.760  17.334  0.00  0.00    +0.000 A 
ATOM      6  C   UNL     1       5.243   5.587  18.076  0.00  0.00    +0.000 A 
ATOM      7  O   UNL     1       4.702   5.833  19.303  0.00  0.00    +0.000 OA
ATOM      8  C   UNL     1       3.523   5.148  19.350  0.00  0.00    +0.000 A 
ATOM      9  C   UNL     1       2.648   5.122  20.433  0.00  0.00    +0.000 A 
ATOM     10  C   UNL     1       1.490   4.350  20.286  0.00  0.00    +0.000 A 
ATOM     11  C   UNL     1       1.233   3.647  19.106  0.00  0.00    +0.000 A 
ATOM     12  C   UNL     1       2.129   3.694  18.029  0.00  0.00    +0.000 A 
ATOM     13  C   UNL     1       3.302   4.465  18.157  0.00  0.00    +0.000 A 
ENDROOT
BRANCH   3  14
ATOM     14  C   UNL     1       6.276   4.501  14.233  0.00  0.00    +0.000 A 
ATOM     15  C   UNL     1       7.380   5.117  13.607  0.00  0.00    +0.000 A 
ATOM     16  C   UNL     1       7.730   4.829  12.284  0.00  0.00    +0.000 A 
ATOM     17  C   UNL     1       6.986   3.909  11.555  0.00  0.00    +0.000 A 
ATOM     18  C   UNL     1       5.907   3.264  12.151  0.00  0.00    +0.000 A 
ATOM     19  C   UNL     1       5.558   3.557  13.474  0.00  0.00    +0.000 A 
ENDBRANCH   3  14
BRANCH   1  20
ATOM     20  N   UNL     1       7.324   6.858  18.270  0.00  0.00    +0.000 N 
ATOM     21  H   UNL     1       7.022   7.007  19.233  0.00  0.00    +0.000 HD
BRANCH  20  22
ATOM     22  C   UNL     1       7.789   8.082  17.619  0.00  0.00    +0.000 C 
BRANCH  22  23
ATOM     23  C   UNL     1       8.589   8.949  18.596  0.00  0.00    +0.000 C 
BRANCH  23  25
ATOM     24  C   UNL     1       9.729  11.012  18.688  0.00  0.00    +0.000 C 
ATOM     25  O   UNL     1       8.660  10.290  18.091  0.00  0.00    +0.000 OA
ENDBRANCH  23  25
ENDBRANCH  22  23
ENDBRANCH  20  22
ENDBRANCH   1  20
TORSDOF 5
ENDMDL
MODEL 8
REMARK VINA RESULT:      -8.0      3.163      7.153
REMARK  Name = 
REMARK  6 active torsions:
REMARK  status: ('A' for Active; 'I' for Inactive)
REMARK    1  A    between atoms: C_1  and  O_2
REMARK    2  A    between atoms: O_2  and  C_3
REMARK    3  A    between atoms: C_3  and  C_4
REMARK    4  A    between atoms: C_4  and  N_5
REMARK    5  A    between atoms: N_5  and  C_6
REMARK    6  A    between atoms: C_8  and  C_9
REMARK                            x       y       z     vdW  Elec       q    Type
REMARK                         _______ _______ _______ _____ _____    ______ ____
ROOT
ATOM      1  C   UNL     1       5.039   4.137  18.391  0.00  0.00    +0.000 A 
ATOM      2  N   UNL     1       5.574   4.011  17.154  0.00  0.00    +0.000 NA
ATOM      3  C   UNL     1       5.281   4.911  16.183  0.00  0.00    +0.000 A 
ATOM      4  N   UNL     1       4.485   5.991  16.315  0.00  0.00    +0.000 NA
ATOM      5  C   UNL     1       3.958   6.125  17.554  0.00  0.00    +0.000 A 
ATOM      6  C   UNL     1       4.213   5.236  18.582  0.00  0.00    +0.000 A 
ATOM      7  O   UNL     1       3.563   5.614  19.720  0.00  0.00    +0.000 OA
ATOM      8  C   UNL     1       2.876   6.752  19.412  0.00  0.00    +0.000 A 
ATOM      9  C   UNL     1       2.071   7.470  20.293  0.00  0.00    +0.000 A 
ATOM     10  C   UNL     1       1.443   8.611  19.780  0.00  0.00    +0.000 A 
ATOM     11  C   UNL     1       1.624   9.003  18.451  0.00  0.00    +0.000 A 
ATOM     12  C   UNL     1       2.445   8.263  17.587  0.00  0.00    +0.000 A 
ATOM     13  C   UNL     1       3.085   7.110  18.083  0.00  0.00    +0.000 A 
ENDROOT
BRANCH   3  14
ATOM     14  C   UNL     1       5.935   4.698  14.873  0.00  0.00    +0.000 A 
ATOM     15  C   UNL     1       5.380   3.829  13.910  0.00  0.00    +0.000 A 
ATOM     16  C   UNL     1       6.015   3.585  12.688  0.00  0.00    +0.000 A 
ATOM     17  C   UNL     1       7.221   4.211  12.396  0.00  0.00    +0.000 A 
ATOM     18  C   UNL     1       7.782   5.094  13.313  0.00  0.00    +0.000 A 
ATOM     19  C   UNL     1       7.145   5.335  14.535  0.00  0.00    +0.000 A 
ENDBRANCH   3  14
BRANCH   1  20
ATOM     20  N   UNL     1       5.296   3.191  19.375  0.00  0.00    +0.000 N 
ATOM     21  H   UNL     1       6.269   2.885  19.376  0.00  0.00    +0.000 HD
BRANCH  20  22
ATOM     22  C   UNL     1       4.347   2.085  19.497  0.00  0.00    +0.000 C 
BRANCH  22  23
ATOM     23  C   UNL     1       3.344   2.348  20.625  0.00  0.00    +0.000 C 
BRANCH  23  25
ATOM     24  C   UNL     1       1.180   3.187  21.046  0.00  0.00    +0.000 C 
ATOM     25  O   UNL     1       2.071   2.685  20.059  0.00  0.00    +0.000 OA
ENDBRANCH  23  25
ENDBRANCH  22  23
ENDBRANCH  20  22
ENDBRANCH   1  20
TORSDOF 5
ENDMDL
MODEL 9
REMARK VINA RESULT:      -7.9      3.938      7.814
REMARK  Name = 
REMARK  6 active torsions:
REMARK  status: ('A' for Active; 'I' for Inactive)
REMARK    1  A    between atoms: C_1  and  O_2
REMARK    2  A    between atoms: O_2  and  C_3
REMARK    3  A    between atoms: C_3  and  C_4
REMARK    4  A    between atoms: C_4  and  N_5
REMARK    5  A    between atoms: N_5  and  C_6
REMARK    6  A    between atoms: C_8  and  C_9
REMARK                            x       y       z     vdW  Elec       q    Type
REMARK                         _______ _______ _______ _____ _____    ______ ____
ROOT
ATOM      1  C   UNL     1       2.732   5.669  20.137  0.00  0.00    +0.000 A 
ATOM      2  N   UNL     1       3.489   5.225  19.106  0.00  0.00    +0.000 NA
ATOM      3  C   UNL     1       3.655   5.989  17.998  0.00  0.00    +0.000 A 
ATOM      4  N   UNL     1       3.139   7.217  17.795  0.00  0.00    +0.000 NA
ATOM      5  C   UNL     1       2.391   7.666  18.829  0.00  0.00    +0.000 A 
ATOM      6  C   UNL     1       2.179   6.931  19.981  0.00  0.00    +0.000 A 
ATOM      7  O   UNL     1       1.398   7.624  20.859  0.00  0.00    +0.000 OA
ATOM      8  C   UNL     1       1.099   8.811  20.256  0.00  0.00    +0.000 A 
ATOM      9  C   UNL     1       0.315   9.821  20.809  0.00  0.00    +0.000 A 
ATOM     10  C   UNL     1       0.120  10.963  20.025  0.00  0.00    +0.000 A 
ATOM     11  C   UNL     1       0.690  11.077  18.754  0.00  0.00    +0.000 A 
ATOM     12  C   UNL     1       1.480  10.047  18.224  0.00  0.00    +0.000 A 
ATOM     13  C   UNL     1       1.688   8.887  18.996  0.00  0.00    +0.000 A 
ENDROOT
BRANCH   3  14
ATOM     14  C   UNL     1       4.519   5.425  16.937  0.00  0.00    +0.000 A 
ATOM     15  C   UNL     1       4.799   4.043  16.877  0.00  0.00    +0.000 A 
ATOM     16  C   UNL     1       5.653   3.508  15.907  0.00  0.00    +0.000 A 
ATOM     17  C   UNL     1       6.243   4.343  14.967  0.00  0.00    +0.000 A 
ATOM     18  C   UNL     1       5.967   5.706  14.982  0.00  0.00    +0.000 A 
ATOM     19  C   UNL     1       5.115   6.239  15.954  0.00  0.00    +0.000 A 
ENDBRANCH   3  14
BRANCH   1  20
ATOM     20  N   UNL     1       2.518   4.871  21.254  0.00  0.00    +0.000 N 
ATOM     21  H   UNL     1       3.083   5.159  22.053  0.00  0.00    +0.000 HD
BRANCH  20  22
ATOM     22  C   UNL     1       2.516   3.423  21.046  0.00  0.00    +0.000 C 
BRANCH  22  23
ATOM     23  C   UNL     1       1.084   2.887  20.952  0.00  0.00    +0.000 C 
BRANCH  23  25
ATOM     24  C   UNL     1       1.726   2.161  18.801  0.00  0.00    +0.000 C 
ATOM     25  O   UNL     1       0.706   2.783  19.572  0.00  0.00    +0.000 OA
ENDBRANCH  23  25
ENDBRANCH  22  23
ENDBRANCH  20  22
ENDBRANCH   1  20
TORSDOF 5
ENDMDL
