MODEL 1
REMARK VINA RESULT:      -8.5      0.000      0.000
REMARK  Name = 
REMARK  9 active torsions:
REMARK  status: ('A' for Active; 'I' for Inactive)
REMARK    1  A    between atoms: C_1  and  C_2
REMARK    2  A    between atoms: C_2  and  C_3
REMARK    3  A    between atoms: C_3  and  O_4
REMARK    4  A    between atoms: O_4  and  C_5
REMARK    5  A    between atoms: C_5  and  C_7
REMARK    6  A    between atoms: C_10  and  N_11
REMARK    7  A    between atoms: C_12  and  C_14
REMARK    8  A    between atoms: C_15  and  C_16
REMARK    9  A    between atoms: C_24  and  C_25
REMARK                            x       y       z     vdW  Elec       q    Type
REMARK                         _______ _______ _______ _____ _____    ______ ____
ROOT
ATOM      1  N   UNL     1       2.647   6.420  20.122  0.00  0.00    +0.000 N 
ATOM      2  C   UNL     1       2.488   5.241  19.400  0.00  0.00    +0.000 C 
ATOM      3  O   UNL     1       1.778   5.120  18.410  0.00  0.00    +0.000 OA
ATOM      4  H   UNL     1       3.389   6.449  20.809  0.00  0.00    +0.000 HD
ENDROOT
BRANCH   1   8
ATOM      5  C   UNL     1       0.723  10.141  19.390  0.00  0.00    +0.000 A 
ATOM      6  C   UNL     1       1.472   9.529  18.384  0.00  0.00    +0.000 A 
ATOM      7  C   UNL     1       2.090   8.294  18.605  0.00  0.00    +0.000 A 
ATOM      8  C   UNL     1       1.988   7.643  19.839  0.00  0.00    +0.000 A 
ATOM      9  C   UNL     1       1.210   8.238  20.838  0.00  0.00    +0.000 A 
ATOM     10  C   UNL     1       0.590   9.484  20.623  0.00  0.00    +0.000 A 
BRANCH   5  11
ATOM     11  C   UNL     1       0.175  11.499  19.104  0.00  0.00    +0.000 C 
ATOM     12  O   UNL     1       0.455  12.491  19.757  0.00  0.00    +0.000 OA
BRANCH  11  13
ATOM     13  O   UNL     1      -0.735  11.433  18.100  0.00  0.00    +0.000 OA
BRANCH  13  14
ATOM     14  C   UNL     1      -2.087  11.178  18.506  0.00  0.00    +0.000 C 
BRANCH  14  16
ATOM     15  C   UNL     1      -2.500   9.995  16.342  0.00  0.00    +0.000 C 
ATOM     16  C   UNL     1      -2.637   9.916  17.856  0.00  0.00    +0.000 C 
ENDBRANCH  14  16
ENDBRANCH  13  14
ENDBRANCH  11  13
ENDBRANCH   5  11
ENDBRANCH   1   8
BRANCH   2  17
ATOM     17  C   UNL     1       3.292   4.117  19.841  0.00  0.00    +0.000 A 
ATOM     18  C   UNL     1       4.589   3.739  19.357  0.00  0.00    +0.000 A 
ATOM     19  N   UNL     1       4.966   2.571  19.903  0.00  0.00    +0.000 NA
ATOM     20  O   UNL     1       3.948   2.187  20.744  0.00  0.00    +0.000 OA
ATOM     21  C   UNL     1       2.947   3.105  20.712  0.00  0.00    +0.000 A 
ATOM     22  C   UNL     1       1.761   2.782  21.525  0.00  0.00    +0.000 C 
BRANCH  18  23
ATOM     23  C   UNL     1       5.460   4.449  18.416  0.00  0.00    +0.000 A 
ATOM     24  C   UNL     1       5.322   4.270  17.032  0.00  0.00    +0.000 A 
ATOM     25  C   UNL     1       6.182   4.907  16.136  0.00  0.00    +0.000 A 
ATOM     26  C   UNL     1       7.180   5.753  16.613  0.00  0.00    +0.000 A 
ATOM     27  C   UNL     1       7.311   5.967  17.983  0.00  0.00    +0.000 A 
ATOM     28  C   UNL     1       6.455   5.321  18.882  0.00  0.00    +0.000 A 
ENDBRANCH  18  23
ENDBRANCH   2  17
TORSDOF 7
ENDMDL
MODEL 2
REMARK VINA RESULT:      -8.4      0.581      1.111
REMARK  Name = 
REMARK  9 active torsions:
REMARK  status: ('A' for Active; 'I' for Inactive)
REMARK    1  A    between atoms: C_1  and  C_2
REMARK    2  A    between atoms: C_2  and  C_3
REMARK    3  A    between atoms: C_3  and  O_4
REMARK    4  A    between atoms: O_4  and  C_5
REMARK    5  A    between atoms: C_5  and  C_7
REMARK    6  A    between atoms: C_10  and  N_11
REMARK    7  A    between atoms: C_12  and  C_14
REMARK    8  A    between atoms: C_15  and  C_16
REMARK    9  A    between atoms: C_24  and  C_25
REMARK                            x       y       z     vdW  Elec       q    Type
REMARK                         _______ _______ _______ _____ _____    ______ ____
ROOT
ATOM      1  N   UNL     1       2.803   6.352  19.996  0.00  0.00    +0.000 N 
ATOM      2  C   UNL     1       2.456   5.106  19.482  0.00  0.00    +0.000 C 
ATOM      3  O   UNL     1       1.546   4.910  18.687  0.00  0.00    +0.000 OA
ATOM      4  H   UNL     1       3.676   6.419  20.503  0.00  0.00    +0.000 HD
ENDROOT
BRANCH   1   8
ATOM      5  C   UNL     1       0.759   9.944  18.995  0.00  0.00    +0.000 A 
ATOM      6  C   UNL     1       0.652   9.411  20.280  0.00  0.00    +0.000 A 
ATOM      7  C   UNL     1       1.338   8.243  20.628  0.00  0.00    +0.000 A 
ATOM      8  C   UNL     1       2.139   7.569  19.700  0.00  0.00    +0.000 A 
ATOM      9  C   UNL     1       2.275   8.119  18.421  0.00  0.00    +0.000 A 
ATOM     10  C   UNL     1       1.583   9.292  18.063  0.00  0.00    +0.000 A 
BRANCH   5  11
ATOM     11  C   UNL     1      -0.077  11.138  18.678  0.00  0.00    +0.000 C 
ATOM     12  O   UNL     1       0.374  12.266  18.564  0.00  0.00    +0.000 OA
BRANCH  11  13
ATOM     13  O   UNL     1      -1.389  10.793  18.644  0.00  0.00    +0.000 OA
BRANCH  13  14
ATOM     14  C   UNL     1      -1.857  10.266  17.395  0.00  0.00    +0.000 C 
BRANCH  14  16
ATOM     15  C   UNL     1      -4.054  10.941  16.410  0.00  0.00    +0.000 C 
ATOM     16  C   UNL     1      -3.362  10.033  17.417  0.00  0.00    +0.000 C 
ENDBRANCH  14  16
ENDBRANCH  13  14
ENDBRANCH  11  13
ENDBRANCH   5  11
ENDBRANCH   1   8
BRANCH   2  17
ATOM     17  C   UNL     1       3.299   3.998  19.888  0.00  0.00    +0.000 A 
ATOM     18  C   UNL     1       4.605   3.678  19.389  0.00  0.00    +0.000 A 
ATOM     19  N   UNL     1       5.024   2.508  19.900  0.00  0.00    +0.000 NA
ATOM     20  O   UNL     1       4.024   2.067  20.734  0.00  0.00    +0.000 OA
ATOM     21  C   UNL     1       2.993   2.951  20.732  0.00  0.00    +0.000 A 
ATOM     22  C   UNL     1       1.822   2.566  21.541  0.00  0.00    +0.000 C 
BRANCH  18  23
ATOM     23  C   UNL     1       5.447   4.442  18.465  0.00  0.00    +0.000 A 
ATOM     24  C   UNL     1       5.308   4.297  17.076  0.00  0.00    +0.000 A 
ATOM     25  C   UNL     1       6.141   4.987  16.195  0.00  0.00    +0.000 A 
ATOM     26  C   UNL     1       7.113   5.852  16.691  0.00  0.00    +0.000 A 
ATOM     27  C   UNL     1       7.245   6.032  18.067  0.00  0.00    +0.000 A 
ATOM     28  C   UNL     1       6.415   5.333  18.951  0.00  0.00    +0.000 A 
ENDBRANCH  18  23
ENDBRANCH   2  17
TORSDOF 7
ENDMDL
MODEL 3
REMARK VINA RESULT:      -8.4      0.879      1.286
REMARK  Name = 
REMARK  9 active torsions:
REMARK  status: ('A' for Active; 'I' for Inactive)
REMARK    1  A    between atoms: C_1  and  C_2
REMARK    2  A    between atoms: C_2  and  C_3
REMARK    3  A    between atoms: C_3  and  O_4
REMARK    4  A    between atoms: O_4  and  C_5
REMARK    5  A    between atoms: C_5  and  C_7
REMARK    6  A    between atoms: C_10  and  N_11
REMARK    7  A    between atoms: C_12  and  C_14
REMARK    8  A    between atoms: C_15  and  C_16
REMARK    9  A    between atoms: C_24  and  C_25
REMARK                            x       y       z     vdW  Elec       q    Type
REMARK                         _______ _______ _______ _____ _____    ______ ____
ROOT
ATOM      1  N   UNL     1       2.571   6.569  20.232  0.00  0.00    +0.000 N 
ATOM      2  C   UNL     1       2.514   5.487  19.359  0.00  0.00    +0.000 C 
ATOM      3  O   UNL     1       1.831   5.445  18.344  0.00  0.00    +0.000 OA
ATOM      4  H   UNL     1       3.298   6.562  20.935  0.00  0.00    +0.000 HD
ENDROOT
BRANCH   1   8
ATOM      5  C   UNL     1       0.282  10.114  19.697  0.00  0.00    +0.000 A 
ATOM      6  C   UNL     1       0.234   9.423  20.909  0.00  0.00    +0.000 A 
ATOM      7  C   UNL     1       0.999   8.270  21.105  0.00  0.00    +0.000 A 
ATOM      8  C   UNL     1       1.824   7.766  20.094  0.00  0.00    +0.000 A 
ATOM      9  C   UNL     1       1.901   8.475  18.890  0.00  0.00    +0.000 A 
ATOM     10  C   UNL     1       1.129   9.634  18.685  0.00  0.00    +0.000 A 
BRANCH   5  11
ATOM     11  C   UNL     1      -0.634  11.279  19.537  0.00  0.00    +0.000 C 
ATOM     12  O   UNL     1      -1.225  11.806  20.466  0.00  0.00    +0.000 OA
BRANCH  11  13
ATOM     13  O   UNL     1      -0.780  11.581  18.222  0.00  0.00    +0.000 OA
BRANCH  13  14
ATOM     14  C   UNL     1      -2.116  11.487  17.711  0.00  0.00    +0.000 C 
BRANCH  14  16
ATOM     15  C   UNL     1      -2.720   9.919  15.859  0.00  0.00    +0.000 C 
ATOM     16  C   UNL     1      -2.478  10.051  17.356  0.00  0.00    +0.000 C 
ENDBRANCH  14  16
ENDBRANCH  13  14
ENDBRANCH  11  13
ENDBRANCH   5  11
ENDBRANCH   1   8
BRANCH   2  17
ATOM     17  C   UNL     1       3.395   4.378  19.671  0.00  0.00    +0.000 A 
ATOM     18  C   UNL     1       4.783   4.253  19.329  0.00  0.00    +0.000 A 
ATOM     19  N   UNL     1       5.237   3.034  19.665  0.00  0.00    +0.000 NA
ATOM     20  O   UNL     1       4.177   2.366  20.232  0.00  0.00    +0.000 OA
ATOM     21  C   UNL     1       3.076   3.162  20.239  0.00  0.00    +0.000 A 
ATOM     22  C   UNL     1       1.846   2.542  20.766  0.00  0.00    +0.000 C 
BRANCH  18  23
ATOM     23  C   UNL     1       5.668   5.245  18.712  0.00  0.00    +0.000 A 
ATOM     24  C   UNL     1       5.273   5.948  17.564  0.00  0.00    +0.000 A 
ATOM     25  C   UNL     1       6.133   6.857  16.947  0.00  0.00    +0.000 A 
ATOM     26  C   UNL     1       7.396   7.094  17.485  0.00  0.00    +0.000 A 
ATOM     27  C   UNL     1       7.793   6.427  18.642  0.00  0.00    +0.000 A 
ATOM     28  C   UNL     1       6.934   5.509  19.256  0.00  0.00    +0.000 A 
ENDBRANCH  18  23
ENDBRANCH   2  17
TORSDOF 7
ENDMDL
MODEL 4
REMARK VINA RESULT:      -8.3      0.592      1.470
REMARK  Name = 
REMARK  9 active torsions:
REMARK  status: ('A' for Active; 'I' for Inactive)
REMARK    1  A    between atoms: C_1  and  C_2
REMARK    2  A    between atoms: C_2  and  C_3
REMARK    3  A    between atoms: C_3  and  O_4
REMARK    4  A    between atoms: O_4  and  C_5
REMARK    5  A    between atoms: C_5  and  C_7
REMARK    6  A    between atoms: C_10  and  N_11
REMARK    7  A    between atoms: C_12  and  C_14
REMARK    8  A    between atoms: C_15  and  C_16
REMARK    9  A    between atoms: C_24  and  C_25
REMARK                            x       y       z     vdW  Elec       q    Type
REMARK                         _______ _______ _______ _____ _____    ______ ____
ROOT
ATOM      1  N   UNL     1       2.637   6.442  20.083  0.00  0.00    +0.000 N 
ATOM      2  C   UNL     1       2.522   5.274  19.334  0.00  0.00    +0.000 C 
ATOM      3  O   UNL     1       1.858   5.165  18.311  0.00  0.00    +0.000 OA
ATOM      4  H   UNL     1       3.348   6.465  20.802  0.00  0.00    +0.000 HD
ENDROOT
BRANCH   1   8
ATOM      5  C   UNL     1       0.618  10.051  19.093  0.00  0.00    +0.000 A 
ATOM      6  C   UNL     1       0.484   9.498  20.368  0.00  0.00    +0.000 A 
ATOM      7  C   UNL     1       1.161   8.325  20.713  0.00  0.00    +0.000 A 
ATOM      8  C   UNL     1       1.980   7.664  19.791  0.00  0.00    +0.000 A 
ATOM      9  C   UNL     1       2.143   8.233  18.523  0.00  0.00    +0.000 A 
ATOM     10  C   UNL     1       1.459   9.411  18.169  0.00  0.00    +0.000 A 
BRANCH   5  11
ATOM     11  C   UNL     1      -0.210  11.250  18.777  0.00  0.00    +0.000 C 
ATOM     12  O   UNL     1       0.260  12.348  18.527  0.00  0.00    +0.000 OA
BRANCH  11  13
ATOM     13  O   UNL     1      -1.528  10.957  18.912  0.00  0.00    +0.000 OA
BRANCH  13  14
ATOM     14  C   UNL     1      -2.102  10.182  17.851  0.00  0.00    +0.000 C 
BRANCH  14  16
ATOM     15  C   UNL     1      -4.005  11.212  16.597  0.00  0.00    +0.000 C 
ATOM     16  C   UNL     1      -2.492  11.059  16.668  0.00  0.00    +0.000 C 
ENDBRANCH  14  16
ENDBRANCH  13  14
ENDBRANCH  11  13
ENDBRANCH   5  11
ENDBRANCH   1   8
BRANCH   2  17
ATOM     17  C   UNL     1       3.316   4.150  19.791  0.00  0.00    +0.000 A 
ATOM     18  C   UNL     1       4.638   3.794  19.363  0.00  0.00    +0.000 A 
ATOM     19  N   UNL     1       5.001   2.619  19.904  0.00  0.00    +0.000 NA
ATOM     20  O   UNL     1       3.949   2.209  20.689  0.00  0.00    +0.000 OA
ATOM     21  C   UNL     1       2.941   3.118  20.627  0.00  0.00    +0.000 A 
ATOM     22  C   UNL     1       1.721   2.768  21.377  0.00  0.00    +0.000 C 
BRANCH  18  23
ATOM     23  C   UNL     1       5.545   4.529  18.477  0.00  0.00    +0.000 A 
ATOM     24  C   UNL     1       6.510   5.403  19.000  0.00  0.00    +0.000 A 
ATOM     25  C   UNL     1       7.341   6.142  18.157  0.00  0.00    +0.000 A 
ATOM     26  C   UNL     1       7.235   5.999  16.776  0.00  0.00    +0.000 A 
ATOM     27  C   UNL     1       6.303   5.112  16.241  0.00  0.00    +0.000 A 
ATOM     28  C   UNL     1       5.463   4.378  17.085  0.00  0.00    +0.000 A 
ENDBRANCH  18  23
ENDBRANCH   2  17
TORSDOF 7
ENDMDL
MODEL 5
REMARK VINA RESULT:      -8.1      1.215      1.850
REMARK  Name = 
REMARK  9 active torsions:
REMARK  status: ('A' for Active; 'I' for Inactive)
REMARK    1  A    between atoms: C_1  and  C_2
REMARK    2  A    between atoms: C_2  and  C_3
REMARK    3  A    between atoms: C_3  and  O_4
REMARK    4  A    between atoms: O_4  and  C_5
REMARK    5  A    between atoms: C_5  and  C_7
REMARK    6  A    between atoms: C_10  and  N_11
REMARK    7  A    between atoms: C_12  and  C_14
REMARK    8  A    between atoms: C_15  and  C_16
REMARK    9  A    between atoms: C_24  and  C_25
REMARK                            x       y       z     vdW  Elec       q    Type
REMARK                         _______ _______ _______ _____ _____    ______ ____
ROOT
ATOM      1  N   UNL     1       2.674   6.334  20.193  0.00  0.00    +0.000 N 
ATOM      2  C   UNL     1       2.436   5.135  19.527  0.00  0.00    +0.000 C 
ATOM      3  O   UNL     1       1.621   4.989  18.626  0.00  0.00    +0.000 OA
ATOM      4  H   UNL     1       3.487   6.380  20.793  0.00  0.00    +0.000 HD
ENDROOT
BRANCH   1   8
ATOM      5  C   UNL     1       0.668  10.034  19.581  0.00  0.00    +0.000 A 
ATOM      6  C   UNL     1       1.412   9.459  18.549  0.00  0.00    +0.000 A 
ATOM      7  C   UNL     1       2.056   8.232  18.731  0.00  0.00    +0.000 A 
ATOM      8  C   UNL     1       1.987   7.550  19.950  0.00  0.00    +0.000 A 
ATOM      9  C   UNL     1       1.215   8.107  20.976  0.00  0.00    +0.000 A 
ATOM     10  C   UNL     1       0.568   9.345  20.801  0.00  0.00    +0.000 A 
BRANCH   5  11
ATOM     11  C   UNL     1       0.090  11.386  19.337  0.00  0.00    +0.000 C 
ATOM     12  O   UNL     1       0.617  12.227  18.626  0.00  0.00    +0.000 OA
BRANCH  11  13
ATOM     13  O   UNL     1      -1.024  11.562  20.092  0.00  0.00    +0.000 OA
BRANCH  13  14
ATOM     14  C   UNL     1      -1.087  12.793  20.824  0.00  0.00    +0.000 C 
BRANCH  14  16
ATOM     15  C   UNL     1      -1.496  11.496  22.923  0.00  0.00    +0.000 C 
ATOM     16  C   UNL     1      -0.672  12.600  22.276  0.00  0.00    +0.000 C 
ENDBRANCH  14  16
ENDBRANCH  13  14
ENDBRANCH  11  13
ENDBRANCH   5  11
ENDBRANCH   1   8
BRANCH   2  17
ATOM     17  C   UNL     1       3.284   4.022  19.908  0.00  0.00    +0.000 A 
ATOM     18  C   UNL     1       4.595   3.723  19.408  0.00  0.00    +0.000 A 
ATOM     19  N   UNL     1       5.019   2.543  19.891  0.00  0.00    +0.000 NA
ATOM     20  O   UNL     1       4.017   2.074  20.707  0.00  0.00    +0.000 OA
ATOM     21  C   UNL     1       2.981   2.951  20.723  0.00  0.00    +0.000 A 
ATOM     22  C   UNL     1       1.808   2.538  21.515  0.00  0.00    +0.000 C 
BRANCH  18  23
ATOM     23  C   UNL     1       5.438   4.518  18.509  0.00  0.00    +0.000 A 
ATOM     24  C   UNL     1       5.255   4.466  17.119  0.00  0.00    +0.000 A 
ATOM     25  C   UNL     1       6.087   5.183  16.258  0.00  0.00    +0.000 A 
ATOM     26  C   UNL     1       7.102   5.982  16.779  0.00  0.00    +0.000 A 
ATOM     27  C   UNL     1       7.277   6.070  18.158  0.00  0.00    +0.000 A 
ATOM     28  C   UNL     1       6.448   5.344  19.021  0.00  0.00    +0.000 A 
ENDBRANCH  18  23
ENDBRANCH   2  17
TORSDOF 7
ENDMDL
MODEL 6
REMARK VINA RESULT:      -8.1      1.175      1.879
REMARK  Name = 
REMARK  9 active torsions:
REMARK  status: ('A' for Active; 'I' for Inactive)
REMARK    1  A    between atoms: C_1  and  C_2
REMARK    2  A    between atoms: C_2  and  C_3
REMARK    3  A    between atoms: C_3  and  O_4
REMARK    4  A    between atoms: O_4  and  C_5
REMARK    5  A    between atoms: C_5  and  C_7
REMARK    6  A    between atoms: C_10  and  N_11
REMARK    7  A    between atoms: C_12  and  C_14
REMARK    8  A    between atoms: C_15  and  C_16
REMARK    9  A    between atoms: C_24  and  C_25
REMARK                            x       y       z     vdW  Elec       q    Type
REMARK                         _______ _______ _______ _____ _____    ______ ____
ROOT
ATOM      1  N   UNL     1       2.712   6.414  20.034  0.00  0.00    +0.000 N 
ATOM      2  C   UNL     1       2.487   5.206  19.380  0.00  0.00    +0.000 C 
ATOM      3  O   UNL     1       1.716   5.055  18.441  0.00  0.00    +0.000 OA
ATOM      4  H   UNL     1       3.495   6.459  20.673  0.00  0.00    +0.000 HD
ENDROOT
BRANCH   1   8
ATOM      5  C   UNL     1       0.814  10.137  19.243  0.00  0.00    +0.000 A 
ATOM      6  C   UNL     1       1.559   9.503  18.247  0.00  0.00    +0.000 A 
ATOM      7  C   UNL     1       2.167   8.268  18.487  0.00  0.00    +0.000 A 
ATOM      8  C   UNL     1       2.062   7.637  19.732  0.00  0.00    +0.000 A 
ATOM      9  C   UNL     1       1.289   8.254  20.722  0.00  0.00    +0.000 A 
ATOM     10  C   UNL     1       0.678   9.500  20.487  0.00  0.00    +0.000 A 
BRANCH   5  11
ATOM     11  C   UNL     1       0.276  11.493  18.936  0.00  0.00    +0.000 C 
ATOM     12  O   UNL     1       0.968  12.424  18.555  0.00  0.00    +0.000 OA
BRANCH  11  13
ATOM     13  O   UNL     1      -1.046  11.551  19.240  0.00  0.00    +0.000 OA
BRANCH  13  14
ATOM     14  C   UNL     1      -1.456  12.696  19.998  0.00  0.00    +0.000 C 
BRANCH  14  16
ATOM     15  C   UNL     1      -0.818  12.365  22.393  0.00  0.00    +0.000 C 
ATOM     16  C   UNL     1      -1.954  12.300  21.382  0.00  0.00    +0.000 C 
ENDBRANCH  14  16
ENDBRANCH  13  14
ENDBRANCH  11  13
ENDBRANCH   5  11
ENDBRANCH   1   8
BRANCH   2  17
ATOM     17  C   UNL     1       3.294   4.087  19.826  0.00  0.00    +0.000 A 
ATOM     18  C   UNL     1       4.614   3.741  19.383  0.00  0.00    +0.000 A 
ATOM     19  N   UNL     1       4.991   2.568  19.917  0.00  0.00    +0.000 NA
ATOM     20  O   UNL     1       3.950   2.149  20.713  0.00  0.00    +0.000 OA
ATOM     21  C   UNL     1       2.936   3.051  20.663  0.00  0.00    +0.000 A 
ATOM     22  C   UNL     1       1.727   2.691  21.426  0.00  0.00    +0.000 C 
BRANCH  18  23
ATOM     23  C   UNL     1       5.506   4.485  18.489  0.00  0.00    +0.000 A 
ATOM     24  C   UNL     1       6.479   5.354  19.004  0.00  0.00    +0.000 A 
ATOM     25  C   UNL     1       7.297   6.101  18.155  0.00  0.00    +0.000 A 
ATOM     26  C   UNL     1       7.167   5.971  16.774  0.00  0.00    +0.000 A 
ATOM     27  C   UNL     1       6.227   5.089  16.246  0.00  0.00    +0.000 A 
ATOM     28  C   UNL     1       5.401   4.347  17.097  0.00  0.00    +0.000 A 
ENDBRANCH  18  23
ENDBRANCH   2  17
TORSDOF 7
ENDMDL
MODEL 7
REMARK VINA RESULT:      -8.0      1.007      2.353
REMARK  Name = 
REMARK  9 active torsions:
REMARK  status: ('A' for Active; 'I' for Inactive)
REMARK    1  A    between atoms: C_1  and  C_2
REMARK    2  A    between atoms: C_2  and  C_3
REMARK    3  A    between atoms: C_3  and  O_4
REMARK    4  A    between atoms: O_4  and  C_5
REMARK    5  A    between atoms: C_5  and  C_7
REMARK    6  A    between atoms: C_10  and  N_11
REMARK    7  A    between atoms: C_12  and  C_14
REMARK    8  A    between atoms: C_15  and  C_16
REMARK    9  A    between atoms: C_24  and  C_25
REMARK                            x       y       z     vdW  Elec       q    Type
REMARK                         _______ _______ _______ _____ _____    ______ ____
ROOT
ATOM      1  N   UNL     1       2.711   6.400  20.081  0.00  0.00    +0.000 N 
ATOM      2  C   UNL     1       2.487   5.202  19.410  0.00  0.00    +0.000 C 
ATOM      3  O   UNL     1       1.710   5.062  18.474  0.00  0.00    +0.000 OA
ATOM      4  H   UNL     1       3.498   6.438  20.715  0.00  0.00    +0.000 HD
ENDROOT
BRANCH   1   8
ATOM      5  C   UNL     1       0.687  10.017  19.130  0.00  0.00    +0.000 A 
ATOM      6  C   UNL     1       0.577   9.466  20.408  0.00  0.00    +0.000 A 
ATOM      7  C   UNL     1       1.256   8.291  20.740  0.00  0.00    +0.000 A 
ATOM      8  C   UNL     1       2.054   7.625  19.802  0.00  0.00    +0.000 A 
ATOM      9  C   UNL     1       2.193   8.192  18.531  0.00  0.00    +0.000 A 
ATOM     10  C   UNL     1       1.507   9.374  18.190  0.00  0.00    +0.000 A 
BRANCH   5  11
ATOM     11  C   UNL     1      -0.143  11.220  18.831  0.00  0.00    +0.000 C 
ATOM     12  O   UNL     1      -1.123  11.200  18.104  0.00  0.00    +0.000 OA
BRANCH  11  13
ATOM     13  O   UNL     1       0.413  12.323  19.393  0.00  0.00    +0.000 OA
BRANCH  13  14
ATOM     14  C   UNL     1       0.279  13.536  18.640  0.00  0.00    +0.000 C 
BRANCH  14  16
ATOM     15  C   UNL     1       2.759  13.295  18.426  0.00  0.00    +0.000 C 
ATOM     16  C   UNL     1       1.603  14.280  18.540  0.00  0.00    +0.000 C 
ENDBRANCH  14  16
ENDBRANCH  13  14
ENDBRANCH  11  13
ENDBRANCH   5  11
ENDBRANCH   1   8
BRANCH   2  17
ATOM     17  C   UNL     1       3.301   4.079  19.833  0.00  0.00    +0.000 A 
ATOM     18  C   UNL     1       4.625   3.754  19.386  0.00  0.00    +0.000 A 
ATOM     19  N   UNL     1       5.011   2.572  19.895  0.00  0.00    +0.000 NA
ATOM     20  O   UNL     1       3.971   2.127  20.677  0.00  0.00    +0.000 OA
ATOM     21  C   UNL     1       2.949   3.021  20.645  0.00  0.00    +0.000 A 
ATOM     22  C   UNL     1       1.741   2.633  21.395  0.00  0.00    +0.000 C 
BRANCH  18  23
ATOM     23  C   UNL     1       5.514   4.526  18.513  0.00  0.00    +0.000 A 
ATOM     24  C   UNL     1       6.486   5.383  19.051  0.00  0.00    +0.000 A 
ATOM     25  C   UNL     1       7.300   6.156  18.222  0.00  0.00    +0.000 A 
ATOM     26  C   UNL     1       7.169   6.065  16.839  0.00  0.00    +0.000 A 
ATOM     27  C   UNL     1       6.230   5.196  16.287  0.00  0.00    +0.000 A 
ATOM     28  C   UNL     1       5.408   4.427  17.118  0.00  0.00    +0.000 A 
ENDBRANCH  18  23
ENDBRANCH   2  17
TORSDOF 7
ENDMDL
MODEL 8
REMARK VINA RESULT:      -8.0      1.193      2.171
REMARK  Name = 
REMARK  9 active torsions:
REMARK  status: ('A' for Active; 'I' for Inactive)
REMARK    1  A    between atoms: C_1  and  C_2
REMARK    2  A    between atoms: C_2  and  C_3
REMARK    3  A    between atoms: C_3  and  O_4
REMARK    4  A    between atoms: O_4  and  C_5
REMARK    5  A    between atoms: C_5  and  C_7
REMARK    6  A    between atoms: C_10  and  N_11
REMARK    7  A    between atoms: C_12  and  C_14
REMARK    8  A    between atoms: C_15  and  C_16
REMARK    9  A    between atoms: C_24  and  C_25
REMARK                            x       y       z     vdW  Elec       q    Type
REMARK                         _______ _______ _______ _____ _____    ______ ____
ROOT
ATOM      1  N   UNL     1       2.680   6.427  20.092  0.00  0.00    +0.000 N 
ATOM      2  C   UNL     1       2.491   5.240  19.390  0.00  0.00    +0.000 C 
ATOM      3  O   UNL     1       1.754   5.114  18.420  0.00  0.00    +0.000 OA
ATOM      4  H   UNL     1       3.440   6.457  20.759  0.00  0.00    +0.000 HD
ENDROOT
BRANCH   1   8
ATOM      5  C   UNL     1       0.774  10.158  19.360  0.00  0.00    +0.000 A 
ATOM      6  C   UNL     1       1.512   9.536  18.351  0.00  0.00    +0.000 A 
ATOM      7  C   UNL     1       2.123   8.298  18.572  0.00  0.00    +0.000 A 
ATOM      8  C   UNL     1       2.027   7.653  19.809  0.00  0.00    +0.000 A 
ATOM      9  C   UNL     1       1.261   8.257  20.812  0.00  0.00    +0.000 A 
ATOM     10  C   UNL     1       0.647   9.506  20.597  0.00  0.00    +0.000 A 
BRANCH   5  11
ATOM     11  C   UNL     1       0.233  11.517  19.074  0.00  0.00    +0.000 C 
ATOM     12  O   UNL     1      -0.671  11.731  18.282  0.00  0.00    +0.000 OA
BRANCH  11  13
ATOM     13  O   UNL     1       0.957  12.457  19.734  0.00  0.00    +0.000 OA
BRANCH  13  14
ATOM     14  C   UNL     1       1.311  13.616  18.968  0.00  0.00    +0.000 C 
BRANCH  14  16
ATOM     15  C   UNL     1       3.261  14.775  17.916  0.00  0.00    +0.000 C 
ATOM     16  C   UNL     1       2.640  13.426  18.250  0.00  0.00    +0.000 C 
ENDBRANCH  14  16
ENDBRANCH  13  14
ENDBRANCH  11  13
ENDBRANCH   5  11
ENDBRANCH   1   8
BRANCH   2  17
ATOM     17  C   UNL     1       3.294   4.114  19.825  0.00  0.00    +0.000 A 
ATOM     18  C   UNL     1       4.598   3.747  19.352  0.00  0.00    +0.000 A 
ATOM     19  N   UNL     1       4.974   2.573  19.887  0.00  0.00    +0.000 NA
ATOM     20  O   UNL     1       3.948   2.174  20.711  0.00  0.00    +0.000 OA
ATOM     21  C   UNL     1       2.944   3.089  20.679  0.00  0.00    +0.000 A 
ATOM     22  C   UNL     1       1.749   2.750  21.474  0.00  0.00    +0.000 C 
BRANCH  18  23
ATOM     23  C   UNL     1       5.477   4.473  18.430  0.00  0.00    +0.000 A 
ATOM     24  C   UNL     1       5.391   4.272  17.045  0.00  0.00    +0.000 A 
ATOM     25  C   UNL     1       6.260   4.924  16.169  0.00  0.00    +0.000 A 
ATOM     26  C   UNL     1       7.214   5.808  16.667  0.00  0.00    +0.000 A 
ATOM     27  C   UNL     1       7.292   6.044  18.038  0.00  0.00    +0.000 A 
ATOM     28  C   UNL     1       6.427   5.383  18.917  0.00  0.00    +0.000 A 
ENDBRANCH  18  23
ENDBRANCH   2  17
TORSDOF 7
ENDMDL
MODEL 9
REMARK VINA RESULT:      -7.9      1.207      2.186
REMARK  Name = 
REMARK  9 active torsions:
REMARK  status: ('A' for Active; 'I' for Inactive)
REMARK    1  A    between atoms: C_1  and  C_2
REMARK    2  A    between atoms: C_2  and  C_3
REMARK    3  A    between atoms: C_3  and  O_4
REMARK    4  A    between atoms: O_4  and  C_5
REMARK    5  A    between atoms: C_5  and  C_7
REMARK    6  A    between atoms: C_10  and  N_11
REMARK    7  A    between atoms: C_12  and  C_14
REMARK    8  A    between atoms: C_15  and  C_16
REMARK    9  A    between atoms: C_24  and  C_25
REMARK                            x       y       z     vdW  Elec       q    Type
REMARK                         _______ _______ _______ _____ _____    ______ ____
ROOT
ATOM      1  N   UNL     1       2.719   6.534  20.018  0.00  0.00    +0.000 N 
ATOM      2  C   UNL     1       2.508   5.354  19.311  0.00  0.00    +0.000 C 
ATOM      3  O   UNL     1       1.719   5.231  18.383  0.00  0.00    +0.000 OA
ATOM      4  H   UNL     1       3.516   6.566  20.642  0.00  0.00    +0.000 HD
ENDROOT
BRANCH   1   8
ATOM      5  C   UNL     1       0.606  10.138  19.225  0.00  0.00    +0.000 A 
ATOM      6  C   UNL     1       0.544   9.552  20.491  0.00  0.00    +0.000 A 
ATOM      7  C   UNL     1       1.253   8.380  20.771  0.00  0.00    +0.000 A 
ATOM      8  C   UNL     1       2.033   7.753  19.792  0.00  0.00    +0.000 A 
ATOM      9  C   UNL     1       2.124   8.356  18.533  0.00  0.00    +0.000 A 
ATOM     10  C   UNL     1       1.408   9.534  18.244  0.00  0.00    +0.000 A 
BRANCH   5  11
ATOM     11  C   UNL     1      -0.252  11.333  18.983  0.00  0.00    +0.000 C 
ATOM     12  O   UNL     1       0.146  12.351  18.440  0.00  0.00    +0.000 OA
BRANCH  11  13
ATOM     13  O   UNL     1      -1.476  11.150  19.540  0.00  0.00    +0.000 OA
BRANCH  13  14
ATOM     14  C   UNL     1      -2.000  12.272  20.263  0.00  0.00    +0.000 C 
BRANCH  14  16
ATOM     15  C   UNL     1      -0.699  13.099  22.232  0.00  0.00    +0.000 C 
ATOM     16  C   UNL     1      -1.771  12.127  21.761  0.00  0.00    +0.000 C 
ENDBRANCH  14  16
ENDBRANCH  13  14
ENDBRANCH  11  13
ENDBRANCH   5  11
ENDBRANCH   1   8
BRANCH   2  17
ATOM     17  C   UNL     1       3.352   4.235  19.682  0.00  0.00    +0.000 A 
ATOM     18  C   UNL     1       4.727   4.034  19.327  0.00  0.00    +0.000 A 
ATOM     19  N   UNL     1       5.141   2.823  19.738  0.00  0.00    +0.000 NA
ATOM     20  O   UNL     1       4.067   2.237  20.366  0.00  0.00    +0.000 OA
ATOM     21  C   UNL     1       2.998   3.074  20.337  0.00  0.00    +0.000 A 
ATOM     22  C   UNL     1       1.756   2.540  20.925  0.00  0.00    +0.000 C 
BRANCH  18  23
ATOM     23  C   UNL     1       5.638   4.946  18.630  0.00  0.00    +0.000 A 
ATOM     24  C   UNL     1       6.806   5.412  19.252  0.00  0.00    +0.000 A 
ATOM     25  C   UNL     1       7.649   6.319  18.609  0.00  0.00    +0.000 A 
ATOM     26  C   UNL     1       7.347   6.756  17.322  0.00  0.00    +0.000 A 
ATOM     27  C   UNL     1       6.208   6.279  16.677  0.00  0.00    +0.000 A 
ATOM     28  C   UNL     1       5.358   5.377  17.325  0.00  0.00    +0.000 A 
ENDBRANCH  18  23
ENDBRANCH   2  17
TORSDOF 7
ENDMDL
