MODEL 1
REMARK VINA RESULT:      -6.1      0.000      0.000
REMARK  Name = 
REMARK  5 active torsions:
REMARK  status: ('A' for Active; 'I' for Inactive)
REMARK    1  A    between atoms: C_1  and  S_2
REMARK    2  A    between atoms: S_2  and  C_3
REMARK    3  A    between atoms: C_5  and  C_6
REMARK    4  A    between atoms: C_11  and  C_12
REMARK    5  A    between atoms: N_16  and  C_17
REMARK                            x       y       z     vdW  Elec       q    Type
REMARK                         _______ _______ _______ _____ _____    ______ ____
ROOT
ATOM      1  C   UNL     1       2.781   4.639  19.424  0.00  0.00    +0.000 A 
ATOM      2  N   UNL     1       3.891   5.286  19.311  0.00  0.00    +0.000 NA
ATOM      3  C   UNL     1       4.610   5.127  18.156  0.00  0.00    +0.000 A 
ATOM      4  C   UNL     1       4.280   4.319  17.140  0.00  0.00    +0.000 A 
ATOM      5  C   UNL     1       3.013   3.571  17.285  0.00  0.00    +0.000 A 
ATOM      6  O   UNL     1       2.652   2.803  16.396  0.00  0.00    +0.000 OA
ATOM      7  N   UNL     1       2.288   3.789  18.449  0.00  0.00    +0.000 N 
ATOM      8  C   UNL     1       1.016   3.085  18.587  0.00  0.00    +0.000 C 
ENDROOT
BRANCH   3   9
ATOM      9  C   UNL     1       5.801   5.912  18.120  0.00  0.00    +0.000 A 
ATOM     10  C   UNL     1       6.112   6.988  17.306  0.00  0.00    +0.000 A 
ATOM     11  C   UNL     1       7.424   7.495  17.537  0.00  0.00    +0.000 A 
ATOM     12  C   UNL     1       8.077   6.798  18.527  0.00  0.00    +0.000 A 
ATOM     13  S   UNL     1       7.114   5.543  19.172  0.00  0.00    +0.000 S 
ENDBRANCH   3   9
BRANCH   1  15
ATOM     14  C   UNL     1       2.219   3.300  21.784  0.00  0.00    +0.000 C 
ATOM     15  S   UNL     1       1.838   4.824  20.895  0.00  0.00    +0.000 S 
ENDBRANCH   1  15
BRANCH   4  16
ATOM     16  C   UNL     1       5.059   4.145  15.963  0.00  0.00    +0.000 C 
ATOM     17  N   UNL     1       5.711   3.983  15.018  0.00  0.00    +0.000 NA
ENDBRANCH   4  16
TORSDOF 3
ENDMDL
MODEL 2
REMARK VINA RESULT:      -6.0      0.779      1.010
REMARK  Name = 
REMARK  5 active torsions:
REMARK  status: ('A' for Active; 'I' for Inactive)
REMARK    1  A    between atoms: C_1  and  S_2
REMARK    2  A    between atoms: S_2  and  C_3
REMARK    3  A    between atoms: C_5  and  C_6
REMARK    4  A    between atoms: C_11  and  C_12
REMARK    5  A    between atoms: N_16  and  C_17
REMARK                            x       y       z     vdW  Elec       q    Type
REMARK                         _______ _______ _______ _____ _____    ______ ____
ROOT
ATOM      1  C   UNL     1       2.799   4.567  19.481  0.00  0.00    +0.000 A 
ATOM      2  N   UNL     1       3.937   5.167  19.395  0.00  0.00    +0.000 NA
ATOM      3  C   UNL     1       4.670   4.990  18.252  0.00  0.00    +0.000 A 
ATOM      4  C   UNL     1       4.324   4.209  17.220  0.00  0.00    +0.000 A 
ATOM      5  C   UNL     1       3.023   3.515  17.334  0.00  0.00    +0.000 A 
ATOM      6  O   UNL     1       2.646   2.773  16.430  0.00  0.00    +0.000 OA
ATOM      7  N   UNL     1       2.287   3.751  18.487  0.00  0.00    +0.000 N 
ATOM      8  C   UNL     1       0.983   3.101  18.594  0.00  0.00    +0.000 C 
ENDROOT
BRANCH   3   9
ATOM      9  C   UNL     1       5.894   5.723  18.246  0.00  0.00    +0.000 A 
ATOM     10  C   UNL     1       7.022   5.543  19.029  0.00  0.00    +0.000 A 
ATOM     11  C   UNL     1       8.040   6.504  18.760  0.00  0.00    +0.000 A 
ATOM     12  C   UNL     1       7.665   7.387  17.774  0.00  0.00    +0.000 A 
ATOM     13  S   UNL     1       6.098   7.059  17.178  0.00  0.00    +0.000 S 
ENDBRANCH   3   9
BRANCH   1  15
ATOM     14  C   UNL     1       2.183   3.252  21.841  0.00  0.00    +0.000 C 
ATOM     15  S   UNL     1       1.838   4.777  20.938  0.00  0.00    +0.000 S 
ENDBRANCH   1  15
BRANCH   4  16
ATOM     16  C   UNL     1       5.115   4.015  16.055  0.00  0.00    +0.000 C 
ATOM     17  N   UNL     1       5.739   3.872  15.089  0.00  0.00    +0.000 NA
ENDBRANCH   4  16
TORSDOF 3
ENDMDL
MODEL 3
REMARK VINA RESULT:      -5.9      0.791      1.026
REMARK  Name = 
REMARK  5 active torsions:
REMARK  status: ('A' for Active; 'I' for Inactive)
REMARK    1  A    between atoms: C_1  and  S_2
REMARK    2  A    between atoms: S_2  and  C_3
REMARK    3  A    between atoms: C_5  and  C_6
REMARK    4  A    between atoms: C_11  and  C_12
REMARK    5  A    between atoms: N_16  and  C_17
REMARK                            x       y       z     vdW  Elec       q    Type
REMARK                         _______ _______ _______ _____ _____    ______ ____
ROOT
ATOM      1  C   UNL     1       2.701   4.970  19.414  0.00  0.00    +0.000 A 
ATOM      2  N   UNL     1       3.831   5.578  19.280  0.00  0.00    +0.000 NA
ATOM      3  C   UNL     1       4.617   5.240  18.211  0.00  0.00    +0.000 A 
ATOM      4  C   UNL     1       4.332   4.297  17.303  0.00  0.00    +0.000 A 
ATOM      5  C   UNL     1       3.040   3.597  17.473  0.00  0.00    +0.000 A 
ATOM      6  O   UNL     1       2.717   2.712  16.683  0.00  0.00    +0.000 OA
ATOM      7  N   UNL     1       2.249   3.994  18.542  0.00  0.00    +0.000 N 
ATOM      8  C   UNL     1       0.954   3.337  18.698  0.00  0.00    +0.000 C 
ENDROOT
BRANCH   3   9
ATOM      9  C   UNL     1       5.827   5.994  18.139  0.00  0.00    +0.000 A 
ATOM     10  C   UNL     1       6.152   7.041  17.294  0.00  0.00    +0.000 A 
ATOM     11  C   UNL     1       7.480   7.520  17.494  0.00  0.00    +0.000 A 
ATOM     12  C   UNL     1       8.130   6.831  18.491  0.00  0.00    +0.000 A 
ATOM     13  S   UNL     1       7.145   5.616  19.181  0.00  0.00    +0.000 S 
ENDBRANCH   3   9
BRANCH   1  15
ATOM     14  C   UNL     1       1.621   7.185  20.680  0.00  0.00    +0.000 C 
ATOM     15  S   UNL     1       1.673   5.384  20.778  0.00  0.00    +0.000 S 
ENDBRANCH   1  15
BRANCH   4  16
ATOM     16  C   UNL     1       5.177   3.940  16.218  0.00  0.00    +0.000 C 
ATOM     17  N   UNL     1       5.847   3.662  15.313  0.00  0.00    +0.000 NA
ENDBRANCH   4  16
TORSDOF 3
ENDMDL
MODEL 4
REMARK VINA RESULT:      -5.8      1.102      1.423
REMARK  Name = 
REMARK  5 active torsions:
REMARK  status: ('A' for Active; 'I' for Inactive)
REMARK    1  A    between atoms: C_1  and  S_2
REMARK    2  A    between atoms: S_2  and  C_3
REMARK    3  A    between atoms: C_5  and  C_6
REMARK    4  A    between atoms: C_11  and  C_12
REMARK    5  A    between atoms: N_16  and  C_17
REMARK                            x       y       z     vdW  Elec       q    Type
REMARK                         _______ _______ _______ _____ _____    ______ ____
ROOT
ATOM      1  C   UNL     1       2.707   4.872  19.471  0.00  0.00    +0.000 A 
ATOM      2  N   UNL     1       3.858   5.444  19.353  0.00  0.00    +0.000 NA
ATOM      3  C   UNL     1       4.640   5.095  18.285  0.00  0.00    +0.000 A 
ATOM      4  C   UNL     1       4.329   4.174  17.362  0.00  0.00    +0.000 A 
ATOM      5  C   UNL     1       3.014   3.516  17.514  0.00  0.00    +0.000 A 
ATOM      6  O   UNL     1       2.667   2.652  16.710  0.00  0.00    +0.000 OA
ATOM      7  N   UNL     1       2.230   3.924  18.583  0.00  0.00    +0.000 N 
ATOM      8  C   UNL     1       0.912   3.308  18.722  0.00  0.00    +0.000 C 
ENDROOT
BRANCH   3   9
ATOM      9  C   UNL     1       5.874   5.808  18.231  0.00  0.00    +0.000 A 
ATOM     10  C   UNL     1       7.016   5.634  18.994  0.00  0.00    +0.000 A 
ATOM     11  C   UNL     1       8.042   6.571  18.675  0.00  0.00    +0.000 A 
ATOM     12  C   UNL     1       7.659   7.430  17.671  0.00  0.00    +0.000 A 
ATOM     13  S   UNL     1       6.075   7.108  17.118  0.00  0.00    +0.000 S 
ENDBRANCH   3   9
BRANCH   1  15
ATOM     14  C   UNL     1       1.630   7.102  20.715  0.00  0.00    +0.000 C 
ATOM     15  S   UNL     1       1.684   5.301  20.834  0.00  0.00    +0.000 S 
ENDBRANCH   1  15
BRANCH   4  16
ATOM     16  C   UNL     1       5.170   3.804  16.278  0.00  0.00    +0.000 C 
ATOM     17  N   UNL     1       5.877   3.524  15.402  0.00  0.00    +0.000 NA
ENDBRANCH   4  16
TORSDOF 3
ENDMDL
MODEL 5
REMARK VINA RESULT:      -5.5      2.715      3.485
REMARK  Name = 
REMARK  5 active torsions:
REMARK  status: ('A' for Active; 'I' for Inactive)
REMARK    1  A    between atoms: C_1  and  S_2
REMARK    2  A    between atoms: S_2  and  C_3
REMARK    3  A    between atoms: C_5  and  C_6
REMARK    4  A    between atoms: C_11  and  C_12
REMARK    5  A    between atoms: N_16  and  C_17
REMARK                            x       y       z     vdW  Elec       q    Type
REMARK                         _______ _______ _______ _____ _____    ______ ____
ROOT
ATOM      1  C   UNL     1       2.144   3.712  18.849  0.00  0.00    +0.000 A 
ATOM      2  N   UNL     1       1.881   4.972  18.934  0.00  0.00    +0.000 NA
ATOM      3  C   UNL     1       2.747   5.849  18.338  0.00  0.00    +0.000 A 
ATOM      4  C   UNL     1       3.877   5.513  17.701  0.00  0.00    +0.000 A 
ATOM      5  C   UNL     1       4.177   4.067  17.621  0.00  0.00    +0.000 A 
ATOM      6  O   UNL     1       5.202   3.687  17.060  0.00  0.00    +0.000 OA
ATOM      7  N   UNL     1       3.255   3.205  18.198  0.00  0.00    +0.000 N 
ATOM      8  C   UNL     1       3.521   1.772  18.092  0.00  0.00    +0.000 C 
ENDROOT
BRANCH   3   9
ATOM      9  C   UNL     1       2.346   7.212  18.462  0.00  0.00    +0.000 A 
ATOM     10  C   UNL     1       2.307   8.202  17.494  0.00  0.00    +0.000 A 
ATOM     11  C   UNL     1       1.884   9.462  18.009  0.00  0.00    +0.000 A 
ATOM     12  C   UNL     1       1.602   9.399  19.354  0.00  0.00    +0.000 A 
ATOM     13  S   UNL     1       1.846   7.832  19.990  0.00  0.00    +0.000 S 
ENDBRANCH   3   9
BRANCH   1  15
ATOM     14  C   UNL     1       1.459   2.748  21.355  0.00  0.00    +0.000 C 
ATOM     15  S   UNL     1       1.049   2.565  19.606  0.00  0.00    +0.000 S 
ENDBRANCH   1  15
BRANCH   4  16
ATOM     16  C   UNL     1       4.779   6.443  17.116  0.00  0.00    +0.000 C 
ATOM     17  N   UNL     1       5.494   7.206  16.616  0.00  0.00    +0.000 NA
ENDBRANCH   4  16
TORSDOF 3
ENDMDL
MODEL 6
REMARK VINA RESULT:      -5.5      1.533      5.048
REMARK  Name = 
REMARK  5 active torsions:
REMARK  status: ('A' for Active; 'I' for Inactive)
REMARK    1  A    between atoms: C_1  and  S_2
REMARK    2  A    between atoms: S_2  and  C_3
REMARK    3  A    between atoms: C_5  and  C_6
REMARK    4  A    between atoms: C_11  and  C_12
REMARK    5  A    between atoms: N_16  and  C_17
REMARK                            x       y       z     vdW  Elec       q    Type
REMARK                         _______ _______ _______ _____ _____    ______ ____
ROOT
ATOM      1  C   UNL     1       6.552   5.049  18.414  0.00  0.00    +0.000 A 
ATOM      2  N   UNL     1       5.678   4.717  19.303  0.00  0.00    +0.000 NA
ATOM      3  C   UNL     1       4.540   4.086  18.877  0.00  0.00    +0.000 A 
ATOM      4  C   UNL     1       4.231   3.816  17.602  0.00  0.00    +0.000 A 
ATOM      5  C   UNL     1       5.233   4.214  16.590  0.00  0.00    +0.000 A 
ATOM      6  O   UNL     1       5.012   4.007  15.398  0.00  0.00    +0.000 OA
ATOM      7  N   UNL     1       6.394   4.811  17.060  0.00  0.00    +0.000 N 
ATOM      8  C   UNL     1       7.408   5.174  16.072  0.00  0.00    +0.000 C 
ENDROOT
BRANCH   3   9
ATOM      9  C   UNL     1       3.658   3.733  19.942  0.00  0.00    +0.000 A 
ATOM     10  C   UNL     1       3.577   2.545  20.650  0.00  0.00    +0.000 A 
ATOM     11  C   UNL     1       2.535   2.552  21.623  0.00  0.00    +0.000 A 
ATOM     12  C   UNL     1       1.854   3.747  21.638  0.00  0.00    +0.000 A 
ATOM     13  S   UNL     1       2.468   4.852  20.488  0.00  0.00    +0.000 S 
ENDBRANCH   3   9
BRANCH   1  15
ATOM     14  C   UNL     1       7.851   7.483  18.162  0.00  0.00    +0.000 C 
ATOM     15  S   UNL     1       8.022   5.860  18.933  0.00  0.00    +0.000 S 
ENDBRANCH   1  15
BRANCH   4  16
ATOM     16  C   UNL     1       3.028   3.189  17.179  0.00  0.00    +0.000 C 
ATOM     17  N   UNL     1       2.031   2.703  16.841  0.00  0.00    +0.000 NA
ENDBRANCH   4  16
TORSDOF 3
ENDMDL
MODEL 7
REMARK VINA RESULT:      -5.4      1.609      4.921
REMARK  Name = 
REMARK  5 active torsions:
REMARK  status: ('A' for Active; 'I' for Inactive)
REMARK    1  A    between atoms: C_1  and  S_2
REMARK    2  A    between atoms: S_2  and  C_3
REMARK    3  A    between atoms: C_5  and  C_6
REMARK    4  A    between atoms: C_11  and  C_12
REMARK    5  A    between atoms: N_16  and  C_17
REMARK                            x       y       z     vdW  Elec       q    Type
REMARK                         _______ _______ _______ _____ _____    ______ ____
ROOT
ATOM      1  C   UNL     1       6.462   5.373  18.213  0.00  0.00    +0.000 A 
ATOM      2  N   UNL     1       5.556   5.139  19.101  0.00  0.00    +0.000 NA
ATOM      3  C   UNL     1       4.459   4.415  18.720  0.00  0.00    +0.000 A 
ATOM      4  C   UNL     1       4.220   3.957  17.483  0.00  0.00    +0.000 A 
ATOM      5  C   UNL     1       5.258   4.242  16.470  0.00  0.00    +0.000 A 
ATOM      6  O   UNL     1       5.101   3.862  15.312  0.00  0.00    +0.000 OA
ATOM      7  N   UNL     1       6.377   4.941  16.901  0.00  0.00    +0.000 N 
ATOM      8  C   UNL     1       7.427   5.196  15.917  0.00  0.00    +0.000 C 
ENDROOT
BRANCH   3   9
ATOM      9  C   UNL     1       3.536   4.184  19.784  0.00  0.00    +0.000 A 
ATOM     10  C   UNL     1       2.608   5.051  20.337  0.00  0.00    +0.000 A 
ATOM     11  C   UNL     1       1.887   4.469  21.420  0.00  0.00    +0.000 A 
ATOM     12  C   UNL     1       2.278   3.172  21.661  0.00  0.00    +0.000 A 
ATOM     13  S   UNL     1       3.504   2.661  20.587  0.00  0.00    +0.000 S 
ENDBRANCH   3   9
BRANCH   1  15
ATOM     14  C   UNL     1       7.628   7.850  17.785  0.00  0.00    +0.000 C 
ATOM     15  S   UNL     1       7.882   6.300  18.675  0.00  0.00    +0.000 S 
ENDBRANCH   1  15
BRANCH   4  16
ATOM     16  C   UNL     1       3.057   3.234  17.102  0.00  0.00    +0.000 C 
ATOM     17  N   UNL     1       2.091   2.666  16.804  0.00  0.00    +0.000 NA
ENDBRANCH   4  16
TORSDOF 3
ENDMDL
MODEL 8
REMARK VINA RESULT:      -5.3      2.554      5.536
REMARK  Name = 
REMARK  5 active torsions:
REMARK  status: ('A' for Active; 'I' for Inactive)
REMARK    1  A    between atoms: C_1  and  S_2
REMARK    2  A    between atoms: S_2  and  C_3
REMARK    3  A    between atoms: C_5  and  C_6
REMARK    4  A    between atoms: C_11  and  C_12
REMARK    5  A    between atoms: N_16  and  C_17
REMARK                            x       y       z     vdW  Elec       q    Type
REMARK                         _______ _______ _______ _____ _____    ______ ____
ROOT
ATOM      1  C   UNL     1       4.552   4.857  17.023  0.00  0.00    +0.000 A 
ATOM      2  N   UNL     1       4.004   4.163  17.962  0.00  0.00    +0.000 NA
ATOM      3  C   UNL     1       3.213   4.820  18.866  0.00  0.00    +0.000 A 
ATOM      4  C   UNL     1       2.985   6.140  18.885  0.00  0.00    +0.000 A 
ATOM      5  C   UNL     1       3.628   6.929  17.811  0.00  0.00    +0.000 A 
ATOM      6  O   UNL     1       3.473   8.148  17.772  0.00  0.00    +0.000 OA
ATOM      7  N   UNL     1       4.388   6.225  16.888  0.00  0.00    +0.000 N 
ATOM      8  C   UNL     1       4.998   6.988  15.801  0.00  0.00    +0.000 C 
ENDROOT
BRANCH   3   9
ATOM      9  C   UNL     1       2.630   3.956  19.840  0.00  0.00    +0.000 A 
ATOM     10  C   UNL     1       1.315   3.884  20.267  0.00  0.00    +0.000 A 
ATOM     11  C   UNL     1       1.120   2.913  21.293  0.00  0.00    +0.000 A 
ATOM     12  C   UNL     1       2.289   2.265  21.616  0.00  0.00    +0.000 A 
ATOM     13  S   UNL     1       3.611   2.822  20.688  0.00  0.00    +0.000 S 
ENDBRANCH   3   9
BRANCH   1  15
ATOM     14  C   UNL     1       7.227   4.371  16.492  0.00  0.00    +0.000 C 
ATOM     15  S   UNL     1       5.573   4.039  15.850  0.00  0.00    +0.000 S 
ENDBRANCH   1  15
BRANCH   4  16
ATOM     16  C   UNL     1       2.184   6.807  19.851  0.00  0.00    +0.000 C 
ATOM     17  N   UNL     1       1.527   7.373  20.620  0.00  0.00    +0.000 NA
ENDBRANCH   4  16
TORSDOF 3
ENDMDL
MODEL 9
REMARK VINA RESULT:      -5.2      2.834      3.776
REMARK  Name = 
REMARK  5 active torsions:
REMARK  status: ('A' for Active; 'I' for Inactive)
REMARK    1  A    between atoms: C_1  and  S_2
REMARK    2  A    between atoms: S_2  and  C_3
REMARK    3  A    between atoms: C_5  and  C_6
REMARK    4  A    between atoms: C_11  and  C_12
REMARK    5  A    between atoms: N_16  and  C_17
REMARK                            x       y       z     vdW  Elec       q    Type
REMARK                         _______ _______ _______ _____ _____    ______ ____
ROOT
ATOM      1  C   UNL     1       2.627   3.918  19.793  0.00  0.00    +0.000 A 
ATOM      2  N   UNL     1       2.223   5.123  19.573  0.00  0.00    +0.000 NA
ATOM      3  C   UNL     1       3.087   5.986  18.954  0.00  0.00    +0.000 A 
ATOM      4  C   UNL     1       4.344   5.698  18.588  0.00  0.00    +0.000 A 
ATOM      5  C   UNL     1       4.802   4.318  18.857  0.00  0.00    +0.000 A 
ATOM      6  O   UNL     1       5.947   3.985  18.558  0.00  0.00    +0.000 OA
ATOM      7  N   UNL     1       3.885   3.458  19.446  0.00  0.00    +0.000 N 
ATOM      8  C   UNL     1       4.314   2.081  19.682  0.00  0.00    +0.000 C 
ENDROOT
BRANCH   3   9
ATOM      9  C   UNL     1       2.530   7.280  18.729  0.00  0.00    +0.000 A 
ATOM     10  C   UNL     1       2.516   8.033  17.567  0.00  0.00    +0.000 A 
ATOM     11  C   UNL     1       1.896   9.305  17.741  0.00  0.00    +0.000 A 
ATOM     12  C   UNL     1       1.446   9.485  19.028  0.00  0.00    +0.000 A 
ATOM     13  S   UNL     1       1.769   8.131  20.018  0.00  0.00    +0.000 S 
ENDBRANCH   3   9
BRANCH   1  15
ATOM     14  C   UNL     1       0.626   2.099  19.191  0.00  0.00    +0.000 C 
ATOM     15  S   UNL     1       1.537   2.791  20.587  0.00  0.00    +0.000 S 
ENDBRANCH   1  15
BRANCH   4  16
ATOM     16  C   UNL     1       5.236   6.619  17.975  0.00  0.00    +0.000 C 
ATOM     17  N   UNL     1       5.983   7.366  17.498  0.00  0.00    +0.000 NA
ENDBRANCH   4  16
TORSDOF 3
ENDMDL
