MODEL 1
REMARK VINA RESULT:      -6.7      0.000      0.000
REMARK  Name = 
REMARK  3 active torsions:
REMARK  status: ('A' for Active; 'I' for Inactive)
REMARK    1  A    between atoms: C_1  and  N_2
REMARK    2  A    between atoms: C_5  and  N_6
REMARK    3  A    between atoms: N_9  and  C_10
REMARK                            x       y       z     vdW  Elec       q    Type
REMARK                         _______ _______ _______ _____ _____    ______ ____
ROOT
ATOM      1  C   UNL     1       7.081   4.450  13.298  0.00  0.00    +0.000 C 
ATOM      2  N   UNL     1       6.148   3.882  14.260  0.00  0.00    +0.000 N 
ATOM      3  C   UNL     1       6.120   4.592  15.481  0.00  0.00    +0.000 A 
ATOM      4  C   UNL     1       5.260   4.167  16.474  0.00  0.00    +0.000 A 
ATOM      5  C   UNL     1       5.238   4.869  17.666  0.00  0.00    +0.000 A 
ATOM      6  N   UNL     1       6.048   5.928  17.826  0.00  0.00    +0.000 NA
ATOM      7  C   UNL     1       6.876   6.247  16.835  0.00  0.00    +0.000 A 
ATOM      8  N   UNL     1       7.768   7.282  17.044  0.00  0.00    +0.000 N 
ATOM      9  N   UNL     1       6.919   5.648  15.655  0.00  0.00    +0.000 NA
ATOM     10  H   UNL     1       6.364   2.909  14.464  0.00  0.00    +0.000 HD
ATOM     11  H   UNL     1       7.404   7.904  17.747  0.00  0.00    +0.000 HD
ATOM     12  H   UNL     1       8.044   7.669  16.154  0.00  0.00    +0.000 HD
ENDROOT
BRANCH   5  13
ATOM     13  N   UNL     1       4.476   4.491  18.739  0.00  0.00    +0.000 N 
ATOM     14  C   UNL     1       4.686   3.161  19.328  0.00  0.00    +0.000 C 
ATOM     15  C   UNL     1       3.345   2.562  19.811  0.00  0.00    +0.000 C 
ATOM     16  N   UNL     1       2.605   3.476  20.715  0.00  0.00    +0.000 NA
ATOM     17  C   UNL     1       1.329   2.884  21.109  0.00  0.00    +0.000 C 
ATOM     18  C   UNL     1       2.387   4.762  20.017  0.00  0.00    +0.000 C 
ATOM     19  C   UNL     1       3.708   5.424  19.564  0.00  0.00    +0.000 C 
ENDBRANCH   5  13
TORSDOF 1
ENDMDL
MODEL 2
REMARK VINA RESULT:      -6.6      0.679      1.396
REMARK  Name = 
REMARK  3 active torsions:
REMARK  status: ('A' for Active; 'I' for Inactive)
REMARK    1  A    between atoms: C_1  and  N_2
REMARK    2  A    between atoms: C_5  and  N_6
REMARK    3  A    between atoms: N_9  and  C_10
REMARK                            x       y       z     vdW  Elec       q    Type
REMARK                         _______ _______ _______ _____ _____    ______ ____
ROOT
ATOM      1  C   UNL     1       7.574   4.906  13.149  0.00  0.00    +0.000 C 
ATOM      2  N   UNL     1       6.505   4.235  13.877  0.00  0.00    +0.000 N 
ATOM      3  C   UNL     1       6.264   4.808  15.145  0.00  0.00    +0.000 A 
ATOM      4  C   UNL     1       5.261   4.277  15.931  0.00  0.00    +0.000 A 
ATOM      5  C   UNL     1       5.030   4.845  17.171  0.00  0.00    +0.000 A 
ATOM      6  N   UNL     1       5.783   5.881  17.576  0.00  0.00    +0.000 NA
ATOM      7  C   UNL     1       6.757   6.306  16.776  0.00  0.00    +0.000 A 
ATOM      8  N   UNL     1       7.583   7.312  17.240  0.00  0.00    +0.000 N 
ATOM      9  N   UNL     1       7.004   5.839  15.562  0.00  0.00    +0.000 NA
ATOM     10  H   UNL     1       6.703   3.246  14.008  0.00  0.00    +0.000 HD
ATOM     11  H   UNL     1       7.098   7.854  17.935  0.00  0.00    +0.000 HD
ATOM     12  H   UNL     1       7.995   7.794  16.454  0.00  0.00    +0.000 HD
ENDROOT
BRANCH   5  13
ATOM     13  N   UNL     1       4.109   4.352  18.056  0.00  0.00    +0.000 N 
ATOM     14  C   UNL     1       3.064   5.250  18.570  0.00  0.00    +0.000 C 
ATOM     15  C   UNL     1       2.741   4.920  20.045  0.00  0.00    +0.000 C 
ATOM     16  N   UNL     1       2.415   3.488  20.251  0.00  0.00    +0.000 NA
ATOM     17  C   UNL     1       2.159   3.218  21.663  0.00  0.00    +0.000 C 
ATOM     18  C   UNL     1       3.545   2.667  19.763  0.00  0.00    +0.000 C 
ATOM     19  C   UNL     1       3.867   2.927  18.273  0.00  0.00    +0.000 C 
ENDBRANCH   5  13
TORSDOF 1
ENDMDL
MODEL 3
REMARK VINA RESULT:      -6.5      1.261      1.702
REMARK  Name = 
REMARK  3 active torsions:
REMARK  status: ('A' for Active; 'I' for Inactive)
REMARK    1  A    between atoms: C_1  and  N_2
REMARK    2  A    between atoms: C_5  and  N_6
REMARK    3  A    between atoms: N_9  and  C_10
REMARK                            x       y       z     vdW  Elec       q    Type
REMARK                         _______ _______ _______ _____ _____    ______ ____
ROOT
ATOM      1  C   UNL     1       7.424   4.838  13.653  0.00  0.00    +0.000 C 
ATOM      2  N   UNL     1       6.102   4.590  14.212  0.00  0.00    +0.000 N 
ATOM      3  C   UNL     1       6.110   4.516  15.622  0.00  0.00    +0.000 A 
ATOM      4  C   UNL     1       4.915   4.303  16.280  0.00  0.00    +0.000 A 
ATOM      5  C   UNL     1       4.932   4.233  17.662  0.00  0.00    +0.000 A 
ATOM      6  N   UNL     1       6.096   4.365  18.318  0.00  0.00    +0.000 NA
ATOM      7  C   UNL     1       7.209   4.526  17.607  0.00  0.00    +0.000 A 
ATOM      8  N   UNL     1       8.411   4.570  18.287  0.00  0.00    +0.000 N 
ATOM      9  N   UNL     1       7.260   4.646  16.289  0.00  0.00    +0.000 NA
ATOM     10  H   UNL     1       5.697   3.730  13.851  0.00  0.00    +0.000 HD
ATOM     11  H   UNL     1       8.253   4.876  19.232  0.00  0.00    +0.000 HD
ATOM     12  H   UNL     1       9.092   5.062  17.728  0.00  0.00    +0.000 HD
ENDROOT
BRANCH   5  13
ATOM     13  N   UNL     1       3.817   3.956  18.407  0.00  0.00    +0.000 N 
ATOM     14  C   UNL     1       3.280   4.995  19.298  0.00  0.00    +0.000 C 
ATOM     15  C   UNL     1       2.717   4.364  20.592  0.00  0.00    +0.000 C 
ATOM     16  N   UNL     1       1.739   3.283  20.321  0.00  0.00    +0.000 NA
ATOM     17  C   UNL     1       1.269   2.692  21.571  0.00  0.00    +0.000 C 
ATOM     18  C   UNL     1       2.384   2.258  19.472  0.00  0.00    +0.000 C 
ATOM     19  C   UNL     1       2.914   2.837  18.140  0.00  0.00    +0.000 C 
ENDBRANCH   5  13
TORSDOF 1
ENDMDL
MODEL 4
REMARK VINA RESULT:      -6.5      2.420      3.177
REMARK  Name = 
REMARK  3 active torsions:
REMARK  status: ('A' for Active; 'I' for Inactive)
REMARK    1  A    between atoms: C_1  and  N_2
REMARK    2  A    between atoms: C_5  and  N_6
REMARK    3  A    between atoms: N_9  and  C_10
REMARK                            x       y       z     vdW  Elec       q    Type
REMARK                         _______ _______ _______ _____ _____    ______ ____
ROOT
ATOM      1  C   UNL     1       8.199   8.778  17.396  0.00  0.00    +0.000 C 
ATOM      2  N   UNL     1       6.985   8.023  17.116  0.00  0.00    +0.000 N 
ATOM      3  C   UNL     1       6.836   6.897  17.955  0.00  0.00    +0.000 A 
ATOM      4  C   UNL     1       5.716   6.104  17.806  0.00  0.00    +0.000 A 
ATOM      5  C   UNL     1       5.577   5.004  18.633  0.00  0.00    +0.000 A 
ATOM      6  N   UNL     1       6.527   4.735  19.543  0.00  0.00    +0.000 NA
ATOM      7  C   UNL     1       7.596   5.525  19.594  0.00  0.00    +0.000 A 
ATOM      8  N   UNL     1       8.609   5.187  20.472  0.00  0.00    +0.000 N 
ATOM      9  N   UNL     1       7.772   6.616  18.866  0.00  0.00    +0.000 NA
ATOM     10  H   UNL     1       6.955   7.705  16.150  0.00  0.00    +0.000 HD
ATOM     11  H   UNL     1       8.233   4.635  21.225  0.00  0.00    +0.000 HD
ATOM     12  H   UNL     1       9.142   6.013  20.699  0.00  0.00    +0.000 HD
ENDROOT
BRANCH   5  13
ATOM     13  N   UNL     1       4.541   4.115  18.522  0.00  0.00    +0.000 N 
ATOM     14  C   UNL     1       3.723   4.124  17.301  0.00  0.00    +0.000 C 
ATOM     15  C   UNL     1       2.246   3.816  17.634  0.00  0.00    +0.000 C 
ATOM     16  N   UNL     1       2.085   2.568  18.419  0.00  0.00    +0.000 NA
ATOM     17  C   UNL     1       0.679   2.344  18.743  0.00  0.00    +0.000 C 
ATOM     18  C   UNL     1       2.892   2.676  19.654  0.00  0.00    +0.000 C 
ATOM     19  C   UNL     1       4.390   2.929  19.365  0.00  0.00    +0.000 C 
ENDBRANCH   5  13
TORSDOF 1
ENDMDL
MODEL 5
REMARK VINA RESULT:      -6.5      2.136      5.666
REMARK  Name = 
REMARK  3 active torsions:
REMARK  status: ('A' for Active; 'I' for Inactive)
REMARK    1  A    between atoms: C_1  and  N_2
REMARK    2  A    between atoms: C_5  and  N_6
REMARK    3  A    between atoms: N_9  and  C_10
REMARK                            x       y       z     vdW  Elec       q    Type
REMARK                         _______ _______ _______ _____ _____    ______ ____
ROOT
ATOM      1  C   UNL     1       0.604   2.377  18.927  0.00  0.00    +0.000 C 
ATOM      2  N   UNL     1       1.348   3.450  18.284  0.00  0.00    +0.000 N 
ATOM      3  C   UNL     1       2.720   3.441  18.619  0.00  0.00    +0.000 A 
ATOM      4  C   UNL     1       3.544   4.398  18.060  0.00  0.00    +0.000 A 
ATOM      5  C   UNL     1       4.887   4.381  18.392  0.00  0.00    +0.000 A 
ATOM      6  N   UNL     1       5.347   3.451  19.245  0.00  0.00    +0.000 NA
ATOM      7  C   UNL     1       4.479   2.591  19.772  0.00  0.00    +0.000 A 
ATOM      8  N   UNL     1       4.947   1.697  20.716  0.00  0.00    +0.000 N 
ATOM      9  N   UNL     1       3.193   2.523  19.465  0.00  0.00    +0.000 NA
ATOM     10  H   UNL     1       0.970   4.364  18.521  0.00  0.00    +0.000 HD
ATOM     11  H   UNL     1       5.933   1.549  20.582  0.00  0.00    +0.000 HD
ATOM     12  H   UNL     1       4.338   0.892  20.743  0.00  0.00    +0.000 HD
ENDROOT
BRANCH   5  13
ATOM     13  N   UNL     1       5.776   5.325  17.950  0.00  0.00    +0.000 N 
ATOM     14  C   UNL     1       7.195   5.190  18.310  0.00  0.00    +0.000 C 
ATOM     15  C   UNL     1       7.828   6.579  18.552  0.00  0.00    +0.000 C 
ATOM     16  N   UNL     1       7.613   7.510  17.418  0.00  0.00    +0.000 NA
ATOM     17  C   UNL     1       8.192   8.818  17.712  0.00  0.00    +0.000 C 
ATOM     18  C   UNL     1       6.160   7.630  17.170  0.00  0.00    +0.000 C 
ATOM     19  C   UNL     1       5.494   6.267  16.868  0.00  0.00    +0.000 C 
ENDBRANCH   5  13
TORSDOF 1
ENDMDL
MODEL 6
REMARK VINA RESULT:      -6.4      2.032      6.024
REMARK  Name = 
REMARK  3 active torsions:
REMARK  status: ('A' for Active; 'I' for Inactive)
REMARK    1  A    between atoms: C_1  and  N_2
REMARK    2  A    between atoms: C_5  and  N_6
REMARK    3  A    between atoms: N_9  and  C_10
REMARK                            x       y       z     vdW  Elec       q    Type
REMARK                         _______ _______ _______ _____ _____    ______ ____
ROOT
ATOM      1  C   UNL     1       1.298   2.735  21.694  0.00  0.00    +0.000 C 
ATOM      2  N   UNL     1       2.101   3.874  21.273  0.00  0.00    +0.000 N 
ATOM      3  C   UNL     1       2.949   3.573  20.185  0.00  0.00    +0.000 A 
ATOM      4  C   UNL     1       3.752   4.574  19.675  0.00  0.00    +0.000 A 
ATOM      5  C   UNL     1       4.579   4.271  18.608  0.00  0.00    +0.000 A 
ATOM      6  N   UNL     1       4.584   3.025  18.107  0.00  0.00    +0.000 NA
ATOM      7  C   UNL     1       3.811   2.108  18.683  0.00  0.00    +0.000 A 
ATOM      8  N   UNL     1       3.892   0.809  18.217  0.00  0.00    +0.000 N 
ATOM      9  N   UNL     1       2.966   2.339  19.675  0.00  0.00    +0.000 NA
ATOM     10  H   UNL     1       2.675   4.231  22.034  0.00  0.00    +0.000 HD
ATOM     11  H   UNL     1       4.213   0.812  17.263  0.00  0.00    +0.000 HD
ATOM     12  H   UNL     1       3.035   0.323  18.436  0.00  0.00    +0.000 HD
ENDROOT
BRANCH   5  13
ATOM     13  N   UNL     1       5.464   5.169  18.073  0.00  0.00    +0.000 N 
ATOM     14  C   UNL     1       6.902   4.986  18.323  0.00  0.00    +0.000 C 
ATOM     15  C   UNL     1       7.604   6.354  18.479  0.00  0.00    +0.000 C 
ATOM     16  N   UNL     1       7.334   7.268  17.343  0.00  0.00    +0.000 NA
ATOM     17  C   UNL     1       7.983   8.558  17.557  0.00  0.00    +0.000 C 
ATOM     18  C   UNL     1       5.871   7.439  17.207  0.00  0.00    +0.000 C 
ATOM     19  C   UNL     1       5.133   6.098  16.994  0.00  0.00    +0.000 C 
ENDBRANCH   5  13
TORSDOF 1
ENDMDL
MODEL 7
REMARK VINA RESULT:      -6.3      1.531      5.993
REMARK  Name = 
REMARK  3 active torsions:
REMARK  status: ('A' for Active; 'I' for Inactive)
REMARK    1  A    between atoms: C_1  and  N_2
REMARK    2  A    between atoms: C_5  and  N_6
REMARK    3  A    between atoms: N_9  and  C_10
REMARK                            x       y       z     vdW  Elec       q    Type
REMARK                         _______ _______ _______ _____ _____    ______ ____
ROOT
ATOM      1  C   UNL     1       1.468   2.585  21.641  0.00  0.00    +0.000 C 
ATOM      2  N   UNL     1       2.506   2.520  20.622  0.00  0.00    +0.000 N 
ATOM      3  C   UNL     1       2.873   3.794  20.134  0.00  0.00    +0.000 A 
ATOM      4  C   UNL     1       3.864   3.875  19.175  0.00  0.00    +0.000 A 
ATOM      5  C   UNL     1       4.218   5.126  18.703  0.00  0.00    +0.000 A 
ATOM      6  N   UNL     1       3.593   6.215  19.179  0.00  0.00    +0.000 NA
ATOM      7  C   UNL     1       2.620   6.047  20.072  0.00  0.00    +0.000 A 
ATOM      8  N   UNL     1       1.923   7.166  20.487  0.00  0.00    +0.000 N 
ATOM      9  N   UNL     1       2.261   4.887  20.598  0.00  0.00    +0.000 NA
ATOM     10  H   UNL     1       2.221   1.947  19.831  0.00  0.00    +0.000 HD
ATOM     11  H   UNL     1       2.498   7.984  20.371  0.00  0.00    +0.000 HD
ATOM     12  H   UNL     1       1.517   6.987  21.394  0.00  0.00    +0.000 HD
ENDROOT
BRANCH   5  13
ATOM     13  N   UNL     1       5.136   5.313  17.704  0.00  0.00    +0.000 N 
ATOM     14  C   UNL     1       4.876   6.337  16.681  0.00  0.00    +0.000 C 
ATOM     15  C   UNL     1       5.394   5.870  15.302  0.00  0.00    +0.000 C 
ATOM     16  N   UNL     1       6.815   5.447  15.339  0.00  0.00    +0.000 NA
ATOM     17  C   UNL     1       7.245   4.977  14.025  0.00  0.00    +0.000 C 
ATOM     18  C   UNL     1       6.968   4.377  16.348  0.00  0.00    +0.000 C 
ATOM     19  C   UNL     1       6.512   4.821  17.758  0.00  0.00    +0.000 C 
ENDBRANCH   5  13
TORSDOF 1
ENDMDL
MODEL 8
REMARK VINA RESULT:      -6.1      3.049      4.201
REMARK  Name = 
REMARK  3 active torsions:
REMARK  status: ('A' for Active; 'I' for Inactive)
REMARK    1  A    between atoms: C_1  and  N_2
REMARK    2  A    between atoms: C_5  and  N_6
REMARK    3  A    between atoms: N_9  and  C_10
REMARK                            x       y       z     vdW  Elec       q    Type
REMARK                         _______ _______ _______ _____ _____    ______ ____
ROOT
ATOM      1  C   UNL     1       6.982   4.933  15.255  0.00  0.00    +0.000 C 
ATOM      2  N   UNL     1       5.974   5.942  15.552  0.00  0.00    +0.000 N 
ATOM      3  C   UNL     1       5.313   5.710  16.779  0.00  0.00    +0.000 A 
ATOM      4  C   UNL     1       4.346   6.606  17.188  0.00  0.00    +0.000 A 
ATOM      5  C   UNL     1       3.704   6.372  18.392  0.00  0.00    +0.000 A 
ATOM      6  N   UNL     1       4.031   5.291  19.118  0.00  0.00    +0.000 NA
ATOM      7  C   UNL     1       4.945   4.454  18.631  0.00  0.00    +0.000 A 
ATOM      8  N   UNL     1       5.207   3.298  19.342  0.00  0.00    +0.000 N 
ATOM      9  N   UNL     1       5.627   4.639  17.512  0.00  0.00    +0.000 NA
ATOM     10  H   UNL     1       5.271   5.998  14.819  0.00  0.00    +0.000 HD
ATOM     11  H   UNL     1       4.976   3.438  20.312  0.00  0.00    +0.000 HD
ATOM     12  H   UNL     1       6.132   2.968  19.110  0.00  0.00    +0.000 HD
ENDROOT
BRANCH   5  13
ATOM     13  N   UNL     1       2.683   7.157  18.857  0.00  0.00    +0.000 N 
ATOM     14  C   UNL     1       2.071   8.140  17.950  0.00  0.00    +0.000 C 
ATOM     15  C   UNL     1       1.676   9.420  18.721  0.00  0.00    +0.000 C 
ATOM     16  N   UNL     1       0.833   9.134  19.906  0.00  0.00    +0.000 NA
ATOM     17  C   UNL     1       0.522  10.368  20.623  0.00  0.00    +0.000 C 
ATOM     18  C   UNL     1       1.553   8.189  20.787  0.00  0.00    +0.000 C 
ATOM     19  C   UNL     1       1.919   6.869  20.070  0.00  0.00    +0.000 C 
ENDBRANCH   5  13
TORSDOF 1
ENDMDL
MODEL 9
REMARK VINA RESULT:      -6.0      1.459      1.489
REMARK  Name = 
REMARK  3 active torsions:
REMARK  status: ('A' for Active; 'I' for Inactive)
REMARK    1  A    between atoms: C_1  and  N_2
REMARK    2  A    between atoms: C_5  and  N_6
REMARK    3  A    between atoms: N_9  and  C_10
REMARK                            x       y       z     vdW  Elec       q    Type
REMARK                         _______ _______ _______ _____ _____    ______ ____
ROOT
ATOM      1  C   UNL     1       7.702   5.124  13.536  0.00  0.00    +0.000 C 
ATOM      2  N   UNL     1       6.359   5.082  14.096  0.00  0.00    +0.000 N 
ATOM      3  C   UNL     1       6.356   4.888  15.495  0.00  0.00    +0.000 A 
ATOM      4  C   UNL     1       5.144   4.847  16.155  0.00  0.00    +0.000 A 
ATOM      5  C   UNL     1       5.150   4.658  17.526  0.00  0.00    +0.000 A 
ATOM      6  N   UNL     1       6.320   4.514  18.169  0.00  0.00    +0.000 NA
ATOM      7  C   UNL     1       7.442   4.524  17.454  0.00  0.00    +0.000 A 
ATOM      8  N   UNL     1       8.632   4.285  18.113  0.00  0.00    +0.000 N 
ATOM      9  N   UNL     1       7.511   4.743  16.150  0.00  0.00    +0.000 NA
ATOM     10  H   UNL     1       5.799   4.346  13.673  0.00  0.00    +0.000 HD
ATOM     11  H   UNL     1       8.536   4.534  19.084  0.00  0.00    +0.000 HD
ATOM     12  H   UNL     1       9.392   4.687  17.585  0.00  0.00    +0.000 HD
ENDROOT
BRANCH   5  13
ATOM     13  N   UNL     1       4.004   4.532  18.265  0.00  0.00    +0.000 N 
ATOM     14  C   UNL     1       4.105   4.094  19.665  0.00  0.00    +0.000 C 
ATOM     15  C   UNL     1       2.905   3.196  20.041  0.00  0.00    +0.000 C 
ATOM     16  N   UNL     1       1.600   3.829  19.734  0.00  0.00    +0.000 NA
ATOM     17  C   UNL     1       0.501   2.927  20.068  0.00  0.00    +0.000 C 
ATOM     18  C   UNL     1       1.566   4.179  18.297  0.00  0.00    +0.000 C 
ATOM     19  C   UNL     1       2.721   5.122  17.888  0.00  0.00    +0.000 C 
ENDBRANCH   5  13
TORSDOF 1
ENDMDL
